108
Energy=-1.855698e+06 Lattice="9.476278e+00 0.000000e+00 0.000000e+00 -4.738139e+00 8.206697e+00 0.000000e+00 9.377101e-16 1.624162e-15 1.531397e+01" Stress="-5.285728e-02 6.328583e-03 -2.756862e-04 6.318837e-03 -4.662273e-02 -4.766384e-04 -2.689120e-04 -4.777395e-04 -4.603153e-02" Properties=species:S:1:pos:R:3:forces:R:3 Config_type=AlGaN_super3_31_2_0.xyz
Al 1.564294e+00 9.031460e-01 2.504900e+00 -1.579968e-03 -1.448292e-02 -1.303281e-02
Al 1.564294e+00 9.031460e-01 7.521855e+00 -1.400992e-03 -1.429950e-02 -5.103549e-03
Al 1.564294e+00 9.031460e-01 -2.775158e+00 -1.095490e-03 -1.463586e-02 -5.607352e-03
Al 2.938992e-08 3.612582e+00 2.504900e+00 -2.313974e-03 -1.883676e-03 -1.221402e-02
Al 2.938992e-08 3.612582e+00 7.521855e+00 -3.028318e-03 -1.338544e-03 -2.446148e-03
Ga 2.938992e-08 3.612582e+00 -2.775158e+00 -3.559523e-03 -1.571163e-03 -3.469041e-03
Al 3.173845e+00 -1.884678e+00 2.504900e+00 -3.632181e-03 1.972602e-03 -1.312396e-02
Ga 3.173845e+00 -1.884678e+00 7.521855e+00 -2.911061e-03 1.348268e-03 -2.962353e-03
Al 3.173845e+00 -1.884678e+00 -2.775158e+00 -3.084354e-03 1.759911e-03 -5.854607e-03
Al -4.783396e+00 9.031460e-01 2.504900e+00 1.057868e-03 -1.339946e-02 -1.138138e-02
Ga -4.783396e+00 9.031460e-01 7.521855e+00 7.050052e-04 -1.709001e-02 -5.193475e-03
Al -4.783396e+00 9.031460e-01 -2.775158e+00 9.218702e-04 -1.362727e-02 -4.873486e-03
Al -6.347690e+00 3.612582e+00 2.504900e+00 -1.162318e-03 -1.877183e-04 -1.019486e-02
Ga -6.347690e+00 3.612582e+00 7.521855e+00 -7.043767e-04 1.131617e-04 -1.916219e-03
Ga -6.347690e+00 3.612582e+00 -2.775158e+00 -1.720379e-04 -9.344702e-04 -1.279960e-03
Al -3.173845e+00 -1.884678e+00 2.504900e+00 -2.729590e-04 2.619476e-03 -1.220254e-02
Al -3.173845e+00 -1.884678e+00 7.521855e+00 -4.224599e-04 2.866838e-03 -2.664693e-03
Ga -3.173845e+00 -1.884678e+00 -2.775158e+00 -1.350107e-03 3.638838e-03 -2.670920e-03
Al -1.654808e+00 9.031460e-01 2.504900e+00 1.442025e-02 -7.940766e-03 -1.301369e-02
Ga -1.654808e+00 9.031460e-01 7.521855e+00 1.641315e-02 -9.078856e-03 -7.869959e-03
Ga -1.654808e+00 9.031460e-01 -2.775158e+00 1.625017e-02 -9.007682e-03 -8.347142e-03
Ga -3.219102e+00 3.612582e+00 2.504900e+00 1.549671e-02 7.658998e-03 -1.441684e-02
Al -3.219102e+00 3.612582e+00 7.521855e+00 1.262009e-02 5.501976e-03 -3.377491e-03
Ga -3.219102e+00 3.612582e+00 -2.775158e+00 1.564434e-02 7.867804e-03 -5.731753e-03
Ga -4.525702e-02 -1.884678e+00 2.504900e+00 1.498264e-02 1.116601e-02 -1.538989e-02
Ga -4.525702e-02 -1.884678e+00 7.521855e+00 1.480774e-02 1.107898e-02 -5.833950e-03
Ga -4.525702e-02 -1.884678e+00 -2.775158e+00 1.557772e-02 1.121474e-02 -5.523140e-03
Ga 1.469567e-08 1.806291e+00 5.013378e+00 -1.491052e-02 -1.141772e-02 -7.802787e-03
Al 1.469567e-08 1.806291e+00 -5.283635e+00 -1.184407e-02 -8.108354e-03 -5.933448e-03
Al 1.469567e-08 1.806291e+00 -2.666800e-01 -1.187214e-02 -8.300234e-03 3.494263e-02
Ga 3.173845e+00 -3.690969e+00 5.013378e+00 -1.529122e-02 -7.840949e-03 -5.726768e-03
Al 3.173845e+00 -3.690969e+00 -5.283635e+00 -1.186366e-02 -5.156125e-03 -4.682791e-03
Ga 3.173845e+00 -3.690969e+00 -2.666800e-01 -1.464370e-02 -7.722905e-03 4.592641e-02
Ga 1.609551e+00 -9.815320e-01 5.013378e+00 -1.630193e-02 9.600604e-03 -1.004739e-02
Al 1.609551e+00 -9.815320e-01 -5.283635e+00 -1.340588e-02 7.951245e-03 -6.023533e-03
Al 1.609551e+00 -9.815320e-01 -2.666800e-01 -1.380035e-02 8.182129e-03 3.362606e-02
Al 3.128588e+00 1.806291e+00 5.013378e+00 4.508182e-04 -3.357427e-03 -4.847335e-03
Ga 3.128588e+00 1.806291e+00 -5.283635e+00 -2.157943e-04 -3.802704e-03 -2.998605e-03
Ga 3.128588e+00 1.806291e+00 -2.666800e-01 -3.924028e-04 -3.435603e-03 4.816990e-02
Ga 6.302433e+00 -3.690969e+00 5.013378e+00 4.196631e-04 -4.554594e-04 -3.036506e-03
Ga 6.302433e+00 -3.690969e+00 -5.283635e+00 -8.092916e-04 -8.528405e-05 -2.892559e-03
Al 6.302433e+00 -3.690969e+00 -2.666800e-01 -2.125115e-04 -1.136149e-05 3.887901e-02
Ga 4.738139e+00 -9.815320e-01 5.013378e+00 -1.004097e-03 1.764192e-02 -6.486830e-03
Al 4.738139e+00 -9.815320e-01 -5.283635e+00 -1.875375e-03 1.273667e-02 -3.995460e-03
Ga 4.738139e+00 -9.815320e-01 -2.666800e-01 -6.807027e-04 1.664647e-02 4.568516e-02
Ga -3.219102e+00 1.806291e+00 5.013378e+00 3.151930e-03 -2.461882e-03 -4.714216e-03
Ga -3.219102e+00 1.806291e+00 -5.283635e+00 3.582198e-03 -1.770461e-03 -4.287476e-03
Ga -3.219102e+00 1.806291e+00 -2.666800e-01 3.697080e-03 -2.409218e-03 4.770075e-02
Ga -4.525703e-02 -3.690969e+00 5.013378e+00 2.742723e-03 1.269649e-03 -3.362886e-03
Ga -4.525703e-02 -3.690969e+00 -5.283635e+00 3.530607e-03 1.359705e-03 -3.289269e-03
Ga -4.525703e-02 -3.690969e+00 -2.666800e-01 2.597585e-03 1.968216e-03 4.939724e-02
Ga -1.609551e+00 -9.815320e-01 5.013378e+00 2.289395e-03 1.897137e-02 -7.376958e-03
Ga -1.609551e+00 -9.815320e-01 -5.283635e+00 1.897049e-03 1.876040e-02 -6.595193e-03
Al -1.609551e+00 -9.815320e-01 -2.666800e-01 1.001441e-03 1.467660e-02 3.563908e-02
N 1.564294e+00 9.031460e-01 4.418497e+00 1.756409e-02 -6.775039e-03 -7.730361e-03
N 1.564294e+00 9.031460e-01 -5.878516e+00 -1.971165e-02 -2.484116e-02 -2.877976e-03
N 1.564294e+00 9.031460e-01 -8.615610e-01 -1.906937e-02 -2.425208e-02 -1.260215e-03
N 2.938992e-08 3.612582e+00 4.418497e+00 -2.757769e-03 4.305010e-04 -1.999790e-02
N 2.938992e-08 3.612582e+00 -5.878516e+00 -2.098195e-02 -1.129413e-02 -5.615643e-03
N 2.938992e-08 3.612582e+00 -8.615610e-01 1.655082e-02 -1.074564e-02 2.035765e-02
N 3.173845e+00 -1.884678e+00 4.418497e+00 -2.843212e-03 1.344258e-03 -2.056133e-02
N 3.173845e+00 -1.884678e+00 -5.878516e+00 -2.790611e-03 1.728248e-03 2.598519e-02
N 3.173845e+00 -1.884678e+00 -8.615610e-01 -2.120881e-02 1.219759e-02 -1.103506e-02
N -4.783396e+00 9.031460e-01 4.418497e+00 -1.849160e-02 -6.815197e-03 -8.137398e-03
N -4.783396e+00 9.031460e-01 -5.878516e+00 9.979683e-04 -3.545388e-02 1.319265e-02
N -4.783396e+00 9.031460e-01 -8.615610e-01 3.184680e-04 -1.712266e-02 -1.315306e-02
N -6.347690e+00 3.612582e+00 4.418497e+00 -4.114815e-04 -2.142143e-02 -1.196344e-02
N -6.347690e+00 3.612582e+00 -5.878516e+00 -2.778387e-04 3.425442e-04 2.778373e-03
N -6.347690e+00 3.612582e+00 -8.615610e-01 -1.890359e-02 1.100521e-02 1.332531e-02
N -3.173845e+00 -1.884678e+00 4.418497e+00 -1.501237e-03 1.934502e-03 -2.021033e-02
N -3.173845e+00 -1.884678e+00 -5.878516e+00 -1.961318e-02 1.314821e-02 -1.360671e-02
N -3.173845e+00 -1.884678e+00 -8.615610e-01 1.769030e-02 -8.980936e-03 2.038904e-02
N -1.654808e+00 9.031460e-01 4.418497e+00 1.640750e-02 -9.321156e-03 -1.154961e-02
N -1.654808e+00 9.031460e-01 -5.878516e+00 3.210170e-02 -1.351013e-03 1.629050e-02
N -1.654808e+00 9.031460e-01 -8.615610e-01 3.227415e-02 -1.857721e-02 2.445430e-02
N -3.219102e+00 3.612582e+00 4.418497e+00 1.588429e-02 8.927118e-03 7.599385e-03
N -3.219102e+00 3.612582e+00 -5.878516e+00 3.062912e-02 1.680815e-02 -1.107900e-02
N -3.219102e+00 3.612582e+00 -8.615610e-01 1.528055e-02 8.370520e-03 1.037749e-02
N -4.525702e-02 -1.884678e+00 4.418497e+00 1.516573e-02 1.002589e-02 7.163350e-03
N -4.525702e-02 -1.884678e+00 -5.878516e+00 3.031963e-02 1.863112e-02 1.214516e-02
N -4.525702e-02 -1.884678e+00 -8.615610e-01 1.169747e-02 2.870905e-02 2.208948e-02
N 1.469567e-08 1.806291e+00 1.910020e+00 -1.188879e-02 -7.748576e-03 -2.984821e-02
N 1.469567e-08 1.806291e+00 6.926975e+00 3.711440e-03 7.608838e-04 2.205126e-02
N 1.469567e-08 1.806291e+00 -3.370038e+00 4.199890e-03 -2.102135e-02 -8.626740e-03
N 3.173845e+00 -3.690969e+00 1.910020e+00 2.982547e-03 2.495778e-03 -2.387767e-02
N 3.173845e+00 -3.690969e+00 6.926975e+00 -1.236810e-02 -2.799247e-02 2.076904e-02
N 3.173845e+00 -3.690969e+00 -3.370038e+00 -1.532689e-02 1.339907e-02 -8.797048e-03
N 1.609551e+00 -9.815320e-01 1.910020e+00 1.815859e-03 1.669064e-02 -3.287331e-02
N 1.609551e+00 -9.815320e-01 6.926975e+00 -1.694716e-02 2.740126e-02 1.708021e-02
N 1.609551e+00 -9.815320e-01 -3.370038e+00 1.788278e-03 1.626742e-02 2.060292e-03
N 3.128588e+00 1.806291e+00 1.910020e+00 1.649256e-03 -1.872242e-03 -2.037823e-02
N 3.128588e+00 1.806291e+00 6.926975e+00 -1.769553e-02 -1.311850e-02 -1.380499e-02
N 3.128588e+00 1.806291e+00 -3.370038e+00 1.031114e-03 -2.307884e-02 1.780990e-02
N 6.302433e+00 -3.690969e+00 1.910020e+00 8.263477e-04 -2.103086e-05 -3.156571e-02
N 6.302433e+00 -3.690969e+00 6.926975e+00 -1.850564e-02 1.072005e-02 1.788029e-02
N 6.302433e+00 -3.690969e+00 -3.370038e+00 1.202400e-03 -1.690691e-04 2.924709e-03
N 4.738139e+00 -9.815320e-01 1.910020e+00 -7.614134e-04 1.411707e-02 -1.813373e-02
N 4.738139e+00 -9.815320e-01 6.926975e+00 1.835202e-02 7.225657e-03 1.451756e-02
N 4.738139e+00 -9.815320e-01 -3.370038e+00 -1.937514e-02 2.422179e-02 -3.021975e-03
N -3.219102e+00 1.806291e+00 1.910020e+00 2.687306e-03 -2.342703e-02 -2.940901e-02
N -3.219102e+00 1.806291e+00 6.926975e+00 2.810574e-03 1.980841e-02 9.662364e-03
N -3.219102e+00 1.806291e+00 -3.370038e+00 -1.588458e-02 -1.241171e-02 9.735839e-03
N -4.525703e-02 -3.690969e+00 1.910020e+00 -1.625871e-02 -1.106941e-02 -3.616906e-02
N -4.525703e-02 -3.690969e+00 6.926975e+00 2.118499e-02 -1.081579e-02 9.779462e-03
N -4.525703e-02 -3.690969e+00 -3.370038e+00 2.030717e-03 3.346134e-04 2.077667e-03
N -1.609551e+00 -9.815320e-01 1.910020e+00 -1.823037e-02 2.503587e-02 -3.777401e-02
N -1.609551e+00 -9.815320e-01 6.926975e+00 -1.736153e-02 7.294243e-03 1.376381e-02
N -1.609551e+00 -9.815320e-01 -3.370038e+00 1.567358e-03 1.756287e-02 6.626440e-03
