108
Energy=-1.581051e+06 Lattice="9.534312e+00 0.000000e+00 0.000000e+00 -4.770445e+00 8.252368e+00 0.000000e+00 -3.408065e-04 1.293414e-02 1.539966e+01" Stress="1.329133e-05 -3.485481e-04 2.216467e-05 -3.525173e-04 -7.080195e-04 5.633337e-04 3.190758e-05 5.445307e-04 -7.493156e-04" Properties=species:S:1:pos:R:3:forces:R:3 Config_type=AlGaN_super3_25_1_37.xyz
Al 1.559260e+00 8.876781e-01 2.402370e+00 -4.025654e-04 -3.908413e-04 3.838115e-05
Al 1.562628e+00 9.001282e-01 7.560941e+00 -5.977090e-05 9.581071e-05 3.375192e-05
Al 1.556030e+00 8.762148e-01 -2.710187e+00 9.171976e-05 -9.128509e-05 -9.682154e-05
Al -2.688775e-02 3.614735e+00 2.418016e+00 -1.047333e-03 3.379720e-04 6.037140e-04
Al -2.770317e-02 3.619741e+00 7.549134e+00 -1.924478e-04 -5.402775e-04 1.194452e-04
Ga -4.468679e-02 3.612264e+00 -2.716392e+00 -5.030220e-05 8.285974e-06 1.867247e-04
Al 3.165311e+00 -1.872278e+00 2.422700e+00 -4.022166e-05 -1.761032e-04 -7.567227e-05
Ga 3.155990e+00 -1.873269e+00 7.562546e+00 -1.359186e-04 6.336823e-05 3.092418e-05
Al 3.149986e+00 -1.888631e+00 -2.727683e+00 -1.212234e-04 2.263969e-05 1.232691e-04
Al -4.786043e+00 8.787294e-01 2.408402e+00 2.197770e-04 -1.195654e-04 5.592714e-05
Al -4.788373e+00 9.038500e-01 7.563889e+00 4.797811e-05 4.215777e-06 -6.647813e-05
Ga -4.792284e+00 8.785519e-01 -2.716961e+00 1.127134e-04 -1.037927e-05 7.036586e-05
Ga -6.375630e+00 3.626643e+00 2.422013e+00 1.745164e-04 1.130741e-04 1.801340e-04
Ga -6.382536e+00 3.622778e+00 7.539828e+00 -4.726800e-05 9.222816e-05 -4.551326e-05
Ga -6.372324e+00 3.616639e+00 -2.699716e+00 2.603505e-06 -6.142025e-05 1.480908e-04
Al -3.215031e+00 -1.868699e+00 2.431464e+00 -5.284821e-05 1.822698e-04 -6.056749e-06
Ga -3.203769e+00 -1.868860e+00 7.555214e+00 4.616826e-05 2.950193e-06 6.968480e-05
Al -3.190300e+00 -1.863253e+00 -2.718619e+00 -8.269562e-05 -5.323456e-05 5.363757e-05
Al -1.608998e+00 9.002159e-01 2.428115e+00 -3.852507e-04 2.116779e-04 -1.473607e-05
Ga -1.616177e+00 9.111488e-01 7.559701e+00 3.463178e-04 -1.484642e-04 9.515908e-05
Al -1.603764e+00 8.733009e-01 -2.738839e+00 2.944268e-04 2.180088e-04 -2.453516e-04
Al -3.201803e+00 3.621424e+00 2.427055e+00 4.317623e-04 1.083103e-04 7.863883e-04
Al -3.199202e+00 3.618702e+00 7.548255e+00 5.070395e-04 8.620552e-05 1.477549e-05
Al -3.192441e+00 3.630008e+00 -2.722841e+00 8.333113e-05 2.444618e-04 3.631491e-05
Ga -1.221617e-02 -1.877407e+00 2.411919e+00 5.761644e-05 2.566701e-05 3.543001e-05
Ga -1.702361e-02 -1.864879e+00 7.561663e+00 2.398144e-05 -5.715816e-05 1.035574e-04
Al -2.441847e-02 -1.868861e+00 -2.709272e+00 1.286875e-05 -1.286703e-05 9.533871e-05
Al -2.145709e-02 1.808272e+00 4.975474e+00 -4.054237e-04 3.704664e-04 2.161603e-05
Al -2.668866e-02 1.786836e+00 -5.282711e+00 2.980922e-04 2.485463e-04 -3.251675e-04
Al -2.022639e-02 1.783495e+00 -1.433200e-01 1.027405e-03 3.090149e-04 6.402011e-05
Ga 3.156874e+00 -3.729702e+00 4.970495e+00 -1.596632e-04 -9.125574e-06 -2.436390e-04
Al 3.152835e+00 -3.738871e+00 -5.287309e+00 8.186844e-06 4.575117e-06 5.975381e-05
Ga 3.144465e+00 -3.717748e+00 -1.247637e-01 -3.983001e-05 1.655784e-04 2.413013e-04
Ga 1.562646e+00 -9.399025e-01 4.980131e+00 -7.645488e-05 -1.006452e-04 6.901004e-05
Ga 1.561843e+00 -9.411126e-01 -5.250050e+00 -1.596724e-04 1.965721e-04 1.007868e-04
Ga 1.570447e+00 -9.465355e-01 -1.642179e-01 -1.586999e-04 2.495151e-04 -1.314584e-04
Ga 3.153208e+00 1.798564e+00 4.979782e+00 8.051193e-05 -5.120919e-05 1.297022e-04
Al 3.147974e+00 1.781512e+00 -5.293501e+00 -6.712744e-05 3.219173e-05 -2.714147e-05
Al 3.142361e+00 1.793626e+00 -1.285328e-01 -8.395633e-05 1.113379e-05 3.109436e-05
Al 6.326509e+00 -3.712023e+00 4.972228e+00 -1.832996e-04 -9.241266e-06 -3.042134e-05
Ga 6.324272e+00 -3.722481e+00 -5.271585e+00 -4.292648e-05 -8.702044e-05 1.288757e-04
Ga 6.339451e+00 -3.716025e+00 -1.377507e-01 -6.220938e-06 2.314325e-05 -2.225211e-04
Ga 4.753311e+00 -9.417419e-01 4.976771e+00 -1.369471e-04 -4.214726e-05 2.204416e-05
Ga 4.752236e+00 -9.474996e-01 -5.269186e+00 -7.389122e-05 -6.629921e-05 1.503040e-05
Ga 4.743318e+00 -9.589910e-01 -1.352125e-01 -2.493168e-04 5.938999e-05 -1.195707e-04
Al -3.205569e+00 1.809825e+00 4.970038e+00 2.760430e-04 5.308594e-04 -2.259471e-04
Al -3.194581e+00 1.798527e+00 -5.279401e+00 4.931426e-04 -2.386248e-04 3.842624e-04
Ga -3.194666e+00 1.805707e+00 -1.417660e-01 -1.854536e-05 2.234930e-06 2.145375e-04
Al -1.532110e-02 -3.716021e+00 4.993927e+00 3.033482e-04 -1.606460e-04 -1.763849e-04
Ga -5.587935e-03 -3.722775e+00 -5.268582e+00 1.126469e-05 -1.814634e-05 1.354933e-04
Al -1.258177e-02 -3.717679e+00 -1.633339e-01 3.834136e-05 -2.414529e-05 -4.702283e-06
Ga -1.615368e+00 -9.431028e-01 4.959898e+00 2.386473e-05 -1.573208e-05 -5.616215e-05
Al -1.610633e+00 -9.421729e-01 -5.247610e+00 3.208209e-05 1.844142e-05 1.001915e-05
Ga -1.606199e+00 -9.472855e-01 -1.472359e-01 -1.651025e-04 -4.349782e-05 1.504452e-04
N 1.521126e+00 9.106388e-01 4.314489e+00 -8.940033e-05 9.627926e-05 1.310813e-04
N 1.559096e+00 9.211679e-01 -5.920445e+00 1.426771e-04 5.441878e-05 6.285506e-05
N 1.565520e+00 9.339015e-01 -7.861540e-01 -2.907696e-04 2.029489e-04 2.712295e-04
N 1.725510e-02 3.602504e+00 4.337756e+00 1.987193e-04 -5.368269e-04 -1.626274e-04
N -6.462569e-02 3.593096e+00 -5.921253e+00 -1.955354e-05 8.526646e-05 3.338665e-04
N -3.197450e-02 3.576271e+00 -7.419226e-01 3.830344e-05 -6.615615e-05 1.748478e-05
N 3.155692e+00 -1.872308e+00 4.328140e+00 8.557166e-05 1.174569e-04 -1.173091e-04
N 3.153061e+00 -1.925810e+00 -5.864173e+00 1.674341e-05 -3.370514e-05 5.194359e-06
N 3.161141e+00 -1.886162e+00 -8.171906e-01 -3.420631e-05 5.194981e-05 -2.279062e-05
N -4.750208e+00 9.109362e-01 4.319855e+00 -4.447121e-04 -2.833680e-04 -8.618907e-05
N -4.783631e+00 9.276729e-01 -5.908172e+00 -2.643813e-04 -1.796605e-04 -1.752793e-04
N -4.832281e+00 9.042876e-01 -7.407994e-01 6.683026e-05 1.602423e-04 -5.577335e-05
N -6.377277e+00 3.680242e+00 4.406884e+00 -5.542232e-05 -7.702994e-05 -5.872640e-05
N -6.379019e+00 3.580707e+00 -5.884636e+00 1.922693e-05 -2.249006e-05 -1.998375e-04
N -6.339454e+00 3.596114e+00 -7.182984e-01 3.058020e-05 2.304822e-05 -7.164529e-05
N -3.203441e+00 -1.918267e+00 4.337739e+00 -2.247305e-05 -2.255507e-05 -1.617653e-04
N -3.152614e+00 -1.854492e+00 -5.874447e+00 -2.717695e-05 -3.995130e-05 1.591916e-05
N -3.196565e+00 -1.871814e+00 -8.128631e-01 5.375138e-05 1.961053e-05 6.056509e-05
N -1.612062e+00 9.435804e-01 4.350328e+00 8.048602e-04 2.234997e-05 5.985644e-04
N -1.614200e+00 8.761681e-01 -5.845066e+00 -2.240066e-04 -1.782115e-04 -8.829699e-05
N -1.568892e+00 9.056897e-01 -8.139119e-01 -4.722103e-04 -3.753216e-04 -4.017564e-04
N -3.251006e+00 3.609976e+00 4.344218e+00 -2.848076e-05 -1.050777e-04 -1.807249e-04
N -3.163046e+00 3.594035e+00 -5.928120e+00 -8.172486e-05 2.751221e-04 -5.899940e-04
N -3.234661e+00 3.647631e+00 -8.110086e-01 -6.199628e-05 -1.298211e-04 -2.641476e-04
N -1.975387e-02 -1.922500e+00 4.381397e+00 -4.199369e-05 -1.519907e-04 -2.221913e-05
N -6.405954e-02 -1.851769e+00 -5.863817e+00 -1.847765e-05 -1.252150e-04 -5.960425e-05
N -2.540634e-02 -1.918124e+00 -7.917536e-01 -9.234996e-05 -1.202376e-04 1.339375e-05
N -2.713447e-02 1.790300e+00 1.784499e+00 1.776142e-04 1.374502e-05 1.498597e-04
N 1.826031e-02 1.822171e+00 6.906522e+00 -8.664781e-05 2.992498e-05 -2.732289e-04
N -1.795576e-02 1.741456e+00 -3.366395e+00 -1.137415e-04 -5.502634e-05 2.792195e-04
N 3.152980e+00 -3.709924e+00 1.864573e+00 4.040798e-04 -2.624374e-04 4.453220e-05
N 3.159056e+00 -3.755219e+00 6.955644e+00 -7.001656e-04 7.769112e-05 9.888466e-05
N 3.115556e+00 -3.695224e+00 -3.366134e+00 -4.255004e-07 1.617009e-06 1.834459e-05
N 1.612853e+00 -9.297761e-01 1.819435e+00 6.046330e-06 1.498778e-05 -1.155047e-04
N 1.570179e+00 -8.962492e-01 6.954803e+00 -1.484603e-04 7.130811e-05 -2.737260e-05
N 1.565287e+00 -9.530451e-01 -3.262752e+00 -5.740903e-05 9.179004e-05 -6.771023e-05
N 3.150380e+00 1.748066e+00 1.790628e+00 5.965978e-04 1.594428e-04 -1.392109e-04
N 3.153358e+00 1.745028e+00 6.959794e+00 1.596968e-04 -5.706857e-05 5.460878e-06
N 3.108375e+00 1.762974e+00 -3.378477e+00 9.315577e-05 6.745754e-06 -1.715154e-04
N 6.291722e+00 -3.681535e+00 1.838442e+00 4.858596e-04 9.763295e-05 -2.874895e-04
N 6.285309e+00 -3.725037e+00 6.896374e+00 3.720278e-04 2.220868e-04 -8.587110e-05
N 6.331902e+00 -3.669962e+00 -3.301506e+00 5.623094e-06 -4.479244e-06 -5.229075e-05
N 4.745837e+00 -9.562152e-01 1.850452e+00 -6.391887e-05 -1.674290e-04 -1.456685e-04
N 4.744149e+00 -8.949649e-01 6.954863e+00 -4.979183e-05 4.789910e-05 -2.282289e-05
N 4.745691e+00 -1.003078e+00 -3.296119e+00 -1.050243e-04 2.048729e-05 -2.263820e-05
N -3.194884e+00 1.797956e+00 1.844276e+00 -2.331184e-04 3.659789e-05 -4.299715e-04
N -3.245869e+00 1.823432e+00 6.902036e+00 -4.471621e-05 -5.098892e-05 2.039013e-04
N -3.161813e+00 1.818680e+00 -3.353849e+00 -1.140109e-04 -2.887747e-04 9.517947e-05
N 2.711824e-02 -3.733980e+00 1.750030e+00 -3.145795e-04 -1.875479e-05 -1.218250e-04
N 2.532511e-02 -3.723798e+00 6.909848e+00 1.035382e-04 -8.776446e-05 -1.969081e-05
N 2.151730e-02 -3.688222e+00 -3.294415e+00 5.103357e-06 8.642955e-06 -9.042596e-06
N -1.654605e+00 -9.241052e-01 1.841836e+00 2.060941e-04 -1.500359e-04 -1.399518e-04
N -1.611698e+00 -9.385778e-01 6.923333e+00 -1.090833e-04 -1.667001e-05 -1.579893e-04
N -1.609201e+00 -9.573194e-01 -3.323013e+00 -6.245192e-05 8.702227e-05 5.768413e-05
