108
Energy=-2633887.967107 Lattice="9.673617 0.000000 0.000000 -4.842220 8.370535 0.000000 -0.010614 0.015319 15.696516" Stress="0.000004 -0.000002 -0.000003 -0.000002 0.000001 0.000004 -0.000003 0.000005 0.000001" Properties=species:S:1:pos:R:3:forces:R:3
Al 1.579472 0.903177 2.474852 0.000503 -0.000726 0.000166
Ga 1.587166 0.903010 7.682127 0.000153 0.000078 0.000132
Ga 1.593513 0.893759 -2.751996 0.000059 0.000290 0.000132
Al -0.025223 3.665856 2.463513 0.000281 -0.000728 0.000043
Ga -0.029173 3.684522 7.695147 0.000015 -0.000005 0.000032
Ga -0.011721 3.670646 -2.752523 -0.000118 0.000177 0.000050
Ga 3.201169 -1.900443 2.469264 0.000445 -0.000749 0.000024
Ga 3.197147 -1.893062 7.694025 0.000079 0.000028 -0.000087
Ga 3.205497 -1.906308 -2.751321 -0.000034 0.000242 0.000101
Ga -4.869060 0.895624 2.476463 0.000364 -0.000641 0.000077
Ga -4.875296 0.903076 7.684422 0.000165 0.000103 0.000028
Ga -4.862805 0.894928 -2.754225 0.000084 0.000310 0.000085
Ga -6.490429 3.667109 2.480120 0.000385 -0.000763 0.000020
Ga -6.482252 3.679239 7.681451 0.000012 0.000001 0.000089
Al -6.472484 3.674638 -2.754113 -0.000073 0.000151 0.000174
Ga -3.238989 -1.896477 2.454079 0.000197 -0.000513 -0.000058
Ga -3.250494 -1.894283 7.696968 -0.000041 0.000025 -0.000040
Ga -3.231603 -1.911455 -2.742637 0.000004 0.000217 0.000046
Al -1.623634 0.891851 2.454579 0.000120 -0.000972 0.000313
Ga -1.639918 0.900170 7.689408 0.000048 0.000010 0.000075
Ga -1.630514 0.881720 -2.737392 -0.000010 0.000078 -0.000349
Ga -3.239056 3.674781 2.465622 0.000344 -0.000975 0.000087
Ga -3.255722 3.688136 7.696924 -0.000027 -0.000180 -0.000047
Ga -3.255447 3.674456 -2.752352 -0.000113 0.000020 0.000099
Ga -0.031290 -1.879633 2.454626 0.000497 -0.000831 0.000048
Ga -0.027033 -1.890910 7.697034 0.000050 -0.000163 -0.000049
Ga -0.026673 -1.908371 -2.742070 -0.000114 0.000038 0.000442
Ga -0.020073 1.825770 5.039015 -0.000099 0.000254 0.000246
Ga -0.020824 1.811259 -5.376844 -0.000057 0.000251 -0.000015
Ga -0.030928 1.815197 -0.107967 0.000794 -0.000975 0.000096
Ga 3.207207 -3.759094 5.070849 0.000057 0.000314 0.000006
Ga 3.208875 -3.767639 -5.374980 -0.000018 0.000283 -0.000043
Ga 3.206854 -3.758190 -0.130134 0.000578 -0.001088 -0.000239
Ga 1.589239 -0.948419 5.064734 0.000080 0.000227 0.000010
Ga 1.594270 -0.975579 -5.376092 -0.000106 0.000114 0.000048
Ga 1.579938 -0.957785 -0.125303 0.000313 -0.001310 -0.000237
Al 3.188053 1.822086 5.066860 -0.000015 0.000051 0.000005
Ga 3.202759 1.819277 -5.368248 -0.000019 0.000119 0.000128
Ga 3.193138 1.831553 -0.140516 0.000463 -0.001236 0.000054
Ga 6.421732 -3.763671 5.064806 -0.000056 0.000054 0.000019
Ga 6.438321 -3.769670 -5.365975 0.000012 0.000111 0.000026
Ga 6.435107 -3.755308 -0.139897 0.000569 -0.001027 -0.000063
Ga 4.808876 -0.955200 5.077260 -0.000142 -0.000013 -0.000076
Ga 4.820083 -0.975740 -5.375902 -0.000156 -0.000019 -0.000038
Ga 4.822977 -0.962366 -0.138534 0.000291 -0.001389 -0.000129
Ga -3.256357 1.821904 5.064153 0.000041 0.000079 0.000069
Ga -3.244243 1.812539 -5.376536 -0.000043 0.000141 -0.000037
Ga -3.242053 1.813891 -0.127879 0.000139 -0.001111 0.000010
Ga -0.030235 -3.759102 5.076494 -0.000018 -0.000046 -0.000052
Ga -0.022885 -3.768612 -5.365488 -0.000012 0.000130 0.000096
Ga -0.036112 -3.752639 -0.149403 0.000569 -0.000859 -0.000280
Ga -1.638291 -0.955910 5.069051 -0.000225 0.000133 0.000085
Ga -1.629531 -0.974117 -5.374833 -0.000140 0.000039 0.000066
Al -1.635231 -0.960061 -0.130019 0.000519 -0.001211 0.000029
N 1.628629 0.923041 4.400012 -0.000017 -0.000332 0.000033
N 1.594990 0.887087 -6.025163 0.000211 -0.000005 -0.000051
N 1.582190 0.894629 -0.773785 -0.000127 0.000853 -0.000179
N -0.030175 3.688871 4.380128 0.000185 -0.000342 0.000156
N -0.018503 3.674450 -6.015725 0.000084 -0.000151 0.000020
N -0.023576 3.673422 -0.771202 -0.000312 0.000787 -0.000019
N 3.199109 -1.893144 4.443764 0.000171 -0.000473 0.000072
N 3.206491 -1.905505 -6.018511 0.000149 -0.000188 0.000092
N 3.199922 -1.897811 -0.768065 -0.000203 0.000817 -0.000086
N -4.910782 0.922990 4.460545 0.000448 -0.000210 -0.000177
N -4.862252 0.887572 -6.022318 0.000085 0.000051 -0.000058
N -4.861700 0.895801 -0.773875 -0.000240 0.000926 -0.000185
N -6.479645 3.636285 4.463169 0.000108 0.000069 -0.000158
N -6.471164 3.672382 -6.029378 -0.000012 -0.000121 -0.000104
N -6.477255 3.679325 -0.832345 -0.000400 0.000824 0.000103
N -3.248629 -1.891796 4.434119 0.000181 -0.000297 0.000063
N -3.241369 -1.908513 -6.014856 0.000096 -0.000134 0.000019
N -3.199327 -1.874815 -0.751355 -0.000407 0.000424 -0.000108
N -1.641975 0.894943 4.377033 0.000167 -0.000341 -0.000084
N -1.632142 0.885664 -6.024920 0.000056 -0.000159 -0.000053
N -1.632006 0.843654 -0.750702 -0.000288 0.000978 -0.000119
N -3.254595 3.689290 4.441014 -0.000013 -0.000443 -0.000111
N -3.248956 3.676750 -6.013323 -0.000084 -0.000261 -0.000015
N -3.249746 3.679342 -0.768414 -0.000527 0.000664 -0.000183
N -0.028152 -1.890786 4.434561 0.000032 -0.000511 0.000045
N -0.017713 -1.906900 -6.014650 -0.000013 -0.000300 -0.000049
N -0.064541 -1.870137 -0.749573 -0.000317 0.000344 -0.000244
N -0.020952 1.815053 1.894467 -0.000596 0.000996 -0.000164
N -0.029140 1.826698 7.031065 0.000055 0.000195 -0.000165
N -0.023836 1.810945 -3.396263 0.000127 0.000231 0.000067
N 3.249765 -3.789751 1.849927 -0.000563 0.001483 0.000342
N 3.201878 -3.756673 7.053841 0.000078 0.000138 -0.000011
N 3.208728 -3.768855 -3.392150 0.000124 0.000088 -0.000022
N 1.591926 -0.919308 1.859178 -0.000480 0.001061 -0.000100
N 1.584861 -0.960458 7.049421 -0.000129 0.000013 -0.000047
N 1.591139 -0.975590 -3.389997 -0.000054 -0.000019 -0.000225
N 3.156304 1.792959 1.842040 -0.000371 0.001398 -0.000021
N 3.191342 1.824917 6.991125 -0.000109 0.000073 0.000229
N 3.202556 1.865191 -3.378287 -0.000138 -0.000192 -0.000194
N 6.390365 -3.791288 1.847537 -0.000339 0.001165 -0.000018
N 6.420052 -3.754257 7.047957 0.000062 -0.000021 -0.000050
N 6.476022 -3.789418 -3.372999 -0.000201 0.000129 -0.000130
N 4.815490 -0.970438 1.834745 -0.000487 0.001010 0.000208
N 4.811277 -0.962615 7.058316 -0.000064 -0.000173 -0.000017
N 4.822821 -0.975979 -3.388488 -0.000124 -0.000193 -0.000066
N -3.207569 1.788575 1.855560 -0.000456 0.001206 0.000323
N -3.252747 1.826221 7.048935 -0.000140 0.000064 0.000002
N -3.240877 1.812066 -3.392924 -0.000244 0.000112 0.000126
N -0.026433 -3.766618 1.832877 -0.000589 0.001019 0.000079
N -0.025713 -3.752336 7.056476 -0.000112 0.000077 0.000066
N -0.061304 -3.788657 -3.370235 0.000155 0.000256 -0.000265
N -1.633716 -0.921877 1.793063 -0.000721 0.001267 0.000021
N -1.639052 -0.960331 7.051270 -0.000125 -0.000186 0.000013
N -1.629619 -0.973015 -3.396205 -0.000163 -0.000207 -0.000015
