108
Energy=-1.672602e+06 Lattice="9.543342e+00 0.000000e+00 0.000000e+00 -4.774267e+00 8.265347e+00 0.000000e+00 8.752703e-04 -4.126612e-03 1.542106e+01" Stress="-3.853230e-04 -8.535696e-05 1.469070e-04 -9.194792e-05 -3.859204e-04 -5.737041e-05 1.409601e-04 -7.001447e-05 -1.520470e-03" Properties=species:S:1:pos:R:3:forces:R:3 Config_type=AlGaN_super3_27_1_55.xyz
Al 1.573884e+00 8.810565e-01 2.406939e+00 2.177414e-04 -1.619892e-04 8.860353e-05
Al 1.569536e+00 8.766286e-01 7.553743e+00 4.301276e-05 -3.910414e-06 2.734118e-05
Al 1.556773e+00 8.819356e-01 -2.694475e+00 3.763703e-05 3.433475e-05 4.358730e-05
Al -2.634633e-02 3.632963e+00 2.422192e+00 2.482036e-04 1.712138e-04 -5.677379e-05
Al -3.499462e-02 3.632952e+00 7.563784e+00 1.464212e-05 -2.252207e-05 9.357935e-05
Ga -3.762278e-02 3.619646e+00 -2.719546e+00 -2.971439e-05 2.866593e-06 9.716378e-05
Al 3.150758e+00 -1.881585e+00 2.446173e+00 4.450393e-04 -3.775137e-04 4.344519e-04
Ga 3.147105e+00 -1.892862e+00 7.549593e+00 -9.915801e-05 9.326280e-05 3.559558e-05
Ga 3.146743e+00 -1.883307e+00 -2.728447e+00 -5.800915e-06 -4.937492e-06 4.367471e-05
Al -4.804357e+00 8.882208e-01 2.420541e+00 2.281965e-05 -4.157554e-04 -8.503276e-05
Ga -4.791977e+00 8.952933e-01 7.580951e+00 7.940069e-05 5.738229e-05 4.646898e-05
Ga -4.800199e+00 8.873073e-01 -2.730568e+00 6.885278e-05 9.426465e-06 8.155526e-05
Al -6.375820e+00 3.630490e+00 2.396909e+00 -3.936798e-05 5.659098e-05 5.253293e-05
Ga -6.394249e+00 3.621923e+00 7.576563e+00 1.143626e-05 -2.926740e-06 5.880253e-05
Ga -6.380206e+00 3.627245e+00 -2.707929e+00 -1.304090e-05 4.326017e-06 8.968689e-05
Al -3.200540e+00 -1.881935e+00 2.434567e+00 -1.854887e-05 1.127454e-04 -1.009068e-04
Ga -3.200462e+00 -1.885353e+00 7.567965e+00 -1.453784e-05 5.001242e-05 9.284618e-05
Ga -3.201748e+00 -1.874008e+00 -2.721625e+00 -5.829375e-05 6.180515e-06 8.536689e-05
Ga -1.609755e+00 8.829546e-01 2.435981e+00 3.142560e-05 -2.719982e-04 3.177139e-05
Ga -1.619304e+00 8.908089e-01 7.544809e+00 1.148112e-04 -4.057281e-05 1.214535e-04
Al -1.606099e+00 8.890569e-01 -2.711343e+00 4.884490e-05 -3.191341e-05 8.624756e-05
Al -3.208356e+00 3.639319e+00 2.429006e+00 1.714371e-04 1.076840e-03 9.809742e-04
Al -3.184866e+00 3.623220e+00 7.550939e+00 -1.076623e-05 -5.699841e-05 1.387678e-05
Al -3.204039e+00 3.637132e+00 -2.720367e+00 -7.955381e-07 -5.619432e-05 1.819857e-04
Al -1.188877e-02 -1.887165e+00 2.432593e+00 -9.288116e-04 2.566253e-04 -7.329210e-04
Ga -1.121477e-02 -1.867919e+00 7.538050e+00 4.078261e-05 -3.097146e-05 8.692662e-05
Al -1.705215e-02 -1.875489e+00 -2.697334e+00 -1.502867e-05 -5.785868e-05 7.336303e-06
Ga -2.111014e-02 1.795270e+00 4.994777e+00 -3.736480e-06 4.046340e-05 8.372600e-05
Ga -1.617680e-02 1.808620e+00 -5.296156e+00 2.435692e-06 7.035693e-05 8.657095e-05
Al -1.236262e-02 1.794356e+00 -1.398401e-01 -1.853230e-05 8.546079e-05 3.079570e-05
Al 3.151197e+00 -3.724199e+00 4.974271e+00 -7.642198e-05 2.796789e-04 -3.710416e-04
Al 3.161931e+00 -3.722980e+00 -5.303642e+00 -7.957879e-07 6.635511e-05 6.134443e-05
Ga 3.147499e+00 -3.723975e+00 -1.177566e-01 -2.061026e-05 2.162237e-05 9.323704e-05
Al 1.564519e+00 -9.589198e-01 4.957792e+00 7.136111e-05 2.238324e-04 3.974658e-04
Ga 1.581762e+00 -9.445758e-01 -5.267306e+00 -9.027324e-05 8.982626e-05 9.890011e-05
Ga 1.560444e+00 -9.485022e-01 -1.316346e-01 -8.050611e-05 7.723234e-05 7.962873e-05
Ga 3.161234e+00 1.787443e+00 4.970077e+00 -1.856144e-05 5.946275e-09 2.168642e-05
Al 3.152563e+00 1.792077e+00 -5.284562e+00 1.461006e-05 7.346617e-06 5.831214e-05
Al 3.147757e+00 1.800818e+00 -1.243684e-01 8.548835e-05 1.734096e-05 1.088948e-04
Ga 6.335764e+00 -3.712739e+00 4.965721e+00 2.131760e-05 1.759907e-05 9.646006e-05
Al 6.324639e+00 -3.716062e+00 -5.294843e+00 2.979281e-05 1.277428e-05 7.422548e-05
Ga 6.346374e+00 -3.729238e+00 -1.092006e-01 -6.105892e-05 -4.936117e-07 5.765213e-05
Ga 4.751216e+00 -9.536552e-01 4.964164e+00 -7.161613e-05 -7.061349e-05 3.550155e-05
Al 4.748232e+00 -9.550990e-01 -5.297641e+00 -5.331511e-05 4.006027e-06 1.998738e-05
Ga 4.742032e+00 -9.502878e-01 -1.020802e-01 -1.777295e-05 5.796134e-05 1.085915e-04
Al -3.203684e+00 1.806643e+00 4.972925e+00 7.511647e-05 3.577562e-06 2.426538e-04
Al -3.207944e+00 1.811547e+00 -5.273526e+00 4.158742e-05 -1.481064e-05 8.337045e-05
Ga -3.208099e+00 1.812992e+00 -1.454561e-01 -9.667429e-06 4.330131e-05 -1.237691e-04
Ga -2.708953e-03 -3.712897e+00 4.973445e+00 1.071843e-04 -1.665566e-04 1.377339e-05
Ga -9.285562e-03 -3.728455e+00 -5.286038e+00 4.329766e-05 -1.242316e-05 5.790802e-05
Al -1.675270e-02 -3.714651e+00 -1.323955e-01 6.992113e-04 -9.167727e-04 3.953268e-05
Al -1.607025e+00 -9.583025e-01 4.965274e+00 -6.716941e-05 1.692426e-05 7.222057e-05
Ga -1.625071e+00 -9.518080e-01 -5.258927e+00 -3.271983e-05 2.486449e-06 1.374987e-04
Ga -1.598058e+00 -9.571286e-01 -1.398076e-01 -1.008756e-04 5.870865e-05 1.707615e-04
N 1.565999e+00 8.363105e-01 4.316930e+00 -5.654517e-05 1.479374e-06 -1.065495e-04
N 1.609460e+00 8.982140e-01 -5.954707e+00 6.821744e-05 -1.759718e-05 -1.158164e-04
N 1.570471e+00 9.299840e-01 -7.682671e-01 3.277156e-05 -4.996759e-05 -1.732471e-05
N -6.752963e-02 3.649422e+00 4.330564e+00 1.490917e-05 6.163290e-05 3.230118e-05
N -2.844717e-02 3.683105e+00 -5.933177e+00 -1.421571e-05 1.146891e-05 -8.866755e-05
N -2.696990e-02 3.591185e+00 -7.414064e-01 -4.996605e-06 -7.605399e-05 -7.021012e-05
N 3.114923e+00 -1.906096e+00 4.364991e+00 2.401340e-04 -4.462865e-04 -1.454101e-04
N 3.192736e+00 -1.901584e+00 -5.881475e+00 -2.944763e-06 -1.835973e-05 -5.586378e-05
N 3.161162e+00 -1.879749e+00 -7.576338e-01 -5.924873e-05 1.867118e-05 -2.677790e-05
N -4.751943e+00 9.080297e-01 4.327412e+00 -1.142616e-04 -5.553843e-05 -1.258326e-04
N -4.791200e+00 8.892492e-01 -5.845737e+00 4.249428e-05 1.734781e-05 -4.966067e-05
N -4.841176e+00 9.013200e-01 -7.479734e-01 1.743641e-05 2.582008e-05 -9.125275e-05
N -6.378250e+00 3.631589e+00 4.305843e+00 2.965455e-05 4.966630e-05 -6.224904e-05
N -6.427449e+00 3.610332e+00 -5.863223e+00 -4.612411e-05 1.456752e-05 -8.014966e-05
N -6.343664e+00 3.609290e+00 -7.151876e-01 -8.007122e-05 1.017446e-05 -2.180657e-05
N -3.159762e+00 -1.854381e+00 4.336661e+00 -3.909351e-07 4.853695e-05 -7.592313e-05
N -3.238559e+00 -1.896989e+00 -5.871856e+00 -2.768248e-05 1.061000e-05 -6.813165e-05
N -3.210792e+00 -1.879430e+00 -7.516241e-01 2.020427e-05 3.778195e-05 -1.257995e-04
N -1.650174e+00 8.600929e-01 4.411969e+00 1.002737e-04 -3.762136e-05 -7.505193e-05
N -1.661499e+00 9.040738e-01 -5.896413e+00 5.521233e-05 -4.759703e-05 -1.348380e-04
N -1.573676e+00 9.080261e-01 -7.872588e-01 7.637967e-05 -7.872760e-05 -1.017847e-04
N -3.163014e+00 3.609216e+00 4.343845e+00 -2.872522e-05 3.818458e-05 -5.431170e-04
N -3.160442e+00 3.606298e+00 -5.943127e+00 1.080712e-05 -4.474370e-05 -9.053958e-05
N -3.244022e+00 3.662205e+00 -8.035203e-01 -3.246727e-04 1.601112e-04 1.139652e-04
N -2.038357e-02 -1.834283e+00 4.349982e+00 -2.098807e-05 -6.067460e-05 1.383807e-04
N -2.116835e-02 -1.868984e+00 -5.912771e+00 -9.415960e-06 -5.516481e-05 -1.064216e-04
N -1.844566e-02 -1.927793e+00 -7.840865e-01 -1.956893e-05 2.948416e-04 -1.378958e-04
N 1.773907e-02 1.818150e+00 1.783779e+00 -1.743286e-04 1.303661e-04 -5.660372e-05
N 2.266910e-02 1.822066e+00 6.979068e+00 -4.099356e-05 1.045292e-04 -9.244373e-05
N -1.970825e-02 1.747165e+00 -3.313249e+00 -1.943843e-05 1.771230e-05 -1.038562e-04
N 3.156633e+00 -3.712830e+00 1.861430e+00 -3.070119e-04 -3.510786e-04 -4.566987e-05
N 3.160630e+00 -3.766842e+00 6.905308e+00 5.752197e-05 1.426618e-05 7.006855e-05
N 3.115862e+00 -3.742478e+00 -3.385293e+00 -2.836637e-06 4.165138e-05 -1.038117e-04
N 1.569154e+00 -9.606012e-01 1.854644e+00 -2.071908e-04 3.822016e-04 -9.987726e-05
N 1.572991e+00 -9.082012e-01 6.881180e+00 -5.660674e-05 1.996606e-05 -1.159172e-04
N 1.522755e+00 -9.257652e-01 -3.286316e+00 -9.631743e-05 4.026968e-05 -9.971518e-06
N 3.156204e+00 1.793537e+00 1.799168e+00 3.511033e-05 -6.273463e-05 -4.965139e-05
N 3.120749e+00 1.771803e+00 6.943521e+00 -1.187406e-05 -6.169367e-07 -6.980437e-05
N 3.103818e+00 1.771214e+00 -3.369283e+00 -2.845193e-05 -1.723462e-05 -9.119062e-05
N 6.339561e+00 -3.713561e+00 1.868862e+00 -1.004920e-04 -2.418401e-04 7.666271e-05
N 6.298856e+00 -3.741503e+00 6.945134e+00 6.792809e-06 5.659373e-06 -7.714042e-05
N 6.336749e+00 -3.719611e+00 -3.383051e+00 3.542853e-05 -2.050931e-05 -1.089122e-04
N 4.745536e+00 -9.604704e-01 1.883168e+00 3.928055e-06 3.756705e-04 1.041437e-04
N 4.749095e+00 -9.531480e-01 6.937617e+00 -6.077066e-05 -3.359448e-05 -7.346746e-05
N 4.745822e+00 -9.571515e-01 -3.392613e+00 -6.427188e-05 -2.350682e-06 -9.586275e-05
N -3.241986e+00 1.825202e+00 1.831248e+00 -1.810612e-06 -3.654795e-04 -1.307814e-04
N -3.213214e+00 1.844701e+00 6.890387e+00 6.182184e-05 -2.347142e-05 -8.316304e-05
N -3.162557e+00 1.826394e+00 -3.344456e+00 2.655851e-05 3.181543e-06 -1.288738e-04
N -1.061287e-02 -3.709836e+00 1.802393e+00 -5.189660e-06 -7.446738e-05 -7.950611e-06
N 2.096906e-02 -3.744155e+00 6.955755e+00 1.928585e-05 2.561020e-05 -4.751915e-05
N 1.981613e-02 -3.688772e+00 -3.304586e+00 1.632834e-05 2.886468e-05 -1.006700e-04
N -1.606329e+00 -1.003939e+00 1.838216e+00 2.904666e-04 -2.014971e-04 1.701039e-04
N -1.615669e+00 -9.608785e-01 6.877344e+00 -8.240030e-05 -2.264257e-05 -1.449630e-04
N -1.569066e+00 -9.310016e-01 -3.280141e+00 -2.189208e-05 4.070602e-06 -9.253372e-05
