108
Energy=-1672602.231750 Lattice="9.541463 0.000000 0.000000 -4.774241 8.262469 0.000000 0.002877 -0.005250 15.409609" Stress="-0.000009 -0.000001 0.000002 -0.000001 -0.000010 -0.000001 0.000002 -0.000001 -0.000018" Properties=species:S:1:pos:R:3:forces:R:3
Al 1.572218 0.883360 2.400245 0.000785 -0.001039 0.001522
Al 1.569865 0.874357 7.548649 0.000073 0.000058 0.000107
Al 1.555638 0.880888 -2.693167 0.000071 0.000062 0.000224
Al -0.023856 3.631822 2.420929 -0.000506 0.000023 -0.000051
Al -0.034187 3.629757 7.558291 -0.000014 0.000025 0.000147
Ga -0.037898 3.617929 -2.718090 -0.000093 0.000077 0.000215
Al 3.163402 -1.881854 2.443633 -0.004299 0.000371 0.000519
Ga 3.150059 -1.894518 7.543556 -0.000198 0.000173 0.000197
Ga 3.147214 -1.882947 -2.726715 -0.000011 -0.000031 0.000059
Al -4.803350 0.889847 2.418443 -0.000170 -0.000276 0.000053
Ga -4.791199 0.893813 7.575112 0.000099 0.000026 0.000127
Ga -4.800533 0.887129 -2.729014 0.000049 -0.000033 0.000196
Al -6.372367 3.631112 2.394026 -0.000577 -0.000232 0.000234
Ga -6.392289 3.619354 7.571030 -0.000132 0.000051 0.000173
Ga -6.379981 3.626235 -2.706900 -0.000025 0.000046 0.000248
Al -3.198255 -1.880351 2.433370 0.000310 0.000133 -0.000009
Ga -3.197819 -1.886153 7.562366 0.000014 0.000120 0.000103
Ga -3.199676 -1.872885 -2.720281 -0.000224 -0.000046 0.000177
Ga -1.610237 0.884252 2.433668 0.000019 -0.000101 0.000382
Ga -1.620193 0.890969 7.539226 0.000370 -0.000286 0.000191
Al -1.607498 0.889596 -2.710712 0.000170 -0.000029 0.000445
Al -3.207778 3.642547 2.429531 -0.000180 0.000187 -0.000038
Al -3.184228 3.621739 7.545064 -0.000018 -0.000043 0.000169
Al -3.204371 3.636438 -2.719389 -0.000055 0.000024 0.000358
Al -0.015138 -1.882532 2.429023 0.000933 -0.000293 -0.000354
Ga -0.009505 -1.867962 7.531919 0.000059 0.000024 0.000305
Al -0.016326 -1.873409 -2.696551 -0.000001 -0.000211 0.000332
Ga -0.021728 1.792833 4.991967 0.000202 -0.000004 0.000082
Ga -0.017521 1.807118 -5.292426 -0.000068 0.000184 0.000209
Al -0.012979 1.793188 -0.140475 -0.000113 0.000162 -0.000091
Al 3.150481 -3.722969 4.969740 -0.000012 -0.000058 -0.000035
Al 3.161522 -3.722392 -5.299873 -0.000006 0.000127 0.000170
Ga 3.147710 -3.723855 -0.118000 -0.000107 0.000206 -0.000030
Al 1.565531 -0.960288 4.955797 0.000276 0.000581 -0.000587
Ga 1.583014 -0.945360 -5.264846 -0.000314 0.000214 0.000388
Ga 1.561563 -0.948608 -0.130776 -0.000254 0.000036 0.000228
Ga 3.159020 1.785708 4.966179 -0.000266 -0.000051 0.000011
Al 3.150243 1.791274 -5.280836 0.000075 0.000007 0.000162
Al 3.145840 1.800408 -0.125562 0.000143 -0.000077 0.000179
Ga 6.334523 -3.713199 4.961751 0.000039 0.000054 0.000406
Al 6.323113 -3.714885 -5.291025 0.000046 0.000015 0.000087
Ga 6.345614 -3.728232 -0.109215 -0.000026 0.000084 0.000074
Ga 4.751336 -0.954641 4.959997 -0.000144 0.000008 0.000381
Al 4.747864 -0.954869 -5.293284 -0.000095 -0.000023 -0.000042
Ga 4.742506 -0.950572 -0.101614 -0.000191 0.000137 -0.000385
Al -3.205140 1.805723 4.970047 0.000181 -0.000043 -0.000106
Al -3.209955 1.811801 -5.270153 0.000114 -0.000028 0.000238
Ga -3.209446 1.812504 -0.147711 0.000150 0.000148 0.000575
Ga -0.002964 -3.711878 4.969718 -0.000150 -0.000041 0.000039
Ga -0.010164 -3.726289 -5.282304 0.000091 -0.000022 0.000188
Al -0.016267 -3.714324 -0.133682 0.000614 -0.000164 0.000067
Al -1.605713 -0.958500 4.961974 0.000136 -0.000094 0.000306
Ga -1.624799 -0.950719 -5.256275 -0.000126 0.000014 0.000287
Ga -1.597183 -0.955672 -0.142333 0.000009 -0.000051 0.000615
N 1.564698 0.834373 4.313290 -0.000053 0.000303 -0.000345
N 1.607501 0.897559 -5.949262 0.000220 -0.000080 -0.000285
N 1.569058 0.929136 -0.767745 0.000193 0.000061 -0.000145
N -0.069016 3.646937 4.329221 0.000214 0.000033 -0.000460
N -0.029336 3.681268 -5.927942 -0.000051 0.000003 -0.000220
N -0.027069 3.589322 -0.740766 0.000029 0.000076 -0.000115
N 3.115956 -1.906963 4.361854 0.000534 -0.000226 -0.000241
N 3.193414 -1.901644 -5.876583 -0.000048 -0.000014 -0.000244
N 3.161877 -1.879450 -0.757277 -0.000007 -0.000085 0.000240
N -4.753205 0.906481 4.325396 0.000347 0.000140 -0.000491
N -4.792032 0.888609 -5.840815 0.000069 0.000118 -0.000175
N -4.841545 0.900282 -0.746830 0.000018 0.000053 -0.000294
N -6.378452 3.629464 4.302705 0.000406 0.000116 -0.000131
N -6.427317 3.609039 -5.857915 -0.000065 0.000031 -0.000214
N -6.343182 3.607980 -0.714857 -0.000097 0.000056 -0.000163
N -3.158107 -1.855171 4.335487 0.000068 0.000225 -0.000634
N -3.237759 -1.896433 -5.866929 -0.000028 0.000040 -0.000136
N -3.209000 -1.878599 -0.750774 -0.000110 -0.000083 -0.000186
N -1.651419 0.859428 4.411352 0.000119 0.000043 -0.000802
N -1.663852 0.905000 -5.891201 0.000195 -0.000126 -0.000285
N -1.575098 0.908715 -0.786092 0.000205 -0.000086 -0.000614
N -3.164654 3.608303 4.341033 0.000343 -0.000103 -0.000239
N -3.161541 3.606209 -5.938115 0.000005 -0.000158 -0.000258
N -3.244027 3.661225 -0.803173 -0.000251 0.000131 -0.000067
N -0.017821 -1.834022 4.347456 -0.000925 -0.000018 0.000005
N -0.021310 -1.867366 -5.907921 0.000072 -0.000158 -0.000278
N -0.017896 -1.925664 -0.783616 0.000005 -0.000166 -0.000337
N 0.017653 1.818572 1.781501 -0.000544 0.000321 0.000063
N 0.023322 1.819162 6.976031 -0.000168 0.000221 -0.000389
N -0.020614 1.745999 -3.309936 -0.000009 0.000059 -0.000379
N 3.157233 -3.711495 1.859745 0.000475 -0.000354 0.000256
N 3.161505 -3.767516 6.900170 0.000052 0.000056 0.000073
N 3.115799 -3.741721 -3.382505 -0.000023 0.000085 -0.000170
N 1.568407 -0.957771 1.853396 0.001388 -0.000743 0.000140
N 1.576022 -0.909989 6.877343 -0.000256 0.000036 -0.000123
N 1.523979 -0.926026 -3.284433 -0.000183 0.000098 -0.000097
N 3.155424 1.794937 1.796641 0.000187 -0.000185 0.000073
N 3.119998 1.770026 6.939431 0.000053 -0.000033 -0.000244
N 3.101908 1.770770 -3.366363 0.000040 -0.000076 -0.000186
N 6.339548 -3.710982 1.868852 -0.000003 -0.000254 -0.000196
N 6.299008 -3.741694 6.941006 0.000011 -0.000019 -0.000256
N 6.335374 -3.717986 -3.380359 0.000106 -0.000043 -0.000122
N 4.746680 -0.959051 1.882362 0.000977 0.000669 -0.000077
N 4.750695 -0.953899 6.932404 -0.000164 -0.000052 0.000017
N 4.745896 -0.956764 -3.389518 -0.000126 -0.000004 -0.000144
N -3.241844 1.825606 1.829632 0.000019 0.000284 0.000036
N -3.213442 1.843931 6.885354 0.000040 -0.000028 0.000144
N -3.163852 1.826386 -3.341939 0.000074 -0.000031 -0.000173
N -0.011080 -3.706249 1.799653 0.000411 -0.000028 0.000368
N 0.021604 -3.743533 6.951345 0.000119 0.000001 -0.000187
N 0.019289 -3.686646 -3.301304 0.000131 -0.000022 -0.000361
N -1.605672 -1.001521 1.836369 -0.000353 -0.000093 0.000079
N -1.613516 -0.960871 6.873809 -0.000201 -0.000026 -0.000374
N -1.568132 -0.929599 -3.278166 -0.000111 -0.000065 -0.000106
