108
Energy=-1.352174e+06 Lattice="9.497912e+00 0.000000e+00 0.000000e+00 -4.752241e+00 8.226659e+00 0.000000e+00 3.279692e-03 3.831778e-03 1.533604e+01" Stress="-2.115154e-03 -2.479545e-04 1.684591e-04 -2.510778e-04 -1.834929e-03 3.489823e-04 1.628981e-04 3.432666e-04 -4.026372e-04" Properties=species:S:1:pos:R:3:forces:R:3 Config_type=AlGaN_super3_20_1_15.xyz
Al 1.568578e+00 8.758026e-01 2.406614e+00 8.526071e-04 -1.840298e-03 -7.989158e-04
Al 1.565768e+00 8.803487e-01 7.531563e+00 -1.634572e-05 -4.687079e-04 -1.011715e-04
Al 1.566888e+00 8.654145e-01 -2.722094e+00 -1.862720e-04 7.102432e-04 2.967274e-04
Al 4.379845e-03 3.624972e+00 2.429350e+00 -9.307694e-04 -2.352125e-03 -3.608900e-04
Al -7.819151e-03 3.609050e+00 7.506259e+00 -6.950279e-04 5.965928e-04 1.706238e-04
Al -2.100586e-02 3.607749e+00 -2.709334e+00 -8.822737e-05 -2.360905e-04 1.309614e-04
Al 3.154615e+00 -1.846018e+00 2.400718e+00 -1.279844e-03 -9.423835e-04 -8.674209e-04
Al 3.146058e+00 -1.854831e+00 7.525343e+00 -1.133660e-03 -1.529707e-04 1.568505e-04
Ga 3.133575e+00 -1.862393e+00 -2.701646e+00 -7.042135e-05 -7.651876e-05 8.698770e-04
Al -4.795025e+00 8.606887e-01 2.420417e+00 3.833296e-04 9.779089e-05 3.542726e-05
Al -4.792870e+00 8.746626e-01 7.496582e+00 4.530242e-04 3.380334e-04 2.896861e-04
Al -4.798638e+00 8.730229e-01 -2.686890e+00 2.604421e-05 3.983242e-04 7.534792e-04
Al -6.365692e+00 3.625486e+00 2.393037e+00 2.312828e-04 -5.837493e-04 1.553266e-05
Al -6.361574e+00 3.611543e+00 7.501512e+00 5.207508e-05 1.071704e-04 3.912413e-04
Ga -6.363327e+00 3.595173e+00 -2.679194e+00 -1.059901e-04 -1.277985e-04 5.237069e-04
Al -3.193373e+00 -1.871820e+00 2.409364e+00 -5.303306e-04 -5.425018e-04 5.418680e-04
Ga -3.186055e+00 -1.872566e+00 7.485767e+00 2.514533e-04 2.067633e-04 5.054829e-04
Ga -3.178701e+00 -1.866095e+00 -2.679166e+00 5.825110e-06 7.531166e-05 6.012381e-04
Ga -1.596905e+00 8.575670e-01 2.440252e+00 8.331999e-06 1.208349e-03 -4.963643e-04
Ga -1.589701e+00 8.723041e-01 7.505298e+00 2.560205e-04 -7.477747e-05 1.495221e-04
Ga -1.593099e+00 8.656067e-01 -2.707389e+00 6.033671e-04 2.881468e-05 -5.992077e-04
Ga -3.211056e+00 3.627246e+00 2.441223e+00 4.196110e-04 5.355665e-05 -6.977913e-04
Ga -3.198702e+00 3.629637e+00 7.501402e+00 1.408783e-04 -2.127284e-04 2.293403e-04
Ga -3.188009e+00 3.625923e+00 -2.696680e+00 3.667652e-04 -2.247304e-04 -4.480046e-04
Al -2.515417e-02 -1.862600e+00 2.400915e+00 3.027120e-03 -2.411313e-03 1.184020e-03
Al -1.799410e-02 -1.861927e+00 7.509860e+00 -6.729223e-04 2.165986e-04 -3.279794e-04
Al -1.683166e-02 -1.850724e+00 -2.690861e+00 6.302704e-05 4.382548e-05 9.146820e-04
Al -1.425878e-02 1.796341e+00 4.962369e+00 -9.072176e-04 -1.205447e-03 1.497497e-03
Al -9.166735e-03 1.787293e+00 -5.266006e+00 -4.345604e-04 -1.877971e-04 2.344776e-04
Ga 2.491134e-03 1.783711e+00 -1.472031e-01 -1.990143e-04 9.034129e-05 1.006046e-03
Ga 3.165569e+00 -3.688313e+00 4.960880e+00 -4.154549e-04 2.386163e-04 1.119378e-04
Al 3.156605e+00 -3.698555e+00 -5.280357e+00 1.691681e-04 2.587419e-04 1.598965e-04
Ga 3.159642e+00 -3.687110e+00 -1.120789e-01 -2.554675e-04 1.281846e-04 -3.577833e-04
Ga 1.556515e+00 -9.494226e-01 4.966095e+00 -1.123161e-03 -3.756864e-04 3.959374e-04
Al 1.548142e+00 -9.473095e-01 -5.282807e+00 -4.285000e-05 -2.044902e-06 5.920092e-04
Al 1.558477e+00 -9.504049e-01 -1.391278e-01 -4.227786e-04 1.686769e-04 1.183968e-03
Ga 3.141886e+00 1.800508e+00 4.956318e+00 4.373387e-04 3.440672e-04 2.282590e-04
Al 3.129580e+00 1.774185e+00 -5.279322e+00 -1.689433e-04 7.027947e-04 -1.704953e-04
Al 3.138320e+00 1.779349e+00 -1.293457e-01 6.248064e-04 -2.489111e-04 7.164525e-04
Al 6.318785e+00 -3.691077e+00 4.947421e+00 1.912445e-04 2.229830e-04 4.575432e-04
Ga 6.303013e+00 -3.712026e+00 -5.274153e+00 -5.143745e-05 -1.041968e-05 6.273773e-04
Al 6.314946e+00 -3.691649e+00 -1.211628e-01 2.181369e-04 -3.790595e-05 -3.984619e-04
Al 4.739619e+00 -9.481884e-01 4.952577e+00 -3.285012e-04 -3.772535e-04 -1.126280e-04
Ga 4.716275e+00 -9.464386e-01 -5.271148e+00 -1.372874e-04 -2.233246e-04 6.637475e-04
Al 4.729498e+00 -9.451307e-01 -1.233671e-01 1.007491e-05 -1.966875e-04 -4.262366e-04
Al -3.197345e+00 1.776113e+00 4.965584e+00 1.248171e-03 -6.181426e-04 -2.882159e-05
Ga -3.197116e+00 1.779246e+00 -5.264084e+00 1.456766e-05 -2.847305e-05 3.084718e-04
Ga -3.211800e+00 1.776173e+00 -1.331116e-01 -1.697803e-04 -7.943838e-05 1.679971e-03
Al -4.832269e-02 -3.678315e+00 4.962730e+00 1.125619e-03 -2.620982e-04 1.646115e-04
Ga -3.093709e-02 -3.676936e+00 -5.269421e+00 -7.351948e-05 -7.415238e-05 5.882757e-04
Al -3.767370e-02 -3.675427e+00 -1.318163e-01 1.075939e-05 -8.972322e-05 -1.341201e-04
Al -1.606924e+00 -9.603198e-01 4.943947e+00 3.594809e-04 -1.756431e-03 4.457020e-04
Al -1.582729e+00 -9.542977e-01 -5.266583e+00 7.162551e-05 -1.482085e-04 7.539116e-04
Al -1.596304e+00 -9.762595e-01 -1.195360e-01 -3.359500e-04 -1.415956e-04 -4.851389e-04
N 1.522449e+00 8.969255e-01 4.311510e+00 2.237024e-04 2.408058e-04 -2.414010e-04
N 1.555184e+00 8.736423e-01 -5.879606e+00 2.618923e-04 -1.039907e-05 -1.133086e-04
N 1.607476e+00 8.455821e-01 -7.910890e-01 1.892133e-04 -7.297947e-05 -4.093744e-04
N 2.514352e-02 3.594664e+00 4.336979e+00 4.485543e-05 -2.683514e-04 -3.441744e-04
N -6.254528e-02 3.584746e+00 -5.912290e+00 -3.415673e-04 -3.989180e-05 -2.778435e-04
N 1.763859e-02 3.640519e+00 -7.965247e-01 2.662294e-04 -9.975623e-06 4.149895e-04
N 3.183766e+00 -1.831369e+00 4.308078e+00 7.853102e-04 -2.258629e-04 1.849476e-04
N 3.101764e+00 -1.890855e+00 -5.889378e+00 -1.223487e-04 1.846895e-04 -3.611421e-04
N 3.145717e+00 -1.822775e+00 -7.164511e-01 -2.896409e-04 5.523926e-04 1.667147e-04
N -4.739314e+00 8.514762e-01 4.332180e+00 1.461290e-05 1.015460e-05 -1.065733e-04
N -4.818081e+00 8.960729e-01 -5.933145e+00 1.405978e-04 -1.182972e-04 -2.124198e-04
N -4.822906e+00 8.493643e-01 -7.710240e-01 -5.798973e-04 2.239284e-04 5.487528e-04
N -6.355761e+00 3.667529e+00 4.315011e+00 -2.655139e-04 -2.333109e-04 -5.261083e-04
N -6.357541e+00 3.567553e+00 -5.919661e+00 1.286725e-04 -5.048106e-04 -4.030422e-05
N -6.358730e+00 3.610084e+00 -6.893142e-01 -3.586290e-04 -1.676161e-04 2.764430e-04
N -3.189910e+00 -1.866650e+00 4.346705e+00 -3.533377e-04 -1.271756e-04 -9.715763e-04
N -3.145214e+00 -1.844767e+00 -5.873595e+00 -2.544913e-05 1.750404e-04 -6.741675e-04
N -3.184473e+00 -1.867052e+00 -6.892091e-01 -3.892875e-04 2.099297e-04 2.008175e-04
N -1.599472e+00 8.660577e-01 4.420242e+00 -7.165941e-04 4.649575e-03 -7.924430e-04
N -1.564814e+00 8.509012e-01 -5.844716e+00 6.410411e-04 3.550635e-04 -7.678727e-05
N -1.604131e+00 8.219217e-01 -7.328619e-01 4.885590e-04 -3.875441e-04 5.668030e-04
N -3.235447e+00 3.602352e+00 4.416116e+00 -5.672753e-04 -2.298561e-04 -3.306666e-04
N -3.157017e+00 3.639753e+00 -5.862295e+00 -5.801658e-05 -1.566041e-04 -3.494402e-04
N -3.227245e+00 3.647191e+00 -7.240914e-01 -1.951685e-04 -1.139832e-04 5.234216e-04
N -5.632814e-02 -1.884343e+00 4.318181e+00 1.192721e-04 -6.889312e-04 -6.069398e-04
N -2.457810e-02 -1.819865e+00 -5.914648e+00 -4.280931e-05 8.526390e-05 -6.533047e-04
N -1.962884e-02 -1.859552e+00 -7.574012e-01 3.936346e-04 -1.715018e-04 -2.431166e-04
N 1.950277e-02 1.807019e+00 1.830035e+00 -4.794649e-04 3.126763e-03 -2.243033e-04
N 2.937530e-02 1.810661e+00 6.884283e+00 -2.284049e-04 4.263154e-04 -1.407882e-03
N 2.273331e-02 1.812239e+00 -3.339203e+00 5.993646e-04 -2.281757e-04 2.316537e-04
N 3.188417e+00 -3.682911e+00 1.860897e+00 7.388294e-04 2.249433e-03 5.870374e-04
N 3.194166e+00 -3.663203e+00 6.933781e+00 9.073902e-04 -3.437571e-04 2.956692e-05
N 3.190443e+00 -3.719232e+00 -3.359344e+00 2.159030e-04 4.610622e-04 -8.914439e-05
N 1.559624e+00 -9.508435e-01 1.794329e+00 -4.494516e-04 3.317225e-04 -8.614167e-04
N 1.562785e+00 -9.493990e-01 6.953953e+00 8.456040e-04 5.915789e-04 -1.899107e-04
N 1.517060e+00 -9.354121e-01 -3.350230e+00 -3.452206e-04 1.424977e-04 -6.279405e-04
N 3.140974e+00 1.787942e+00 1.801915e+00 2.277243e-04 -1.035519e-05 -2.049197e-04
N 3.135729e+00 1.790960e+00 6.936684e+00 2.629327e-05 -3.310444e-04 -2.883471e-04
N 3.141955e+00 1.739314e+00 -3.351111e+00 3.250035e-05 7.270973e-05 -5.430900e-04
N 6.306444e+00 -3.690665e+00 1.799556e+00 -2.300922e-04 -2.995333e-04 2.321461e-04
N 6.312757e+00 -3.744352e+00 6.870161e+00 5.950178e-05 -1.194601e-04 -6.857344e-04
N 6.274602e+00 -3.719743e+00 -3.302645e+00 3.524733e-04 5.242226e-05 -3.098951e-04
N 4.732710e+00 -9.468211e-01 1.797910e+00 -1.067836e-04 -5.500182e-04 -1.056279e-04
N 4.683514e+00 -9.293954e-01 6.875082e+00 -1.695226e-04 -3.296714e-05 -6.511842e-04
N 4.729697e+00 -9.076462e-01 -3.299874e+00 -1.535415e-04 -4.348269e-04 -3.300728e-04
N -3.233108e+00 1.759326e+00 1.843299e+00 2.930874e-04 5.514283e-04 -2.839507e-03
N -3.230336e+00 1.762815e+00 6.875431e+00 -3.796633e-04 -1.109012e-04 -3.317424e-04
N -3.238848e+00 1.760947e+00 -3.289621e+00 -6.766807e-05 -1.871552e-04 4.754209e-04
N -6.298224e-02 -3.667317e+00 1.779594e+00 -9.119148e-05 1.111151e-03 -4.259026e-05
N -7.175731e-02 -3.663190e+00 6.883723e+00 -1.295583e-04 1.447135e-04 -5.672048e-04
N -3.246004e-02 -3.644129e+00 -3.294475e+00 -1.414717e-04 2.491277e-04 6.379609e-05
N -1.601626e+00 -1.006179e+00 1.795125e+00 -1.752761e-03 1.353144e-03 -5.686863e-04
N -1.560546e+00 -9.762326e-01 6.845643e+00 4.778806e-04 -8.166451e-04 1.038692e-03
N -1.560697e+00 -9.835932e-01 -3.353863e+00 -2.898351e-04 -4.843282e-04 -1.058403e-04
