108
Energy=-940194.462703 Lattice="9.455884 0.000000 0.000000 -4.728264 8.189964 0.000000 -0.000096 -0.000680 15.207767" Stress="0.000001 -0.000000 0.000000 0.000000 0.000001 -0.000000 0.000000 -0.000000 -0.000001" Properties=species:S:1:pos:R:3:forces:R:3
Al 1.545327 0.866920 2.404379 0.000066 0.000024 0.000057
Al 1.558585 0.877360 7.443030 -0.000008 0.000030 0.000077
Al 1.553721 0.860706 -2.699736 -0.000045 -0.000003 0.000139
Al -0.023791 3.597925 2.400641 -0.000006 0.000033 0.000118
Al -0.029691 3.593812 7.436228 0.000024 -0.000001 0.000099
Al -0.023041 3.599992 -2.684774 0.000091 0.000016 0.000043
Al 3.127907 -1.858407 2.386644 0.000040 -0.000015 0.000106
Al 3.124165 -1.861845 7.436483 0.000102 0.000165 -0.000085
Al 3.117298 -1.858406 -2.670811 0.000076 0.000197 0.000080
Al -4.745059 0.867298 2.412205 0.000109 -0.000096 0.000102
Al -4.756870 0.882681 7.425030 0.000032 0.000074 0.000009
Al -4.759454 0.870561 -2.679634 -0.000109 0.000040 -0.000265
Al -6.333059 3.602558 2.416321 -0.000015 0.000037 -0.000043
Al -6.327202 3.582993 7.442426 0.000051 0.000013 0.000074
Ga -6.335755 3.590932 -2.698447 0.000019 -0.000007 0.000090
Al -3.189068 -1.866060 2.394268 -0.000037 -0.000021 0.000091
Ga -3.187768 -1.864691 7.451514 -0.000004 0.000026 0.000085
Ga -3.182242 -1.868499 -2.676960 -0.000038 -0.000019 0.000093
Al -1.595750 0.888451 2.392407 -0.000022 -0.000059 0.000127
Al -1.596854 0.895013 7.458655 -0.000017 0.000010 0.000076
Ga -1.591486 0.880883 -2.687337 0.000080 -0.000036 0.000056
Al -3.167048 3.597574 2.406739 0.000135 -0.000073 0.000061
Al -3.167290 3.595435 7.442356 0.000008 -0.000051 0.000071
Ga -3.164363 3.603235 -2.691590 0.000019 -0.000028 0.000047
Al -0.006933 -1.858649 2.415541 -0.000109 0.000170 0.000141
Ga -0.004198 -1.861141 7.455127 -0.000003 -0.000007 0.000031
Al -0.004131 -1.851016 -2.705626 0.000209 0.000025 0.000359
Al -0.019252 1.788416 4.924472 -0.000026 0.000039 0.000129
Al -0.016264 1.787943 -5.242631 0.000013 0.000036 0.000077
Al -0.017713 1.793501 -0.135125 0.000116 0.000051 -0.000012
Al 3.130193 -3.678107 4.912879 -0.000002 0.000042 0.000088
Al 3.132042 -3.682146 -5.240535 0.000008 0.000009 0.000155
Al 3.145019 -3.677985 -0.129339 0.000032 0.000017 0.000004
Al 1.569798 -0.944860 4.914569 -0.000009 -0.000049 0.000065
Al 1.555486 -0.945734 -5.220373 -0.000241 0.000069 0.000098
Al 1.559704 -0.947550 -0.143101 -0.000086 -0.000029 -0.000092
Al 3.125687 1.780654 4.914305 0.000032 -0.000041 0.000143
Al 3.126342 1.780849 -5.241091 0.000166 -0.000078 -0.000116
Ga 3.123837 1.764020 -0.122394 -0.000018 0.000050 0.000086
Al 6.274817 -3.692744 4.913494 -0.000047 0.000058 0.000063
Al 6.277636 -3.698167 -5.240612 0.000015 -0.000019 -0.000051
Al 6.256900 -3.687171 -0.114098 -0.000063 0.000080 0.000025
Al 4.689978 -0.949466 4.911796 -0.000075 0.000047 0.000114
Ga 4.690267 -0.939993 -5.220204 0.000003 0.000044 0.000091
Al 4.693363 -0.949686 -0.133972 -0.000005 -0.000189 0.000011
Al -3.174309 1.789967 4.923605 -0.000014 -0.000010 0.000104
Al -3.177057 1.787233 -5.254194 -0.000004 -0.000037 -0.000023
Al -3.173388 1.778796 -0.114750 -0.000156 0.000024 -0.000026
Al -0.016410 -3.693191 4.913548 0.000047 0.000011 0.000062
Al -0.021348 -3.683018 -5.240698 -0.000010 0.000016 0.000102
Ga -0.012584 -3.673861 -0.116229 -0.000024 0.000018 0.000011
Ga -1.599352 -0.940508 4.900383 -0.000057 0.000032 0.000005
Al -1.586138 -0.941343 -5.223529 -0.000182 -0.000057 -0.000066
Ga -1.593222 -0.946404 -0.112112 0.000034 -0.000023 -0.000035
N 1.547216 0.871041 4.320708 0.000049 0.000027 -0.000167
N 1.553880 0.868178 -5.839744 0.000010 -0.000014 -0.000102
N 1.510197 0.847430 -0.774072 0.000072 -0.000080 -0.000141
N -0.025835 3.598095 4.317580 -0.000002 -0.000027 -0.000122
N -0.026860 3.600906 -5.854385 -0.000019 0.000006 -0.000067
N -0.023087 3.600766 -0.752823 -0.000010 0.000020 -0.000094
N 3.128312 -1.861573 4.304558 -0.000001 0.000019 -0.000109
N 3.084641 -1.882050 -5.858772 0.000148 -0.000189 -0.000142
N 3.125426 -1.863011 -0.740755 -0.000015 0.000013 -0.000041
N -4.746250 0.871372 4.329066 -0.000001 0.000068 -0.000131
N -4.753091 0.918056 -5.872558 -0.000262 0.000058 0.000131
N -4.707596 0.851692 -0.760118 0.000141 0.000263 0.000202
N -6.329627 3.600976 4.326553 0.000008 -0.000021 -0.000166
N -6.326834 3.597221 -5.839754 0.000013 -0.000007 -0.000049
N -6.369483 3.622571 -0.725119 0.000048 -0.000008 -0.000190
N -3.224111 -1.887091 4.305548 0.000089 -0.000112 -0.000085
N -3.138312 -1.881645 -5.787302 0.000098 0.000154 0.000019
N -3.213522 -1.886517 -0.696677 0.000022 -0.000036 -0.000000
N -1.596966 0.932101 4.298164 0.000078 -0.000014 -0.000101
N -1.595493 0.877039 -5.828916 0.000052 -0.000021 -0.000025
N -1.597986 0.920493 -0.707328 0.000005 -0.000073 -0.000037
N -3.168624 3.598550 4.321956 0.000004 -0.000034 -0.000151
N -3.170763 3.604258 -5.841616 0.000028 0.000014 -0.000014
N -3.129513 3.575539 -0.710864 -0.000035 0.000006 -0.000160
N 0.027831 -1.883315 4.318974 0.000022 -0.000031 -0.000089
N -0.016358 -1.857378 -5.780564 0.000195 -0.000004 0.000013
N 0.018468 -1.837056 -0.789004 0.000038 0.000072 -0.000075
N -0.015399 1.785276 1.785319 0.000006 -0.000031 -0.000053
N -0.021704 1.779437 6.845986 -0.000008 0.000016 -0.000098
N 0.021344 1.808777 -3.320927 -0.000066 0.000041 -0.000079
N 3.133378 -3.679709 1.793811 0.000009 0.000001 -0.000013
N 3.129463 -3.678790 6.835242 0.000003 0.000044 -0.000068
N 3.175510 -3.652067 -3.315169 -0.000042 -0.000113 -0.000170
N 1.553100 -0.946548 1.781677 -0.000045 0.000054 -0.000038
N 1.596547 -0.920835 6.821262 0.000035 -0.000062 -0.000043
N 1.562651 -0.948987 -3.298545 -0.000015 0.000044 -0.000048
N 3.129761 1.776319 1.857082 -0.000285 0.000063 0.000042
N 3.124686 1.780827 6.833431 -0.000033 0.000010 -0.000101
N 3.129241 1.727644 -3.318429 0.000252 -0.000045 0.000170
N 6.277649 -3.685998 1.801671 0.000021 -0.000029 0.000029
N 6.281007 -3.730340 6.825503 0.000012 -0.000038 -0.000116
N 6.236707 -3.707128 -3.337532 -0.000096 -0.000061 0.000125
N 4.699704 -0.943263 1.788697 -0.000022 0.000024 -0.000023
N 4.661504 -0.925479 6.824553 -0.000146 -0.000255 -0.000032
N 4.657208 -0.925584 -3.247911 -0.000108 -0.000092 -0.000009
N -3.181062 1.781445 1.799714 0.000012 -0.000034 -0.000018
N -3.170364 1.782502 6.843651 0.000039 0.000018 -0.000106
N -3.219277 1.755482 -3.343419 -0.000058 0.000004 0.000075
N -0.021524 -3.678611 1.859381 -0.000125 -0.000063 0.000017
N -0.021640 -3.729464 6.829926 -0.000086 -0.000011 0.000045
N -0.021113 -3.638526 -3.330251 -0.000035 -0.000179 -0.000228
N -1.594179 -0.950497 1.869166 0.000106 0.000013 -0.000048
N -1.597450 -0.897645 6.863528 0.000004 -0.000028 -0.000055
N -1.560401 -0.968132 -3.314369 -0.000198 0.000103 -0.000112
