108
Energy=-1.214847e+06 Lattice="9.490230e+00 0.000000e+00 0.000000e+00 -4.748345e+00 8.216034e+00 0.000000e+00 -1.652240e-02 -4.067862e-03 1.529318e+01" Stress="8.584196e-05 -6.638059e-05 -6.888798e-04 -4.989394e-05 3.151225e-05 -2.692461e-04 -7.078588e-04 -2.615728e-04 1.154904e-04" Properties=species:S:1:pos:R:3:forces:R:3 Config_type=AlGaN_super3_17_2_11.xyz
Al 1.565067e+00 8.873125e-01 2.397211e+00 -4.845973e-04 -1.833755e-03 2.947101e-04
Al 1.556150e+00 8.792835e-01 7.472103e+00 6.371193e-04 -3.113091e-04 7.279308e-04
Al 1.555231e+00 8.818384e-01 -2.679124e+00 -1.575221e-03 -1.403865e-03 2.261967e-04
Al -3.458893e-02 3.604536e+00 2.392728e+00 2.008790e-03 3.180170e-04 -1.345330e-03
Al -3.385120e-02 3.597498e+00 7.480093e+00 -9.155318e-04 -3.729067e-04 1.592653e-03
Al -2.654516e-02 3.597967e+00 -2.671294e+00 1.117355e-03 -5.454858e-04 2.846066e-04
Al 3.147408e+00 -1.866190e+00 2.400163e+00 -1.027656e-03 1.711385e-03 -1.877314e-05
Al 3.137710e+00 -1.859486e+00 7.485406e+00 2.747416e-04 -7.720123e-04 6.379204e-04
Ga 3.153413e+00 -1.855445e+00 -2.691348e+00 -3.084386e-04 -9.490091e-05 1.194600e-03
Al -4.793456e+00 8.686656e-01 2.399620e+00 1.302046e-03 -8.093708e-04 -5.050609e-05
Al -4.792277e+00 8.730557e-01 7.491984e+00 1.748825e-04 -3.354320e-04 4.506130e-04
Al -4.756675e+00 8.666233e-01 -2.690610e+00 -9.925931e-04 1.552757e-03 -8.983100e-04
Al -6.355556e+00 3.590983e+00 2.387506e+00 -7.091950e-05 8.117524e-04 -5.465661e-04
Al -6.349827e+00 3.590483e+00 7.490255e+00 -1.689614e-04 -8.612319e-05 4.175265e-04
Ga -6.347739e+00 3.603544e+00 -2.673400e+00 3.058621e-05 5.799601e-04 3.816718e-04
Ga -3.204657e+00 -1.863359e+00 2.401980e+00 5.744199e-04 -2.533563e-04 4.777572e-04
Ga -3.211217e+00 -1.867559e+00 7.482726e+00 3.442681e-04 2.428647e-04 4.880582e-04
Al -3.201512e+00 -1.857436e+00 -2.679144e+00 2.240282e-04 -4.008212e-04 2.986820e-05
Al -1.588392e+00 8.872511e-01 2.412614e+00 1.631680e-04 -4.389229e-04 -6.711909e-05
Ga -1.608049e+00 8.966417e-01 7.505784e+00 7.364247e-04 -5.226470e-04 1.134606e-03
Al -1.602584e+00 8.993816e-01 -2.710350e+00 9.393773e-04 -1.946807e-04 -7.901071e-04
Ga -3.177486e+00 3.621509e+00 2.408327e+00 -2.187792e-04 -4.120394e-05 6.541464e-04
Al -3.201842e+00 3.612080e+00 7.486489e+00 6.564984e-04 1.458010e-04 -1.925938e-04
Al -3.183711e+00 3.601204e+00 -2.691074e+00 1.210815e-04 -3.632385e-04 4.999568e-04
Ga -1.051676e-02 -1.861376e+00 2.415663e+00 4.175010e-04 -1.095007e-04 -1.074782e-04
Ga -1.112846e-02 -1.875823e+00 7.486752e+00 2.833442e-04 -4.816804e-05 7.215275e-04
Ga -6.929833e-03 -1.863278e+00 -2.690580e+00 2.991786e-04 -2.842895e-05 6.023460e-04
Al -1.900349e-02 1.781666e+00 4.933659e+00 2.852997e-04 -4.808296e-04 -8.911297e-04
Al -6.140675e-03 1.789664e+00 -5.233940e+00 -2.148995e-03 -2.176943e-03 -1.500324e-04
Al -1.880652e-02 1.790301e+00 -1.434382e-01 1.991510e-03 1.069566e-03 1.537863e-04
Al 3.141249e+00 -3.680100e+00 4.961124e+00 -1.835412e-04 3.573825e-04 -1.614835e-04
Ga 3.142786e+00 -3.696474e+00 -5.256315e+00 -4.649996e-04 1.998019e-04 2.983540e-04
Al 3.148843e+00 -3.686337e+00 -1.559899e-01 -8.814687e-05 2.851307e-04 6.716032e-04
Al 1.568855e+00 -9.483626e-01 4.940621e+00 2.008029e-04 3.950204e-04 -3.884699e-04
Al 1.573839e+00 -9.409839e-01 -5.263961e+00 -6.865925e-04 5.463108e-04 8.008408e-04
Al 1.575046e+00 -9.439761e-01 -1.302479e-01 -7.151254e-04 2.389906e-04 7.198943e-04
Al 3.130684e+00 1.778233e+00 4.943910e+00 -1.786902e-04 -2.567266e-04 8.464041e-04
Ga 3.144044e+00 1.770485e+00 -5.256008e+00 -1.053794e-04 -4.346446e-05 1.030373e-03
Al 3.125728e+00 1.776404e+00 -1.376890e-01 6.383698e-04 8.212539e-04 -1.934407e-03
Ga 6.300566e+00 -3.708933e+00 4.942507e+00 2.675306e-04 2.530968e-04 2.823893e-05
Ga 6.306665e+00 -3.697074e+00 -5.242547e+00 2.040663e-04 -1.311756e-05 6.229301e-04
Al 6.293370e+00 -3.700608e+00 -1.424949e-01 1.083406e-04 -2.883832e-04 4.514757e-04
Al 4.695799e+00 -9.487678e-01 4.943314e+00 -7.251928e-05 3.226150e-04 -1.937207e-05
Al 4.723672e+00 -9.383189e-01 -5.247389e+00 -3.594800e-04 2.704010e-04 8.998276e-04
Al 4.706672e+00 -9.548325e-01 -1.444327e-01 -3.357811e-04 2.492401e-05 1.311930e-03
Ga -3.196436e+00 1.780501e+00 4.940799e+00 -1.216774e-04 -1.034279e-04 1.379966e-07
Al -3.193755e+00 1.792893e+00 -5.240084e+00 -2.053535e-04 1.248006e-03 -2.317464e-04
Ga -3.193510e+00 1.787771e+00 -1.482281e-01 -6.250688e-05 5.526196e-04 1.020241e-03
Al -3.139561e-02 -3.689363e+00 4.954024e+00 1.106014e-03 -2.252850e-03 1.414957e-04
Al -2.580893e-03 -3.699292e+00 -5.256049e+00 -2.195977e-04 -1.561529e-04 6.492457e-04
Al -1.814506e-02 -3.695169e+00 -1.397059e-01 -5.781646e-04 -2.141448e-04 1.059499e-03
Al -1.595075e+00 -9.473061e-01 4.941395e+00 -7.142268e-04 7.460750e-04 4.161450e-05
Ga -1.597436e+00 -9.431254e-01 -5.218805e+00 1.903623e-04 -6.403465e-05 -6.737191e-05
Ga -1.605816e+00 -9.496663e-01 -1.584925e-01 5.693274e-04 3.935718e-05 -4.612028e-04
N 1.556149e+00 8.763778e-01 4.327194e+00 4.473716e-04 -4.354815e-04 -4.266730e-04
N 1.517528e+00 8.556095e-01 -5.896897e+00 -1.276766e-05 -2.782136e-04 -9.171877e-04
N 1.550600e+00 8.731796e-01 -7.507230e-01 3.687379e-04 -4.243927e-04 -3.041132e-04
N -7.663519e-02 3.587576e+00 4.312822e+00 -3.184672e-04 3.759445e-04 -4.920740e-04
N -1.902609e-02 3.560958e+00 -5.898290e+00 -3.639652e-05 1.104116e-05 -1.294856e-03
N -2.599936e-02 3.606212e+00 -7.494782e-01 -2.092369e-04 -2.679077e-04 -3.150582e-04
N 3.137265e+00 -1.872187e+00 4.329634e+00 3.255191e-04 -6.970132e-05 -5.232945e-04
N 3.152035e+00 -1.817950e+00 -5.878147e+00 1.301152e-04 2.341564e-04 -1.053492e-03
N 3.137991e+00 -1.862126e+00 -7.113861e-01 2.017972e-04 -2.006556e-05 -9.932034e-04
N -4.821390e+00 8.494663e-01 4.314577e+00 -2.134951e-04 -6.291975e-04 -5.792109e-04
N -4.724532e+00 8.510565e-01 -5.879116e+00 5.852688e-04 -4.398750e-05 -9.292995e-04
N -4.812298e+00 8.496275e-01 -7.727701e-01 -1.308533e-04 -5.925492e-04 -5.515674e-04
N -6.312736e+00 3.581054e+00 4.309764e+00 1.055899e-04 2.834444e-04 -5.668368e-04
N -6.304876e+00 3.630647e+00 -5.886641e+00 3.450802e-04 2.285531e-04 -9.102751e-04
N -6.351384e+00 3.610705e+00 -6.948389e-01 1.020939e-04 -2.835887e-04 -9.281201e-05
N -3.195296e+00 -1.820993e+00 4.378180e+00 1.726900e-04 -3.732726e-06 5.716407e-04
N -3.218801e+00 -1.839688e+00 -5.842206e+00 -2.716392e-04 1.132063e-04 -6.105673e-04
N -3.235578e+00 -1.888764e+00 -7.601927e-01 -4.213706e-04 -2.225048e-04 -1.953020e-04
N -1.564039e+00 8.551637e-01 4.321029e+00 9.995868e-05 -5.684799e-04 9.251729e-04
N -1.602767e+00 9.265795e-01 -5.808556e+00 2.419720e-03 1.242283e-03 9.223011e-04
N -1.564632e+00 9.095565e-01 -8.032250e-01 -2.053581e-04 -2.307157e-04 4.892633e-04
N -3.186303e+00 3.665706e+00 4.376717e+00 -8.061798e-04 1.963514e-04 9.419419e-04
N -3.220238e+00 3.593104e+00 -5.889547e+00 -4.069998e-04 -1.825725e-03 5.538889e-04
N -3.190924e+00 3.657511e+00 -7.699059e-01 7.133889e-04 2.222133e-04 -6.918252e-04
N -1.803519e-02 -1.871313e+00 4.395746e+00 -2.048012e-04 1.480321e-03 6.849700e-04
N 2.201253e-02 -1.886463e+00 -5.823144e+00 7.110976e-04 -3.936219e-05 -3.272784e-04
N 2.645543e-02 -1.887981e+00 -7.151704e-01 8.187270e-04 2.489607e-05 -6.615092e-04
N -1.893588e-02 1.788904e+00 1.785595e+00 -9.729960e-04 -7.692941e-04 -1.405489e-04
N 1.243742e-02 1.804248e+00 6.846055e+00 -6.836020e-04 5.954702e-04 -6.076516e-04
N -7.078875e-03 1.792387e+00 -3.307401e+00 -6.186875e-04 1.828002e-04 -1.043026e-04
N 3.184100e+00 -3.661987e+00 1.765488e+00 1.085285e-04 -1.720188e-03 -4.680488e-04
N 3.139308e+00 -3.690869e+00 6.893220e+00 -4.713617e-04 4.459857e-04 -4.511645e-04
N 3.149818e+00 -3.739095e+00 -3.271787e+00 -9.463334e-04 2.147808e-04 -4.016103e-04
N 1.603416e+00 -9.280508e-01 1.787409e+00 4.525282e-04 2.038226e-03 1.083831e-03
N 1.601863e+00 -9.294510e-01 6.858809e+00 -5.861197e-04 4.972292e-04 -6.548953e-04
N 1.569526e+00 -8.986123e-01 -3.348551e+00 7.977941e-05 9.360201e-04 -3.505012e-04
N 3.138631e+00 1.782824e+00 1.777974e+00 -4.259776e-04 -6.934432e-04 1.911357e-03
N 3.132538e+00 1.782298e+00 6.878620e+00 -1.837326e-05 -2.265896e-05 -7.937136e-04
N 3.137024e+00 1.736720e+00 -3.273734e+00 2.200569e-03 -3.638611e-04 -4.289877e-05
N 6.302716e+00 -3.738640e+00 1.780119e+00 -9.465219e-04 -3.932642e-04 1.362282e-03
N 6.299683e+00 -3.749234e+00 6.917712e+00 8.654275e-04 4.893707e-04 -6.409778e-04
N 6.265469e+00 -3.671210e+00 -3.260708e+00 -1.930357e-04 1.381262e-04 -2.503247e-04
N 4.676318e+00 -9.341218e-01 1.771335e+00 9.397532e-04 2.958300e-03 -1.848310e-04
N 4.671064e+00 -9.271236e-01 6.856778e+00 -7.284212e-04 4.664787e-04 -6.719876e-04
N 4.764250e+00 -9.244984e-01 -3.328428e+00 3.391575e-04 -4.175574e-04 -5.053961e-04
N -3.185000e+00 1.742393e+00 1.840183e+00 -1.602442e-03 -1.676579e-03 -1.352957e-03
N -3.238500e+00 1.802714e+00 6.912353e+00 -2.458694e-04 4.868501e-04 1.642275e-04
N -3.192135e+00 1.791415e+00 -3.305284e+00 -3.762733e-04 1.627714e-04 -3.478252e-04
N -5.739977e-02 -3.712996e+00 1.768667e+00 -7.108740e-04 -5.120517e-04 -1.127752e-03
N -3.419283e-02 -3.742217e+00 6.864454e+00 6.886410e-05 -3.237030e-05 -3.737177e-04
N 2.126592e-02 -3.718437e+00 -3.340998e+00 1.064042e-04 -3.704845e-04 -1.021688e-03
N -1.601017e+00 -9.042178e-01 1.809355e+00 -1.598492e-03 6.761976e-04 4.860291e-04
N -1.606243e+00 -9.462620e-01 6.846797e+00 -4.345384e-04 5.554704e-05 -1.088426e-03
N -1.641183e+00 -9.299077e-01 -3.245606e+00 -7.736422e-04 4.339087e-04 6.781628e-04
