108
Energy=-1535275.291402 Lattice="9.525964 0.000000 0.000000 -4.771174 8.238261 0.000000 0.021624 0.011059 15.392315" Stress="-0.000017 0.000001 0.000004 0.000001 -0.000027 0.000003 0.000004 0.000003 0.000007" Properties=species:S:1:pos:R:3:forces:R:3
Al 1.455832 0.858310 2.389442 0.031302 0.003091 0.002585
Al 1.573318 0.861948 7.547922 -0.000035 0.004583 0.003043
Al 1.528996 0.843293 -2.712211 0.003409 0.002177 0.004021
Al -0.070525 3.579312 2.388972 0.009779 0.005297 0.008045
Al 0.000328 3.613951 7.548698 0.000310 0.000880 -0.000983
Al -0.050162 3.596410 -2.721645 0.002499 0.003482 0.001530
Al 3.162679 -1.876979 2.367231 0.002064 0.010074 0.003349
Al 3.175326 -1.859950 7.550970 0.002357 -0.001423 0.005243
Al 3.133138 -1.880048 -2.709763 0.002196 -0.000103 0.003823
Al -4.794496 0.853795 2.454619 -0.004537 0.004468 -0.003004
Ga -4.791447 0.865950 7.550420 0.002697 0.002315 0.000103
Ga -4.807193 0.849699 -2.699222 0.002060 0.005715 0.000887
Al -6.357720 3.626185 2.463691 -0.003735 -0.006241 -0.001528
Ga -6.382254 3.632170 7.553108 0.001447 0.001498 -0.000629
Ga -6.396512 3.628517 -2.729023 0.001049 -0.000274 0.001447
Ga -3.203519 -1.855408 2.427754 -0.001602 -0.002390 0.001054
Ga -3.184321 -1.875224 7.531534 0.001400 -0.001252 0.002279
Ga -3.199938 -1.867850 -2.715649 0.002053 -0.002318 0.003743
Al -1.601189 0.873019 2.407602 -0.006769 0.000699 0.006388
Ga -1.575923 0.886235 7.538799 0.001318 0.000598 0.003314
Al -1.591445 0.863709 -2.716817 -0.003873 -0.000149 0.004246
Ga -3.196276 3.640524 2.402734 -0.002281 -0.002899 0.001757
Ga -3.169595 3.658926 7.562546 -0.001829 -0.001501 0.000414
Ga -3.185743 3.661822 -2.719109 -0.002125 -0.003931 0.001190
Ga -0.017381 -1.851021 2.377574 0.001337 -0.003701 0.005742
Ga 0.012963 -1.840079 7.554326 -0.001857 -0.003539 0.003933
Al -0.010350 -1.848234 -2.724981 -0.003205 -0.001770 0.005953
Al -0.009622 1.789322 4.983696 0.001349 0.003924 -0.000920
Ga -0.028833 1.771737 -5.279134 0.002451 0.005896 0.004117
Al -0.055770 1.759908 -0.165736 0.004506 0.006040 -0.005830
Ga 3.203175 -3.687064 4.980529 0.000770 0.000149 0.002822
Al 3.154511 -3.693451 -5.297527 0.004843 0.002280 0.003226
Al 3.145554 -3.691530 -0.151072 0.004600 0.003344 -0.010696
Ga 1.595586 -0.941460 4.982381 -0.000848 -0.000140 0.000263
Al 1.558499 -0.979088 -5.280060 0.003397 0.000171 0.004878
Al 1.554634 -0.972069 -0.176793 0.002068 -0.001104 -0.010646
Ga 3.145529 1.799212 4.977192 0.000516 0.003029 -0.005269
Ga 3.123948 1.780543 -5.276186 -0.001234 0.002397 0.001447
Ga 3.126250 1.769742 -0.119421 -0.000650 0.002372 0.011423
Al 6.343384 -3.676768 4.936452 0.000651 -0.005955 0.005542
Al 6.322716 -3.697986 -5.282442 -0.002911 -0.001775 0.001839
Ga 6.309603 -3.704137 -0.122703 -0.000438 -0.001221 0.006368
Al 4.766096 -0.950207 4.986636 -0.000636 -0.002494 0.002335
Ga 4.735366 -0.980933 -5.275761 -0.001845 -0.004266 0.001885
Al 4.730216 -0.950273 -0.127956 -0.003170 -0.008179 -0.005310
Ga -3.175587 1.788188 4.971284 -0.001849 0.000985 -0.001950
Ga -3.194171 1.791987 -5.265118 -0.001972 0.002265 0.001336
Ga -3.189191 1.782902 -0.142461 -0.002611 0.000931 0.003858
Al -0.012500 -3.666875 4.982034 -0.002436 -0.002246 0.001852
Al -0.022049 -3.669746 -5.272505 -0.001729 -0.002345 -0.000354
Al -0.027738 -3.681550 -0.140277 -0.000550 0.001903 -0.007080
Al -1.579570 -0.934958 4.973774 -0.002752 -0.002344 0.001087
Al -1.586744 -0.961121 -5.265875 -0.004357 -0.004770 0.003444
Al -1.596466 -0.935306 -0.148486 -0.001471 -0.006073 -0.008075
N 1.520331 0.901575 4.323359 -0.003056 -0.002916 -0.005386
N 1.544326 0.806743 -5.925434 0.001522 0.002017 -0.002538
N 1.502586 0.834458 -0.780903 0.001525 0.004188 0.000483
N 0.026345 3.589824 4.331540 -0.004757 -0.000738 -0.002834
N -0.032812 3.656279 -5.918957 0.001322 -0.002163 -0.001162
N -0.085998 3.589151 -0.788367 0.001422 -0.001069 0.001568
N 3.220956 -1.832329 4.319766 -0.002256 -0.002885 -0.009471
N 3.108870 -1.895887 -5.915895 -0.000309 0.000772 -0.001811
N 3.144852 -1.871911 -0.766034 0.002796 -0.000492 -0.004321
N -4.779445 0.819879 4.358441 0.002155 0.004751 0.000545
N -4.798883 0.861726 -5.881191 0.002609 0.003689 -0.001918
N -4.802044 0.818099 -0.735820 0.001977 0.007800 0.000922
N -6.349675 3.689544 4.368388 0.000744 -0.000111 0.002292
N -6.385955 3.670621 -5.854209 0.002762 -0.000611 -0.001156
N -6.351235 3.642099 -0.751915 0.000081 -0.001223 0.001506
N -3.174323 -1.838925 4.432228 0.000214 -0.000613 -0.005393
N -3.151689 -1.894443 -5.861384 0.002314 0.001601 -0.002501
N -3.202113 -1.821228 -0.717559 0.001648 -0.000946 0.000048
N -1.545722 0.859571 4.349642 -0.000673 0.001298 -0.005590
N -1.613364 0.820313 -5.875411 -0.001522 0.001280 -0.004600
N -1.579645 0.847503 -0.791742 -0.003441 0.000365 -0.002319
N -3.221100 3.676749 4.389799 0.000514 -0.002500 -0.004474
N -3.203748 3.681440 -5.846611 -0.003637 -0.003893 -0.001461
N -3.206563 3.685531 -0.724096 -0.002969 -0.005182 -0.001259
N -0.034820 -1.866805 4.392592 0.000466 -0.001074 -0.008088
N -0.019197 -1.857104 -5.841944 -0.001678 -0.002548 -0.004173
N -0.027002 -1.862257 -0.765866 -0.002923 -0.003139 -0.006309
N -0.074289 1.773140 1.751327 0.003283 0.003549 0.002410
N 0.045874 1.802362 6.902725 -0.002452 0.004479 0.002492
N -0.032988 1.766888 -3.284614 0.002181 0.005369 -0.002091
N 3.198345 -3.670083 1.728246 0.000938 -0.003984 0.015860
N 3.230235 -3.666681 6.974107 -0.000280 -0.000895 -0.004235
N 3.208904 -3.670459 -3.371573 -0.001987 -0.001755 0.002187
N 1.603147 -0.959255 1.688044 -0.000465 0.007625 0.027204
N 1.636249 -0.925913 6.971224 0.000720 -0.002228 -0.005979
N 1.564713 -0.964599 -3.328689 0.001676 0.000108 -0.002808
N 3.151889 1.794080 1.955918 -0.011265 -0.005657 -0.020510
N 3.118252 1.769193 6.956766 -0.000475 0.001519 -0.003112
N 3.093421 1.752457 -3.307714 -0.002017 0.000988 0.000899
N 6.322659 -3.780558 1.932125 -0.001689 0.008723 -0.020629
N 6.298127 -3.728810 6.885954 0.001496 0.002386 -0.005778
N 6.269502 -3.730697 -3.369474 0.000122 0.000206 0.002020
N 4.709434 -0.913193 1.764257 -0.001661 -0.008548 0.007283
N 4.720848 -0.969839 6.909031 -0.001509 -0.002843 -0.004128
N 4.690495 -0.985658 -3.310108 -0.000529 -0.002934 -0.001456
N -3.202386 1.738456 1.875267 0.001015 0.002514 -0.006482
N -3.179332 1.801258 6.941769 -0.001896 0.002023 -0.001359
N -3.161491 1.767177 -3.296882 -0.001258 0.001752 0.003095
N -0.061007 -3.713715 1.749585 -0.001175 -0.000302 0.006310
N -0.001995 -3.681721 6.891946 -0.000769 -0.000653 -0.000094
N -0.025361 -3.637110 -3.373363 -0.000082 -0.002950 0.004643
N -1.605191 -0.895905 1.744372 -0.002565 -0.003502 0.006654
N -1.578816 -0.937659 6.880532 -0.002535 -0.003597 -0.002079
N -1.562747 -0.926445 -3.342849 -0.002793 -0.003210 -0.000451
