108
Energy=-1535275.756882 Lattice="9.527594 0.000000 0.000000 -4.766146 8.250245 0.000000 -0.003576 0.009208 15.387994" Stress="-0.000001 -0.000000 -0.000000 -0.000000 -0.000000 0.000003 -0.000000 0.000003 -0.000001" Properties=species:S:1:pos:R:3:forces:R:3
Al 1.554487 0.883013 2.390754 -0.000599 -0.000153 0.000457
Al 1.552856 0.877809 7.541701 -0.000030 -0.000087 0.000190
Al 1.545901 0.858542 -2.689922 0.000013 -0.000253 0.000542
Al -0.022964 3.609883 2.409041 -0.000615 0.000158 0.000046
Al -0.017665 3.630056 7.537742 -0.000291 0.000066 -0.000026
Al -0.033621 3.622205 -2.704177 0.000056 0.000119 -0.000187
Al 3.160380 -1.861010 2.385992 0.000106 -0.000092 0.000246
Al 3.150818 -1.867791 7.556042 -0.000061 -0.000030 0.000172
Al 3.138057 -1.882131 -2.697295 0.000517 0.000692 -0.000051
Al -4.797664 0.862941 2.412071 -0.000019 0.000193 0.000019
Ga -4.805422 0.867065 7.534088 0.000160 -0.000017 0.000057
Ga -4.794854 0.865840 -2.684968 0.000055 -0.000137 0.000020
Al -6.377939 3.624277 2.424543 -0.000170 0.000111 -0.000035
Ga -6.394206 3.635062 7.546979 0.000080 0.000055 0.000091
Ga -6.385341 3.632398 -2.712819 -0.000017 0.000028 -0.000062
Ga -3.210021 -1.861655 2.417514 0.000227 0.000050 0.000208
Ga -3.207956 -1.880704 7.530720 0.000074 0.000171 0.000319
Ga -3.193038 -1.875384 -2.697765 -0.000021 0.000089 0.000069
Al -1.587969 0.880574 2.408111 0.000275 0.000364 0.000874
Ga -1.591319 0.881934 7.540042 0.000266 -0.000037 0.000041
Al -1.584621 0.868630 -2.692259 -0.000151 -0.000175 0.000004
Ga -3.197113 3.635877 2.399827 0.000239 0.000340 0.000084
Ga -3.192155 3.649170 7.558893 0.000145 0.000079 0.000049
Ga -3.181173 3.648963 -2.696418 -0.000067 -0.000069 0.000043
Ga -0.019638 -1.864278 2.401494 0.000207 0.000078 0.000337
Ga -0.015267 -1.859842 7.559095 0.000187 0.000041 0.000412
Al -0.010928 -1.857998 -2.706758 -0.000082 0.000394 0.000115
Al -0.018503 1.797880 4.964610 -0.000044 -0.000181 0.000098
Ga -0.014113 1.794675 -5.259615 -0.000171 0.000121 0.000236
Al -0.028518 1.788561 -0.157161 -0.000332 -0.000447 0.000294
Ga 3.175395 -3.696442 4.973918 -0.000127 0.000113 0.000186
Al 3.164279 -3.694469 -5.275742 0.000201 0.000045 -0.000115
Al 3.164360 -3.692369 -0.144705 -0.000155 0.000132 0.000345
Ga 1.566681 -0.952025 4.969204 -0.000163 0.000169 0.000083
Al 1.563854 -0.972400 -5.260830 -0.000116 0.000285 0.000075
Al 1.565064 -0.965162 -0.160321 -0.000237 0.000018 -0.000076
Ga 3.136953 1.801568 4.948989 0.000122 0.000108 0.000250
Ga 3.134624 1.791482 -5.269044 0.000004 -0.000002 0.000017
Ga 3.139308 1.787668 -0.117494 0.000077 -0.000054 0.000098
Al 6.327265 -3.704596 4.953739 0.000044 -0.000178 -0.000018
Al 6.323004 -3.706725 -5.271698 -0.000067 0.000004 0.000240
Ga 6.317307 -3.706573 -0.127935 0.000076 0.000007 -0.000123
Al 4.740175 -0.965621 4.967727 -0.000116 0.000007 -0.000028
Ga 4.735040 -0.986257 -5.266682 -0.000187 0.000126 0.000252
Al 4.727271 -0.968477 -0.139279 -0.000169 0.000007 -0.000181
Ga -3.192250 1.783949 4.948084 0.000148 0.000112 0.000139
Ga -3.187653 1.796963 -5.253322 -0.000090 0.000031 0.000103
Ga -3.178480 1.785782 -0.126719 -0.000065 -0.000137 -0.000229
Al -0.041053 -3.694475 4.970914 0.000072 0.000085 0.000361
Al -0.020622 -3.686242 -5.257255 -0.000019 0.000045 0.000137
Al -0.019083 -3.683398 -0.150155 0.000054 0.000102 0.000231
Al -1.612918 -0.955072 4.959562 -0.000073 0.000267 0.000176
Al -1.594489 -0.973983 -5.249873 -0.000125 0.000102 0.000300
Al -1.593723 -0.950072 -0.154567 0.000013 -0.000080 -0.000059
N 1.514023 0.896784 4.303241 -0.000145 0.000146 -0.000118
N 1.557309 0.820155 -5.927880 0.000047 -0.000168 -0.000081
N 1.522116 0.849899 -0.768094 0.000208 0.000121 -0.000482
N 0.013044 3.598761 4.329350 -0.000000 -0.000048 -0.000333
N -0.021220 3.667083 -5.920232 0.000161 0.000225 0.000074
N -0.067684 3.603999 -0.782398 0.000054 0.000121 -0.000149
N 3.191555 -1.848305 4.300922 0.000216 0.000218 -0.000402
N 3.108512 -1.897163 -5.910745 0.000021 -0.000289 -0.000163
N 3.150243 -1.876283 -0.768193 0.000099 -0.000169 -0.000180
N -4.792315 0.824785 4.324842 0.000016 -0.000226 -0.000251
N -4.786038 0.870096 -5.886208 0.000144 -0.000056 -0.000085
N -4.788779 0.832700 -0.721626 0.000020 0.000104 0.000044
N -6.374628 3.681754 4.339306 0.000028 0.000012 -0.000077
N -6.374193 3.676572 -5.853268 0.000030 0.000134 -0.000031
N -6.338928 3.651271 -0.745672 0.000045 -0.000045 0.000067
N -3.201062 -1.867149 4.405310 -0.000065 -0.000009 -0.000131
N -3.149890 -1.899108 -5.863107 0.000168 -0.000121 -0.000257
N -3.196936 -1.826485 -0.717007 0.000279 -0.000152 -0.000029
N -1.558704 0.854992 4.332854 0.000286 -0.000149 -0.000476
N -1.603815 0.822677 -5.873205 0.000285 -0.000252 -0.000154
N -1.566197 0.850645 -0.780151 0.000137 0.000286 0.000049
N -3.238503 3.664677 4.372780 -0.000106 -0.000125 -0.000164
N -3.199119 3.677226 -5.842064 -0.000113 -0.000018 -0.000062
N -3.194529 3.678747 -0.711975 -0.000016 -0.000008 0.000069
N -0.061019 -1.890681 4.379114 0.000013 -0.000239 -0.000318
N -0.019930 -1.871854 -5.838319 -0.000010 -0.000190 -0.000242
N -0.019889 -1.869957 -0.772148 0.000046 -0.000188 -0.000188
N -0.024598 1.797388 1.771450 -0.000149 -0.000012 -0.000129
N 0.018573 1.825064 6.899058 0.000191 -0.000341 -0.000470
N -0.017958 1.794653 -3.271606 -0.000016 0.000197 -0.000149
N 3.204862 -3.678539 1.776654 0.000360 -0.000258 -0.000110
N 3.201272 -3.675568 6.958073 -0.000448 0.000146 0.000049
N 3.203274 -3.678661 -3.348884 -0.000068 -0.000244 0.000061
N 1.605740 -0.932389 1.762979 0.000249 0.000015 -0.000120
N 1.608626 -0.930093 6.952404 -0.000124 0.000051 -0.000207
N 1.570088 -0.958026 -3.320099 0.000004 -0.000026 -0.000232
N 3.148848 1.796714 1.866105 0.000377 0.000208 -0.000230
N 3.102423 1.777525 6.929968 -0.000175 -0.000159 -0.000154
N 3.101358 1.762916 -3.297292 -0.000094 -0.000048 -0.000073
N 6.325600 -3.753221 1.843955 0.000533 0.000140 0.000172
N 6.284809 -3.730180 6.872411 0.000170 0.000071 -0.000031
N 6.279802 -3.731363 -3.355757 -0.000095 -0.000102 -0.000033
N 4.701516 -0.933065 1.769116 -0.000593 -0.000480 0.000305
N 4.693193 -0.983111 6.886574 -0.000241 -0.000021 -0.000047
N 4.696731 -0.987839 -3.300668 -0.000583 -0.000271 0.000128
N -3.192909 1.742861 1.851114 -0.000140 0.000061 0.000083
N -3.198557 1.800006 6.921874 -0.000087 -0.000061 -0.000179
N -3.153774 1.770717 -3.278701 0.000112 0.000008 -0.000027
N -0.068151 -3.723855 1.756529 -0.000046 -0.000055 -0.000322
N -0.026712 -3.699253 6.881484 -0.000045 -0.000001 -0.000316
N -0.019759 -3.655085 -3.346117 0.000051 -0.000102 -0.000170
N -1.609656 -0.905747 1.757674 -0.000050 -0.000198 -0.000282
N -1.608897 -0.953237 6.867809 -0.000182 0.000062 -0.000251
N -1.566591 -0.934053 -3.328858 0.000193 -0.000282 -0.000022
