108
Energy=-1.947255e+06 Lattice="9.577168e+00 0.000000e+00 0.000000e+00 -4.787925e+00 8.294957e+00 0.000000e+00 1.495711e-03 -1.298997e-03 1.550813e+01" Stress="-4.992736e-05 1.680679e-05 7.114518e-05 2.568016e-05 -5.574385e-05 3.860936e-05 8.514105e-05 3.640631e-05 -5.085482e-05" Properties=species:S:1:pos:R:3:forces:R:3 Config_type=AlGaN_super3_33_2_10.xyz
Al 1.573435e+00 8.751086e-01 2.414273e+00 -2.903148e-05 5.361702e-05 2.150142e-05
Al 1.571643e+00 8.817082e-01 7.617019e+00 -1.993846e-05 -2.604977e-05 -6.553690e-06
Al 1.571882e+00 8.690528e-01 -2.722856e+00 -5.005623e-05 -3.718937e-05 -1.502614e-05
Al -1.304638e-02 3.645151e+00 2.425169e+00 8.916986e-05 -5.985658e-06 1.627345e-04
Al -1.068538e-02 3.647718e+00 7.614396e+00 -4.021654e-05 2.601767e-05 1.084773e-04
Ga -1.164561e-02 3.643696e+00 -2.729429e+00 -1.154684e-05 -1.155263e-05 2.050664e-04
Al 3.162349e+00 -1.875896e+00 2.413988e+00 -1.144780e-05 5.223370e-05 4.727787e-05
Ga 3.174779e+00 -1.876303e+00 7.626606e+00 1.955342e-05 3.326344e-05 1.452749e-04
Al 3.175116e+00 -1.859838e+00 -2.734231e+00 -1.708357e-06 7.635508e-06 -5.832469e-05
Ga -4.829676e+00 8.736285e-01 2.427913e+00 -4.125865e-05 6.052349e-05 6.571048e-05
Ga -4.807698e+00 8.761733e-01 7.629829e+00 7.225741e-05 -1.405049e-05 1.213383e-04
Ga -4.810512e+00 8.628030e-01 -2.741790e+00 1.748547e-05 -6.791468e-06 1.161396e-04
Al -6.413445e+00 3.648789e+00 2.424840e+00 -8.141185e-05 -1.996360e-05 -8.596158e-06
Ga -6.427944e+00 3.645131e+00 7.606438e+00 -2.152263e-05 4.477849e-06 1.759576e-04
Al -6.412529e+00 3.652299e+00 -2.718616e+00 4.576661e-05 5.618003e-05 7.123774e-05
Ga -3.218768e+00 -1.892360e+00 2.430053e+00 -2.505928e-05 -6.351046e-05 5.640388e-05
Al -3.215934e+00 -1.887990e+00 7.604702e+00 -1.022216e-04 4.894992e-05 -4.121381e-06
Al -3.227338e+00 -1.879546e+00 -2.724656e+00 -1.330717e-05 -2.435256e-05 6.647767e-06
Ga -1.602182e+00 8.756498e-01 2.465561e+00 -4.278273e-05 -5.218909e-07 1.392465e-04
Ga -1.618415e+00 8.780647e-01 7.594227e+00 -1.794887e-05 -7.022273e-06 8.734164e-05
Al -1.616481e+00 8.784382e-01 -2.743265e+00 -1.666663e-05 -2.579506e-05 8.606904e-05
Ga -3.219571e+00 3.662578e+00 2.430629e+00 -8.322812e-05 -1.269724e-04 1.559937e-04
Ga -3.205708e+00 3.636116e+00 7.609678e+00 2.957268e-05 -8.971816e-05 4.758451e-05
Ga -3.218733e+00 3.644920e+00 -2.716245e+00 -6.553433e-05 -2.957236e-05 1.451081e-04
Al -1.463946e-02 -1.882170e+00 2.410029e+00 -8.395771e-05 4.863411e-05 7.950108e-05
Ga -2.587531e-02 -1.867041e+00 7.617219e+00 -2.504203e-05 -2.563511e-05 1.323196e-04
Ga -1.159753e-02 -1.872383e+00 -2.717180e+00 -3.166187e-05 -9.403042e-05 1.897696e-04
Ga -1.873757e-02 1.802138e+00 5.023977e+00 -2.985903e-05 -2.345368e-05 2.740304e-05
Ga -2.064352e-02 1.790972e+00 -5.316672e+00 -6.834830e-05 -5.556872e-05 5.775870e-05
Ga -1.881181e-02 1.787072e+00 -1.436807e-01 -8.380243e-05 -5.935848e-05 -1.310150e-04
Ga 3.176105e+00 -3.728004e+00 5.011131e+00 -5.425761e-05 -6.944934e-05 9.205475e-05
Ga 3.167666e+00 -3.715024e+00 -5.303813e+00 -5.713024e-05 2.636665e-05 1.517009e-04
Ga 3.163503e+00 -3.695791e+00 -1.438441e-01 -5.963374e-05 2.724352e-05 -2.982800e-04
Ga 1.565394e+00 -9.579476e-01 4.994115e+00 -8.898905e-05 5.418687e-05 -1.909377e-06
Al 1.587278e+00 -9.499646e-01 -5.297767e+00 2.605833e-05 3.219703e-05 -1.733750e-05
Al 1.585585e+00 -9.661188e-01 -1.429099e-01 3.211811e-07 -4.169087e-05 -6.241890e-05
Ga 3.169968e+00 1.800494e+00 5.011144e+00 -5.404839e-05 -3.445010e-05 1.113251e-05
Ga 3.165562e+00 1.786882e+00 -5.293069e+00 -7.780145e-05 -4.634808e-05 1.434975e-04
Ga 3.164926e+00 1.801384e+00 -1.590013e-01 -5.746354e-05 -1.047323e-04 2.485843e-04
Ga 6.360649e+00 -3.721668e+00 5.017191e+00 -2.129761e-05 1.450747e-05 1.225545e-05
Ga 6.356523e+00 -3.708801e+00 -5.304673e+00 -2.825849e-05 -1.183647e-05 4.491673e-05
Ga 6.372296e+00 -3.717521e+00 -1.471244e-01 -6.778417e-05 -2.618954e-05 1.156781e-04
Ga 4.774828e+00 -9.583479e-01 5.025685e+00 2.003850e-05 -2.136943e-05 7.276275e-05
Al 4.768525e+00 -9.652397e-01 -5.307097e+00 4.798421e-06 3.907564e-05 7.563614e-06
Al 4.750127e+00 -9.705486e-01 -1.610211e-01 -8.485677e-05 5.545721e-05 2.054275e-05
Al -3.213792e+00 1.795296e+00 5.017072e+00 -5.998506e-06 -3.832039e-05 3.700568e-05
Al -3.215893e+00 1.794809e+00 -5.297245e+00 9.778579e-05 -4.096193e-05 9.125306e-06
Ga -3.215096e+00 1.796903e+00 -1.553783e-01 -3.094578e-05 -3.795436e-05 1.781540e-04
Ga -2.803666e-02 -3.717526e+00 5.000371e+00 -4.282330e-05 -4.699803e-05 3.738094e-05
Ga -1.818078e-02 -3.726630e+00 -5.300307e+00 -4.192803e-05 -8.825886e-05 1.046733e-04
Al -3.064827e-02 -3.717554e+00 -1.367117e-01 8.241578e-05 3.634296e-05 6.373329e-05
Al -1.618108e+00 -9.645239e-01 5.018384e+00 -9.455317e-05 -9.165515e-08 3.661718e-06
Ga -1.636355e+00 -9.568326e-01 -5.296410e+00 -9.632862e-05 5.216919e-05 1.559699e-04
Ga -1.618685e+00 -9.637348e-01 -1.654279e-01 -7.381990e-05 -3.651492e-06 -1.676766e-04
N 1.572995e+00 8.825134e-01 4.324873e+00 1.046378e-04 -5.624632e-05 3.603731e-06
N 1.575133e+00 8.322887e-01 -5.972786e+00 4.285483e-05 2.830367e-05 2.519185e-05
N 1.570510e+00 8.260242e-01 -8.036542e-01 3.290966e-05 8.474372e-05 1.322419e-05
N -1.956987e-02 3.643966e+00 4.337585e+00 2.159819e-05 5.859568e-05 -4.296421e-05
N -2.208223e-02 3.646931e+00 -5.975492e+00 1.156349e-04 1.928740e-05 -3.953300e-05
N -2.427259e-02 3.645335e+00 -7.636509e-01 1.086509e-04 1.155411e-06 -1.192126e-04
N 3.172427e+00 -1.878544e+00 4.333282e+00 7.967358e-05 2.624990e-05 -6.807361e-05
N 3.168393e+00 -1.830929e+00 -5.898771e+00 -4.080307e-06 -4.641037e-05 -1.524587e-04
N 3.165031e+00 -1.827171e+00 -8.037029e-01 4.875819e-05 -5.672359e-05 5.046708e-05
N -4.772687e+00 9.012202e-01 4.404152e+00 1.281989e-05 -2.747043e-05 -4.457030e-05
N -4.770656e+00 8.583156e-01 -5.883947e+00 -2.656830e-05 -5.496291e-06 -9.652531e-05
N -4.812251e+00 8.308979e-01 -7.640796e-01 4.438751e-05 1.187225e-05 -1.618755e-06
N -6.409485e+00 3.646426e+00 4.339919e+00 5.719766e-05 4.862420e-05 8.843866e-05
N -6.411353e+00 3.643285e+00 -5.933974e+00 6.480383e-05 7.831011e-05 -1.388940e-04
N -6.364630e+00 3.673401e+00 -8.024707e-01 -8.510326e-05 -1.393874e-05 -3.445548e-06
N -3.175615e+00 -1.858360e+00 4.402763e+00 -2.116337e-05 3.819419e-05 -1.002544e-04
N -3.255269e+00 -1.857134e+00 -5.980127e+00 1.570010e-04 -3.598091e-05 1.417170e-05
N -3.263641e+00 -1.858282e+00 -8.055975e-01 1.162766e-04 -2.968908e-05 -2.315753e-05
N -1.654033e+00 8.556500e-01 4.449438e+00 1.803936e-05 1.320546e-05 -1.148726e-04
N -1.663784e+00 9.028290e-01 -5.933080e+00 1.787014e-05 -1.820106e-06 -5.603437e-05
N -1.617903e+00 8.845232e-01 -8.345297e-01 6.586591e-05 -2.623944e-06 -6.751145e-05
N -3.215345e+00 3.601492e+00 4.408561e+00 5.749385e-05 6.654692e-05 -1.131806e-04
N -3.214321e+00 3.595335e+00 -5.916699e+00 2.752960e-06 6.559952e-05 -4.187515e-05
N -3.258271e+00 3.673088e+00 -7.393165e-01 5.074932e-05 -2.698948e-05 -1.173791e-04
N -6.433497e-02 -1.856437e+00 4.338757e+00 1.492132e-04 -4.359923e-05 2.212725e-05
N 1.698452e-02 -1.851130e+00 -5.904252e+00 5.496603e-05 -7.645091e-06 -1.698103e-04
N 2.721361e-02 -1.904684e+00 -7.324512e-01 -6.768396e-06 6.040561e-05 -1.067439e-04
N 1.443489e-02 1.821060e+00 1.840829e+00 -3.003453e-05 -1.519403e-05 9.396326e-05
N 2.534213e-02 1.828972e+00 7.017187e+00 -2.356512e-05 -2.277652e-05 -1.367018e-04
N -1.624054e-02 1.752618e+00 -3.330024e+00 -1.894418e-05 5.961259e-05 -6.353805e-05
N 3.211558e+00 -3.698275e+00 1.841005e+00 5.836693e-06 3.946433e-05 3.506425e-04
N 3.214819e+00 -3.744857e+00 6.999164e+00 -3.569150e-05 2.166576e-05 -7.772343e-05
N 3.169616e+00 -3.674966e+00 -3.325100e+00 -5.408511e-07 -3.055266e-05 -1.454435e-04
N 1.576479e+00 -9.623478e-01 1.796847e+00 9.210868e-06 6.182857e-06 -2.493671e-05
N 1.575574e+00 -9.145652e-01 6.978142e+00 -2.118700e-05 1.609788e-05 -8.730004e-05
N 1.617905e+00 -9.331215e-01 -3.373881e+00 2.366154e-05 3.090125e-05 -3.568568e-06
N 3.125108e+00 1.829196e+00 1.829485e+00 6.388482e-05 -3.465013e-05 -2.396500e-04
N 3.130307e+00 1.774805e+00 6.997364e+00 -4.830620e-05 -1.737960e-05 -5.594662e-05
N 3.123014e+00 1.827864e+00 -3.305257e+00 3.463165e-05 -7.464405e-05 -1.769813e-04
N 6.363651e+00 -3.771959e+00 1.834714e+00 1.855194e-05 6.464839e-05 -1.416932e-04
N 6.317719e+00 -3.701956e+00 7.005879e+00 3.713467e-05 -7.482794e-05 -7.499265e-05
N 6.404217e+00 -3.697165e+00 -3.319893e+00 -8.958939e-05 -3.169538e-05 -5.636596e-05
N 4.723689e+00 -9.899943e-01 1.761520e+00 6.165730e-05 8.950811e-06 -7.222517e-05
N 4.804095e+00 -9.845852e-01 7.000513e+00 -3.202301e-05 -1.933662e-05 -7.848933e-05
N 4.769760e+00 -1.016467e+00 -3.383244e+00 -2.978874e-05 4.581996e-05 4.082179e-06
N -3.208989e+00 1.797390e+00 1.813667e+00 6.354403e-05 4.465650e-05 -2.916326e-04
N -3.220987e+00 1.800036e+00 6.926589e+00 -2.218717e-05 4.211694e-05 -8.328423e-05
N -3.173896e+00 1.782633e+00 -3.381142e+00 -4.489711e-05 4.851360e-05 -6.065211e-05
N -7.001677e-02 -3.703037e+00 1.793498e+00 8.183502e-05 -1.259457e-05 -1.234729e-04
N -2.439847e-02 -3.721761e+00 6.978924e+00 -7.686166e-06 5.092588e-05 -1.011832e-04
N -6.392441e-02 -3.745876e+00 -3.331293e+00 2.922846e-05 5.551533e-05 -9.108654e-05
N -1.582630e+00 -9.810829e-01 1.811628e+00 8.654544e-05 5.248020e-05 1.578636e-04
N -1.657296e+00 -9.923358e-01 6.945477e+00 8.266497e-05 5.269190e-05 -3.492973e-05
N -1.662384e+00 -9.446751e-01 -3.309110e+00 5.583570e-05 7.726492e-05 -1.748603e-04
