108
Energy=-1901479.737501 Lattice="9.575714 0.000000 0.000000 -4.791876 8.290930 0.000000 -0.001821 -0.002114 15.489937" Stress="0.000001 -0.000001 -0.000000 -0.000001 0.000000 -0.000000 -0.000000 -0.000000 -0.000001" Properties=species:S:1:pos:R:3:forces:R:3
Al 1.594455 0.896328 2.414797 -0.000315 -0.000150 0.000461
Al 1.563289 0.901249 7.593644 0.000141 -0.000022 0.000375
Ga 1.582991 0.893816 -2.711642 0.000154 -0.000028 0.000601
Al -0.004740 3.636966 2.427071 0.000043 0.000060 0.000469
Al -0.031955 3.625875 7.625227 0.000046 -0.000046 0.000259
Ga -0.009711 3.643962 -2.753739 0.000036 0.000011 0.000465
Ga 3.170992 -1.873900 2.438740 0.000031 -0.000147 0.000193
Ga 3.181884 -1.887472 7.604907 0.000058 0.000073 0.000261
Ga 3.176080 -1.877029 -2.734785 0.000061 -0.000079 0.000286
Al -4.830483 0.897062 2.433424 0.000099 0.000066 0.000342
Ga -4.821856 0.880192 7.583849 0.000082 -0.000043 0.000463
Al -4.815478 0.891784 -2.721132 0.000067 -0.000041 0.000386
Al -6.426456 3.617430 2.423149 0.000125 -0.000012 0.000201
Ga -6.418762 3.628117 7.591209 0.000153 -0.000016 0.000476
Al -6.418549 3.637632 -2.717432 -0.000008 -0.000014 0.000503
Ga -3.210633 -1.891360 2.430015 0.000140 -0.000065 0.000347
Ga -3.224926 -1.878158 7.597705 0.000097 0.000033 0.000462
Ga -3.215155 -1.893333 -2.724395 0.000005 -0.000115 0.000375
Ga -1.625289 0.882462 2.430140 0.000166 -0.000223 0.000412
Al -1.606203 0.893665 7.589919 0.000088 -0.000117 0.000242
Ga -1.625911 0.890957 -2.715574 0.000352 -0.000088 0.000289
Ga -3.221720 3.628571 2.423710 0.000163 -0.000036 0.000142
Al -3.202516 3.639099 7.608474 -0.000010 -0.000070 0.000261
Ga -3.221771 3.635424 -2.721762 0.000255 -0.000056 0.000164
Ga -0.028940 -1.872045 2.431895 0.000158 -0.000015 0.000285
Ga -0.025676 -1.874229 7.585172 0.000150 -0.000173 0.000249
Ga -0.022295 -1.880782 -2.704905 0.000218 -0.000114 0.000165
Ga -0.009410 1.798176 5.015348 -0.000148 0.000181 0.000415
Al -0.021575 1.814929 -5.342098 -0.000060 0.000078 0.000356
Ga -0.015375 1.800653 -0.124631 -0.000205 -0.000234 0.000374
Ga 3.185350 -3.729840 5.032811 -0.000091 0.000071 0.000358
Al 3.189335 -3.730383 -5.332474 -0.000025 0.000082 0.000176
Ga 3.180874 -3.725306 -0.138224 -0.000229 -0.000087 -0.000194
Ga 1.581741 -0.939999 5.019118 -0.000140 0.000063 0.000197
Ga 1.586112 -0.949059 -5.326399 -0.000228 0.000143 0.000138
Al 1.571974 -0.947735 -0.129933 -0.000217 0.000058 0.000160
Al 3.165440 1.790688 4.988150 0.000047 0.000033 0.000422
Ga 3.159002 1.803498 -5.296820 0.000007 -0.000011 0.000622
Al 3.176623 1.806997 -0.145173 -0.000120 0.000337 -0.000152
Ga 6.361238 -3.726693 5.007578 0.000026 -0.000010 0.000576
Al 6.346355 -3.728425 -5.318968 -0.000051 -0.000025 0.000320
Al 6.375953 -3.734504 -0.136415 0.000066 -0.000025 0.000248
Al 4.771719 -0.946061 4.992460 -0.000049 -0.000079 0.000294
Al 4.768179 -0.968680 -5.291540 -0.000110 0.000003 0.000323
Ga 4.772567 -0.939606 -0.144918 -0.000074 -0.000142 0.000273
Ga -3.229084 1.784946 5.030315 -0.000072 -0.000028 0.000422
Ga -3.206209 1.801340 -5.329535 0.000007 0.000070 0.000422
Al -3.232657 1.787764 -0.142894 0.000028 -0.000056 0.000242
Ga -0.034642 -3.733618 5.007242 -0.000058 -0.000029 0.000161
Ga -0.022044 -3.728648 -5.300138 0.000048 -0.000006 0.000403
Ga -0.042935 -3.727590 -0.144076 -0.000143 0.000003 0.000207
Al -1.631484 -0.956509 5.028899 -0.000071 -0.000012 0.000293
Ga -1.628798 -0.951013 -5.315700 -0.000075 0.000108 0.000357
Al -1.619481 -0.959248 -0.148003 -0.000049 -0.000099 0.000086
N 1.613758 0.905484 4.335773 0.000293 -0.000084 -0.000452
N 1.538468 0.914721 -5.977253 0.000185 0.000041 -0.000379
N 1.615271 0.863088 -0.726683 0.000071 -0.000011 -0.000320
N -0.023364 3.641646 4.335566 0.000029 0.000024 -0.000385
N -0.021531 3.644744 -5.933571 0.000040 -0.000010 -0.000240
N 0.021337 3.666881 -0.770318 0.000120 0.000010 -0.000257
N 3.208082 -1.863559 4.415813 0.000060 -0.000032 -0.000201
N 3.221201 -1.902840 -5.898713 0.000102 -0.000101 -0.000198
N 3.130391 -1.856613 -0.751731 0.000131 -0.000001 -0.000207
N -4.854247 0.864582 4.365304 0.000092 0.000119 -0.000334
N -4.819493 0.830107 -5.926018 0.000118 0.000040 -0.000470
N -4.814948 0.932781 -0.796313 0.000113 -0.000041 -0.000125
N -6.415595 3.591560 4.347958 -0.000025 -0.000006 -0.000362
N -6.450177 3.665960 -5.923210 -0.000066 0.000063 -0.000471
N -6.457986 3.619321 -0.788551 0.000025 -0.000258 -0.000157
N -3.209131 -1.838007 4.419378 -0.000006 0.000038 -0.000394
N -3.260095 -1.903047 -5.901116 0.000041 -0.000060 -0.000347
N -3.175461 -1.913970 -0.732636 0.000007 0.000035 -0.000326
N -1.621883 0.835990 4.411064 0.000216 -0.000046 -0.000400
N -1.575907 0.905798 -5.981781 0.000178 -0.000144 -0.000364
N -1.658932 0.865779 -0.727486 0.000094 0.000029 -0.000375
N -3.212940 3.638520 4.392457 0.000106 -0.000053 -0.000260
N -3.177826 3.672972 -5.962398 0.000003 -0.000095 -0.000298
N -3.215095 3.598341 -0.741171 0.000028 -0.000078 -0.000218
N -0.065381 -1.852549 4.417196 0.000038 -0.000085 -0.000210
N -0.024816 -1.880858 -5.937759 0.000041 -0.000156 -0.000281
N -0.017621 -1.830652 -0.722019 0.000014 -0.000049 -0.000211
N 0.017406 1.821027 1.854616 0.000073 0.000496 -0.000644
N -0.020136 1.807329 7.014972 -0.000113 0.000115 -0.000377
N -0.021631 1.795610 -3.414943 -0.000179 0.000085 -0.000423
N 3.216339 -3.750650 1.832151 0.000011 0.000231 0.000099
N 3.178895 -3.777780 7.019839 -0.000047 0.000089 -0.000242
N 3.170653 -3.728435 -3.410862 -0.000146 0.000104 -0.000281
N 1.574053 -0.914061 1.787583 0.000094 0.000095 -0.000240
N 1.581074 -0.906996 6.998384 -0.000232 0.000046 -0.000273
N 1.573500 -0.953455 -3.356382 -0.000181 0.000121 -0.000333
N 3.174680 1.803028 1.790992 -0.000033 -0.000087 -0.000236
N 3.122992 1.776271 6.914597 -0.000121 0.000044 -0.000511
N 3.208799 1.827776 -3.312454 -0.000009 0.000038 -0.000503
N 6.366200 -3.775446 1.792898 -0.000031 0.000015 -0.000271
N 6.312399 -3.752744 6.988956 -0.000087 0.000009 -0.000374
N 6.408480 -3.749146 -3.398895 0.000031 0.000025 -0.000420
N 4.768298 -0.907731 1.831236 -0.000056 0.000188 -0.000289
N 4.765358 -0.959024 6.902526 -0.000121 0.000003 -0.000384
N 4.771011 -0.909133 -3.367246 -0.000098 0.000041 -0.000327
N -3.264764 1.770108 1.776468 -0.000188 0.000009 -0.000281
N -3.178759 1.824011 7.016880 -0.000029 0.000078 -0.000298
N -3.255272 1.778188 -3.348703 -0.000213 -0.000004 -0.000327
N -0.072414 -3.749915 1.835124 -0.000102 0.000049 -0.000227
N 0.018695 -3.755971 6.988410 -0.000036 0.000021 -0.000333
N -0.063862 -3.747799 -3.314932 -0.000124 0.000009 -0.000256
N -1.621853 -0.960435 1.754170 -0.000185 0.000105 -0.000106
N -1.625966 -0.911946 6.947121 -0.000197 0.000022 -0.000323
N -1.617688 -0.955798 -3.345927 -0.000297 0.000005 -0.000207
