108
Energy=-1.764153e+06 Lattice="9.554708e+00 0.000000e+00 0.000000e+00 -4.777704e+00 8.276089e+00 0.000000e+00 -7.407052e-04 -3.786391e-03 1.545495e+01" Stress="1.956022e-05 -1.521518e-05 4.317965e-06 -2.156829e-05 2.202860e-04 -1.076298e-04 7.702731e-06 -1.195380e-04 -2.965527e-04" Properties=species:S:1:pos:R:3:forces:R:3 Config_type=AlGaN_super3_29_1_26.xyz
Al 1.578413e+00 8.683593e-01 2.400685e+00 3.311636e-06 2.717055e-06 -1.072915e-05
Al 1.549709e+00 8.893355e-01 7.585250e+00 7.109872e-06 4.691148e-07 -9.008297e-07
Al 1.569318e+00 8.914080e-01 -2.700553e+00 -3.975591e-06 1.530594e-06 -4.568751e-07
Al -1.897514e-02 3.651625e+00 2.428506e+00 3.467434e-05 -2.421680e-05 -7.341021e-06
Al -1.865403e-02 3.629831e+00 7.563773e+00 -1.161212e-05 -2.286430e-05 9.479627e-06
Al -1.318081e-02 3.635296e+00 -2.713014e+00 5.680516e-07 -4.526180e-06 2.242582e-06
Al 3.150558e+00 -1.882074e+00 2.407220e+00 1.920806e-06 2.062245e-05 3.736704e-05
Ga 3.171287e+00 -1.886912e+00 7.568319e+00 5.557772e-07 -3.256813e-06 -7.974110e-07
Ga 3.171321e+00 -1.871914e+00 -2.690100e+00 5.036334e-08 -9.464881e-07 9.871109e-06
Al -4.816632e+00 8.786458e-01 2.432302e+00 1.293955e-06 4.788948e-06 1.627962e-05
Ga -4.794480e+00 8.723240e-01 7.568836e+00 1.010894e-05 3.908426e-06 8.046596e-06
Al -4.809328e+00 8.735201e-01 -2.707221e+00 1.221284e-07 -6.625886e-06 1.211718e-05
Ga -6.410261e+00 3.630432e+00 2.400556e+00 -9.350546e-06 -1.107278e-06 -1.662202e-06
Ga -6.416211e+00 3.639433e+00 7.581108e+00 6.745284e-06 -1.015130e-05 8.517415e-06
Ga -6.400879e+00 3.635139e+00 -2.695156e+00 -5.038485e-07 -3.248246e-06 7.799119e-07
Ga -3.210093e+00 -1.893201e+00 2.440490e+00 7.991548e-06 -1.910703e-05 1.126918e-05
Al -3.199703e+00 -1.882854e+00 7.556438e+00 -1.268247e-05 -7.258432e-06 9.446510e-06
Al -3.211208e+00 -1.877355e+00 -2.713388e+00 1.383596e-06 -1.170470e-06 -9.999666e-07
Ga -1.608995e+00 8.762580e-01 2.449714e+00 3.564107e-06 -1.392936e-05 -5.390902e-06
Al -1.605389e+00 8.717776e-01 7.571747e+00 -4.901914e-05 8.170477e-05 5.372946e-05
Ga -1.603604e+00 8.788715e-01 -2.740510e+00 -5.862310e-06 -1.602098e-06 -2.561507e-06
Ga -3.193196e+00 3.646464e+00 2.427791e+00 -5.079454e-06 -9.842826e-06 9.649183e-06
Ga -3.189714e+00 3.629522e+00 7.561064e+00 5.325625e-06 -1.488557e-05 1.282322e-05
Ga -3.207624e+00 3.641718e+00 -2.694266e+00 -4.655471e-06 -5.363447e-06 2.996212e-06
Al -9.227128e-03 -1.868759e+00 2.421178e+00 -4.547040e-06 -2.175099e-06 9.425086e-06
Ga -4.065689e-02 -1.862727e+00 7.589973e+00 8.640708e-06 -1.086896e-05 1.275915e-05
Ga -3.006422e-02 -1.874583e+00 -2.719009e+00 -1.192764e-05 -1.798467e-06 -1.902033e-06
Ga -2.746175e-02 1.810840e+00 5.002218e+00 2.247799e-05 -1.127190e-05 -3.158581e-06
Al -2.011206e-02 1.799366e+00 -5.314593e+00 -5.628161e-07 -1.048926e-05 -2.541556e-06
Ga -1.683095e-03 1.817770e+00 -1.344184e-01 1.311264e-05 -2.444803e-05 1.921138e-05
Al 3.178306e+00 -3.725193e+00 4.984962e+00 2.503801e-05 5.575549e-05 4.249602e-06
Ga 3.168616e+00 -3.732076e+00 -5.292028e+00 8.154348e-06 -8.584312e-06 1.022082e-05
Al 3.172179e+00 -3.714337e+00 -1.337788e-01 -4.861385e-06 1.449132e-06 1.109153e-05
Ga 1.563163e+00 -9.630045e-01 4.981952e+00 1.087668e-05 -6.368637e-06 -1.339976e-06
Ga 1.551647e+00 -9.443407e-01 -5.291916e+00 9.598669e-06 -9.305472e-06 8.998296e-06
Al 1.570275e+00 -9.617060e-01 -1.292558e-01 6.835867e-06 1.706652e-06 -1.181217e-06
Ga 3.157203e+00 1.799371e+00 4.989940e+00 5.164778e-06 -8.042344e-06 6.260943e-06
Ga 3.147944e+00 1.801617e+00 -5.278989e+00 3.098088e-06 -1.092704e-05 7.610443e-06
Al 3.159173e+00 1.794138e+00 -1.468602e-01 -2.892340e-05 -5.291399e-05 -2.862897e-06
Al 6.331238e+00 -3.713759e+00 5.011714e+00 -6.225398e-06 -3.950887e-06 -2.300630e-06
Ga 6.343796e+00 -3.708117e+00 -5.295929e+00 -7.018319e-06 -1.198336e-05 6.613639e-07
Al 6.339010e+00 -3.723147e+00 -1.615311e-01 8.417952e-06 1.899068e-05 5.345416e-06
Ga 4.762112e+00 -9.689733e-01 4.979686e+00 -4.455037e-06 -1.031424e-05 1.770282e-05
Ga 4.777356e+00 -9.614301e-01 -5.283657e+00 2.376093e-06 -6.810448e-07 1.182281e-05
Ga 4.747521e+00 -9.594852e-01 -1.312695e-01 1.477217e-06 -7.381175e-06 1.252605e-05
Al -3.199105e+00 1.792066e+00 5.003314e+00 -6.992220e-06 -1.006749e-05 1.687349e-05
Ga -3.195306e+00 1.799897e+00 -5.295571e+00 1.197809e-05 -1.328924e-05 -1.048468e-05
Ga -3.224285e+00 1.807801e+00 -1.426251e-01 2.192288e-06 -1.142030e-05 1.400171e-05
Ga -2.533344e-02 -3.711531e+00 4.979399e+00 -1.407297e-05 -2.963581e-06 1.403250e-05
Al -2.694310e-02 -3.710241e+00 -5.295374e+00 6.781783e-07 -1.043030e-05 -1.149515e-06
Al -2.147609e-02 -3.710891e+00 -1.228867e-01 1.110929e-05 1.142026e-05 7.735699e-06
Al -1.619637e+00 -9.628055e-01 5.010432e+00 1.462962e-06 -8.028512e-06 -5.362415e-06
Al -1.618841e+00 -9.583084e-01 -5.311267e+00 1.128948e-06 5.992474e-06 -2.666286e-06
Ga -1.606510e+00 -9.797744e-01 -1.415534e-01 1.835237e-06 -8.565824e-06 1.107194e-05
N 1.566151e+00 8.793053e-01 4.308230e+00 -3.305518e-06 6.873053e-06 1.953179e-06
N 1.529047e+00 9.078994e-01 -5.957340e+00 -1.358332e-06 1.301057e-05 -2.312286e-06
N 1.606650e+00 8.542733e-01 -7.731123e-01 1.933780e-05 2.224440e-05 3.743477e-06
N -1.727587e-02 3.687812e+00 4.352979e+00 -1.860893e-05 7.812211e-06 4.785019e-05
N -2.027222e-02 3.594327e+00 -5.969468e+00 1.909003e-06 8.690323e-06 -5.651229e-06
N -2.583620e-02 3.683110e+00 -7.934649e-01 -2.845688e-06 6.880041e-06 -7.458755e-06
N 3.155409e+00 -1.931275e+00 4.330671e+00 -7.068788e-06 2.294612e-06 -1.643467e-05
N 3.163496e+00 -1.877534e+00 -5.912628e+00 -4.607341e-06 7.530059e-06 -1.207549e-05
N 3.119795e+00 -1.902053e+00 -7.111084e-01 -1.985920e-06 2.134165e-06 -1.619923e-05
N -4.761454e+00 9.072422e-01 4.348053e+00 -4.206107e-06 1.322990e-06 -1.842065e-05
N -4.801807e+00 8.830701e-01 -5.920376e+00 -5.545838e-06 2.223193e-06 -6.186463e-06
N -4.843295e+00 9.005276e-01 -7.980570e-01 1.640286e-06 1.076810e-05 -7.748663e-06
N -6.445232e+00 3.663076e+00 4.381392e+00 5.707901e-06 8.347891e-06 -5.147519e-06
N -6.358067e+00 3.662497e+00 -5.896151e+00 1.019000e-06 1.029448e-05 8.139217e-07
N -6.388378e+00 3.638876e+00 -6.985059e-01 -3.987629e-06 1.890951e-05 -4.217638e-06
N -3.160860e+00 -1.910949e+00 4.415339e+00 2.236471e-06 1.214779e-05 -5.881171e-06
N -3.164613e+00 -1.856025e+00 -5.975790e+00 -1.886911e-06 4.134313e-06 -6.569873e-07
N -3.207478e+00 -1.921978e+00 -7.973985e-01 -2.036506e-06 7.205753e-06 -9.139849e-06
N -1.652040e+00 8.518237e-01 4.425157e+00 -9.480342e-06 7.869334e-06 1.285468e-05
N -1.570737e+00 8.564311e-01 -5.940520e+00 1.215595e-07 -6.069265e-06 -7.033388e-06
N -1.606748e+00 8.811288e-01 -7.675520e-01 -3.305557e-06 1.094138e-05 -4.634161e-06
N -3.161493e+00 3.612033e+00 4.412140e+00 -1.849682e-05 -2.442086e-05 -1.552542e-05
N -3.246406e+00 3.663938e+00 -5.914072e+00 -5.446120e-06 1.301172e-05 -2.229482e-06
N -3.207295e+00 3.692683e+00 -7.126316e-01 2.967364e-06 7.354049e-06 -6.231442e-06
N -6.674245e-02 -1.850715e+00 4.336797e+00 -8.730980e-06 1.453941e-05 1.905869e-06
N -6.657150e-02 -1.899115e+00 -5.882960e+00 -2.495497e-06 6.412157e-06 -4.274267e-06
N 2.221577e-02 -1.904927e+00 -7.383389e-01 -7.188076e-06 7.886474e-06 -1.740848e-06
N 1.835287e-02 1.829915e+00 1.847967e+00 -8.499396e-06 8.592460e-06 -1.181663e-05
N -2.371847e-02 1.799011e+00 6.994341e+00 4.837320e-05 5.584130e-05 -1.651659e-05
N 2.748700e-02 1.828828e+00 -3.371726e+00 3.706415e-06 4.384444e-06 -5.608037e-06
N 3.211443e+00 -3.699353e+00 1.786121e+00 -2.480665e-05 9.745633e-06 -2.338572e-05
N 3.210766e+00 -3.743212e+00 6.904915e+00 1.486917e-05 -1.744982e-05 -2.201694e-05
N 3.206414e+00 -3.741799e+00 -3.317268e+00 -1.393269e-06 3.254814e-06 -4.258933e-06
N 1.567111e+00 -9.596546e-01 1.801131e+00 -4.844752e-06 -1.238319e-05 -1.822673e-06
N 1.566767e+00 -9.114847e-01 6.965530e+00 -1.777661e-06 -6.250780e-06 -6.537110e-07
N 1.570853e+00 -9.044520e-01 -3.316883e+00 2.606744e-06 -1.061319e-06 9.697073e-07
N 3.163854e+00 1.745704e+00 1.776506e+00 3.610498e-06 2.718377e-06 -7.171412e-06
N 3.115016e+00 1.771228e+00 6.965791e+00 -9.178747e-06 5.021311e-06 -3.702389e-06
N 3.157046e+00 1.753489e+00 -3.296141e+00 1.974960e-06 5.674459e-06 -3.818955e-06
N 6.297806e+00 -3.738596e+00 1.750124e+00 -6.605940e-06 -1.376675e-06 -1.177940e-05
N 6.300201e+00 -3.698310e+00 6.937090e+00 -4.961388e-06 -2.801804e-07 -1.573965e-05
N 6.305046e+00 -3.691119e+00 -3.307992e+00 -5.128863e-07 1.982728e-06 1.834688e-06
N 4.717453e+00 -9.358047e-01 1.853128e+00 -1.285184e-06 -1.415278e-08 -2.097755e-05
N 4.794644e+00 -9.855962e-01 6.952666e+00 4.602945e-06 3.961863e-06 -7.376521e-06
N 4.797853e+00 -9.368799e-01 -3.297458e+00 -3.530666e-06 5.315114e-06 -9.495275e-06
N -3.249860e+00 1.771434e+00 1.827607e+00 8.832781e-06 3.096988e-06 -1.681588e-05
N -3.163674e+00 1.769502e+00 6.922220e+00 -5.718639e-06 5.284284e-06 -1.106890e-05
N -3.249553e+00 1.779329e+00 -3.317874e+00 -3.481670e-08 3.925866e-06 -6.188265e-06
N -2.129943e-02 -3.670376e+00 1.791248e+00 8.339268e-06 -3.023382e-06 -6.176377e-06
N -2.542935e-02 -3.715060e+00 6.947197e+00 -4.012676e-07 1.247597e-06 -6.137392e-06
N -2.444746e-02 -3.720870e+00 -3.384491e+00 5.336626e-06 -2.003860e-06 9.253599e-07
N -1.578237e+00 -9.844099e-01 1.823717e+00 -6.404619e-07 7.788471e-06 -1.082890e-05
N -1.653719e+00 -9.363726e-01 6.934288e+00 -7.134279e-06 -7.443869e-05 -3.162954e-05
N -1.661928e+00 -9.845114e-01 -3.387627e+00 8.668013e-06 -4.585561e-06 9.078896e-07
