108
Energy=-528214.247129 Lattice="9.443677 0.000000 0.000000 -4.735640 8.169099 0.000000 -0.023788 -0.003023 15.145549" Stress="0.000039 0.000000 -0.000003 0.000000 0.000073 -0.000000 -0.000003 -0.000000 0.000071" Properties=species:S:1:pos:R:3:forces:R:3
Al 1.537740 0.869340 2.375357 0.002033 -0.006413 0.000353
Al 1.537641 0.878400 7.421963 0.001123 -0.006783 -0.001925
Al 1.562531 0.877616 -2.688853 -0.000051 -0.006713 0.000261
Al -0.030353 3.586327 2.377273 -0.001446 -0.001775 0.001910
Al -0.029773 3.588311 7.422171 -0.000942 0.000036 -0.000867
Al -0.008174 3.596123 -2.686861 -0.000574 -0.000789 0.001559
Al 3.141555 -1.866639 2.359924 -0.036172 -0.019581 0.019535
Al 3.138929 -1.866796 7.422085 -0.000655 -0.000199 -0.001586
Al 3.155515 -1.865381 -2.686145 -0.000245 -0.000026 0.000629
Al -4.768054 0.872613 2.364954 -0.003926 -0.000162 0.011640
Al -4.772974 0.882495 7.423435 0.001457 -0.006374 -0.002280
Al -4.750162 0.887092 -2.694875 0.001786 -0.004341 -0.000392
Al -6.343142 3.592833 2.367837 -0.017730 -0.014072 0.015144
Al -6.338756 3.593183 7.424113 0.000099 -0.000343 -0.001448
Al -6.321925 3.592083 -2.684695 0.001219 0.001014 0.000250
Al -3.191763 -1.871474 2.408641 -0.000189 0.000450 0.000237
Al -3.171209 -1.862699 7.424519 -0.000110 0.000303 -0.001296
Al -3.143726 -1.861522 -2.685973 -0.000603 0.000635 -0.000181
Al -1.646642 0.882015 2.378651 0.009274 -0.002987 0.000084
Al -1.641439 0.887656 7.424198 0.007403 -0.004043 -0.002771
Al -1.622917 0.886389 -2.690050 0.008490 -0.004266 -0.001114
Al -3.206741 3.598569 2.366917 0.014982 -0.005471 0.012088
Al -3.208634 3.598465 7.423342 0.006842 0.001941 -0.002406
Al -3.181468 3.597162 -2.686206 0.005195 0.003043 -0.001003
Al -0.053263 -1.866605 2.409951 0.007056 0.002341 -0.000810
Al -0.039097 -1.857552 7.424708 0.006769 0.002651 -0.002297
Al -0.017084 -1.849484 -2.687048 0.006428 0.000987 -0.001516
Al -0.027509 1.778944 4.901102 -0.005876 -0.002828 -0.002284
Al -0.003809 1.781972 -5.205833 -0.006319 -0.002624 -0.001277
Al -0.012071 1.780811 -0.193137 -0.005761 -0.002374 0.012906
Al 3.141829 -3.676053 4.902507 -0.008683 -0.000905 -0.000873
Al 3.164114 -3.673943 -5.205647 -0.006323 -0.002094 -0.001537
Al 3.162067 -3.677038 -0.132396 -0.004981 -0.002096 -0.011673
Al 1.577718 -0.962388 4.907508 -0.005111 0.002651 -0.001887
Al 1.597684 -0.963145 -5.206013 -0.007707 0.004512 -0.002649
Al 1.589398 -0.959642 -0.131491 -0.008214 0.004967 -0.010213
Al 3.107736 1.782255 4.900463 0.001407 0.001116 -0.000619
Al 3.127006 1.786106 -5.208518 0.000009 -0.000705 -0.001242
Al 3.130522 1.774030 -0.143738 -0.009467 0.005945 -0.003099
Al 6.275249 -3.677043 4.909317 0.001819 -0.002532 0.000278
Al 6.296208 -3.670264 -5.205587 -0.000084 -0.000078 -0.000590
Al 6.292460 -3.674325 -0.133886 -0.002874 -0.000021 -0.006353
Al 4.709942 -0.965873 4.907528 -0.004151 0.007622 -0.005986
Al 4.729133 -0.960133 -5.204640 -0.001474 0.006775 -0.002259
Ga 4.729821 -0.930056 -0.156656 -0.004370 0.001867 0.013948
Al -3.206632 1.789014 4.900538 -0.001335 0.002094 -0.000216
Al -3.181818 1.791208 -5.210256 0.000506 -0.000219 -0.001291
Al -3.195426 1.779300 -0.154358 0.015297 0.009411 0.000531
Al -0.036615 -3.662262 4.905439 0.000531 -0.002415 -0.006293
Al -0.013920 -3.665298 -5.204070 0.000579 0.000380 -0.000225
Ga -0.015986 -3.666893 -0.153891 -0.000903 -0.001177 0.016507
Al -1.603777 -0.954414 4.913247 -0.001239 0.007025 -0.000442
Al -1.580548 -0.954375 -5.207455 -0.000769 0.006933 -0.001841
Al -1.577891 -0.950936 -0.137661 -0.002757 0.007261 -0.005426
N 1.541424 0.876177 4.303820 0.000156 -0.006632 -0.001438
N 1.560171 0.881187 -5.804780 0.000634 -0.006765 0.001934
N 1.560897 0.876606 -0.761488 0.001407 -0.006740 -0.000160
N -0.029637 3.591486 4.305022 -0.000120 -0.000017 -0.002775
N -0.006157 3.592412 -5.803832 -0.000477 -0.000288 0.000785
N -0.010025 3.597245 -0.758194 -0.000264 -0.000360 -0.001615
N 3.141239 -1.867694 4.296572 -0.005433 -0.002183 0.002797
N 3.162036 -1.864306 -5.804368 -0.000469 0.000492 0.000895
N 3.142349 -1.865736 -0.757256 -0.008545 -0.004199 -0.004534
N -4.770280 0.881051 4.298021 0.002324 -0.004100 0.001956
N -4.750024 0.884793 -5.804187 0.001325 -0.006954 0.002479
N -4.736411 0.964963 -0.752282 -0.007534 -0.018726 -0.010280
N -6.338044 3.593569 4.299893 -0.005610 -0.002192 0.003262
N -6.316058 3.596689 -5.803732 0.000143 -0.000001 0.001091
N -6.335786 3.581146 -0.760132 -0.010308 -0.003509 -0.002417
N -3.164164 -1.872781 4.318773 0.001114 0.001827 -0.000053
N -3.148468 -1.860390 -5.803503 -0.000223 0.000597 0.001122
N -3.131792 -1.864526 -0.758907 0.007027 -0.004080 -0.002279
N -1.646802 0.886126 4.306289 0.008344 -0.005417 -0.000387
N -1.617623 0.890212 -5.804100 0.007827 -0.004581 0.003273
N -1.627381 0.885193 -0.766035 0.007645 -0.004890 0.002542
N -3.207317 3.601206 4.298254 0.011651 -0.000243 0.003377
N -3.184631 3.601966 -5.804219 0.006253 0.002172 0.002105
N -3.169867 3.586937 -0.763741 0.015930 -0.001036 -0.000539
N -0.040678 -1.843556 4.318998 0.006388 0.003902 0.001543
N -0.016253 -1.855481 -5.803184 0.006202 0.002568 0.001827
N -0.017982 -1.833471 -0.762498 0.005493 0.011511 -0.000215
N -0.025958 1.773227 1.806066 -0.007237 -0.003079 -0.014079
N -0.026888 1.778987 6.823784 -0.006291 -0.002885 0.000561
N -0.004417 1.781700 -3.283612 -0.006287 -0.002542 0.002422
N 3.146331 -3.677047 1.744781 -0.008936 -0.003684 0.011288
N 3.140551 -3.677087 6.824119 -0.005865 -0.002362 0.002277
N 3.162573 -3.674497 -3.286686 -0.006228 -0.001896 0.001698
N 1.566844 -0.981633 1.752034 -0.011537 0.004110 0.011879
N 1.576350 -0.964769 6.826750 -0.008216 0.004547 0.003114
N 1.596208 -0.963063 -3.288247 -0.007555 0.004471 0.002802
N 3.104837 1.777648 1.747716 0.000319 -0.001961 0.007048
N 3.106125 1.783762 6.823670 -0.000208 -0.000831 0.000560
N 3.125953 1.785890 -3.291379 0.000727 -0.001279 0.001834
N 6.263687 -3.671803 1.763159 0.002113 0.001232 0.004701
N 6.274131 -3.674975 6.827291 -0.000570 0.000601 0.001082
N 6.295785 -3.670610 -3.286352 -0.000238 0.000392 0.000788
N 4.609909 -0.993830 1.956853 0.052800 0.029657 -0.040497
N 4.706265 -0.962012 6.826461 -0.000745 0.006717 0.001508
N 4.728838 -0.960723 -3.285342 -0.001303 0.007600 0.004844
N -3.203935 1.787292 1.748165 0.000727 -0.005099 0.004825
N -3.206346 1.788622 6.823831 0.001013 -0.000738 0.000488
N -3.181815 1.790428 -3.293151 0.000071 -0.000879 0.001300
N -0.062653 -3.731667 1.982911 0.014209 0.029681 -0.043798
N -0.037329 -3.668335 6.825394 0.000342 0.000784 0.000254
N -0.015099 -3.666218 -3.281341 0.000283 0.000186 0.001058
N -1.626238 -0.968835 1.766356 0.000812 0.006114 0.006458
N -1.603595 -0.955956 6.829561 -0.001097 0.006777 0.001762
N -1.580546 -0.954599 -3.289351 -0.001246 0.006652 0.001835
