108
Energy=-1489500.248902 Lattice="9.526192 0.000000 0.000000 -4.769374 8.250130 0.000000 -0.000025 0.011979 15.376661" Stress="0.000005 -0.000002 0.000001 -0.000002 0.000006 0.000003 0.000001 0.000003 0.000010" Properties=species:S:1:pos:R:3:forces:R:3
Al 1.578032 0.867083 2.406337 -0.005265 0.003981 -0.003670
Al 1.585737 0.857036 7.520070 -0.009903 0.002330 0.002222
Al 1.552087 0.859692 -2.694391 0.000169 -0.000388 0.000640
Al -0.037386 3.611705 2.403651 0.001641 0.001456 -0.002587
Al -0.023783 3.633000 7.547800 0.000590 -0.001838 0.000853
Al -0.035773 3.621036 -2.708175 -0.001986 0.000371 -0.000446
Al 3.161068 -1.861538 2.420149 -0.004007 -0.003720 -0.000989
Al 3.141527 -1.863995 7.534637 0.002315 0.002746 -0.000011
Al 3.134428 -1.883744 -2.713521 0.000478 -0.002177 -0.000214
Al -4.804906 0.883775 2.420113 0.001091 0.000101 0.000295
Al -4.787860 0.880674 7.528441 0.001249 -0.001104 0.000455
Ga -4.797421 0.872597 -2.699371 0.000713 0.000384 0.000388
Al -6.368316 3.607478 2.403639 -0.000422 0.000894 -0.001510
Ga -6.384993 3.627940 7.554521 -0.000084 0.000369 0.000307
Ga -6.392101 3.617366 -2.696306 0.000663 0.000184 0.000027
Ga -3.208339 -1.868158 2.422625 0.001625 -0.001281 -0.000203
Ga -3.204645 -1.865471 7.554432 0.000283 0.000533 -0.000149
Ga -3.188980 -1.878380 -2.719275 0.000252 0.000045 -0.000626
Ga -1.604526 0.902925 2.412229 0.002047 -0.000649 0.001999
Ga -1.609672 0.899155 7.540378 0.001897 -0.000274 -0.000126
Al -1.600906 0.872127 -2.715160 0.000611 -0.000415 0.000806
Al -3.202871 3.635513 2.400760 0.001470 0.001036 -0.001203
Ga -3.190641 3.635013 7.554584 0.000522 -0.001491 0.000783
Ga -3.181787 3.634935 -2.708973 0.000577 -0.000056 0.000979
Ga -0.000889 -1.873208 2.387565 0.000334 -0.000287 0.001002
Al 0.005029 -1.846534 7.551764 -0.000159 0.000314 0.000872
Al -0.011353 -1.848862 -2.697320 -0.000013 -0.001799 0.000040
Al -0.014100 1.798506 4.976073 -0.002249 -0.000810 0.001334
Ga -0.023262 1.794662 -5.259903 -0.000362 -0.000596 -0.000219
Al -0.021578 1.785259 -0.181821 -0.000232 0.000211 0.002559
Ga 3.165467 -3.702663 4.963074 -0.000109 0.000038 0.000555
Al 3.168661 -3.705505 -5.280932 -0.000436 -0.000135 0.001324
Al 3.151312 -3.702654 -0.144243 -0.000654 -0.000293 0.003222
Al 1.581407 -0.943160 4.975047 -0.001581 -0.000945 0.000414
Al 1.564272 -0.971455 -5.267831 -0.000524 0.003658 -0.000232
Al 1.566446 -0.961099 -0.172561 -0.000553 0.001308 0.003970
Ga 3.147581 1.777339 4.967869 0.000402 0.000251 0.000309
Ga 3.144697 1.779927 -5.285578 -0.000275 -0.000880 0.000904
Al 3.131104 1.785970 -0.125253 -0.001050 -0.000011 0.002613
Ga 6.319172 -3.711045 4.963025 0.000124 -0.000086 0.000182
Al 6.314312 -3.708632 -5.260782 -0.000228 -0.000637 -0.000093
Ga 6.320893 -3.723166 -0.143744 0.000081 -0.000343 0.005923
Al 4.729962 -0.937624 4.979786 0.000009 0.000559 0.001145
Ga 4.735173 -0.967050 -5.277784 -0.000635 0.000518 -0.000230
Ga 4.718081 -0.963147 -0.143359 -0.000050 -0.000371 0.000731
Al -3.220796 1.814747 4.952211 0.006461 -0.008264 0.001535
Al -3.194481 1.784159 -5.263221 -0.000293 0.000049 0.000767
Ga -3.198571 1.797062 -0.133068 0.000507 0.000336 -0.001313
Ga -0.006277 -3.699793 4.973531 -0.000652 0.000542 0.000850
Ga -0.014414 -3.688092 -5.263589 -0.000046 -0.000111 0.000167
Al -0.019818 -3.698997 -0.151983 -0.000018 0.000197 0.002889
Ga -1.596637 -0.936969 4.989741 -0.000785 0.001394 -0.000023
Al -1.593039 -0.957248 -5.265540 -0.000662 0.000464 -0.000016
Al -1.588619 -0.952996 -0.170548 -0.000663 0.001094 0.002619
N 1.522037 0.853930 4.336875 -0.000647 -0.000567 -0.001316
N 1.554281 0.829159 -5.936249 0.000924 -0.005246 0.000951
N 1.563496 0.871850 -0.765505 0.000703 -0.000821 -0.000702
N -0.028209 3.576780 4.310039 -0.000505 -0.000468 0.000288
N -0.025253 3.663040 -5.904574 -0.000005 0.001210 -0.001043
N -0.076328 3.607101 -0.788031 -0.000414 -0.000095 0.000110
N 3.155373 -1.821877 4.344992 0.000077 0.000481 -0.000647
N 3.106924 -1.899744 -5.913333 -0.000370 0.000070 -0.000982
N 3.109318 -1.906744 -0.791948 -0.000563 -0.000063 -0.000864
N -4.753780 0.859777 4.340657 0.000276 -0.000611 -0.000940
N -4.744336 0.896725 -5.927027 0.001004 -0.000113 -0.001241
N -4.835520 0.901567 -0.735547 0.000195 0.000211 0.000010
N -6.369374 3.626293 4.313882 0.000343 -0.000327 -0.000207
N -6.416983 3.648587 -5.854841 -0.000348 0.000970 -0.000383
N -6.344253 3.596690 -0.719923 0.000981 -0.000223 0.000567
N -3.233679 -1.838662 4.393832 -0.000463 0.000329 -0.000110
N -3.154301 -1.898780 -5.839558 0.000766 0.000063 0.000545
N -3.160519 -1.855572 -0.748976 0.000436 0.000507 0.000947
N -1.605009 0.932980 4.394239 -0.002187 0.002182 0.000971
N -1.652135 0.857086 -5.853276 0.000581 -0.000853 -0.000102
N -1.584002 0.855816 -0.789491 0.001295 -0.000874 -0.001144
N -3.197833 3.588153 4.320003 -0.000236 0.004059 -0.001701
N -3.160683 3.597458 -5.839837 0.000927 -0.000080 -0.000259
N -3.202178 3.672176 -0.728175 0.001035 0.000659 -0.000264
N 0.024021 -1.842786 4.361564 0.001912 0.000339 -0.000099
N -0.015017 -1.823715 -5.902460 0.000802 0.000657 -0.000950
N -0.021245 -1.871525 -0.765799 0.000989 -0.000331 -0.000526
N 0.011848 1.821652 1.745425 0.004515 -0.003652 0.001727
N 0.019909 1.830628 6.908079 0.003614 -0.001837 -0.000237
N -0.017585 1.790474 -3.268737 -0.000471 0.000058 0.000225
N 3.161228 -3.694222 1.803506 -0.000823 -0.000658 -0.001356
N 3.201595 -3.674880 6.949269 -0.000209 -0.000847 -0.000475
N 3.199136 -3.686980 -3.357622 0.001242 0.001470 0.000015
N 1.618767 -0.938988 1.762945 0.000495 0.002178 -0.002465
N 1.575939 -0.957156 6.906075 -0.000493 0.000572 -0.000791
N 1.567591 -0.960038 -3.323390 -0.000669 0.000870 -0.001500
N 3.147448 1.787269 1.813709 -0.000232 -0.000777 -0.002364
N 3.148895 1.751456 6.955870 0.003134 0.000886 -0.002274
N 3.102701 1.761283 -3.314293 -0.000862 -0.000628 -0.000709
N 6.331841 -3.753290 1.855810 -0.001625 -0.000227 -0.005418
N 6.291428 -3.722794 6.933508 -0.000413 -0.000307 -0.000516
N 6.283751 -3.739907 -3.347688 -0.000100 0.000318 -0.000345
N 4.697508 -0.934839 1.833997 0.000850 0.002741 -0.000829
N 4.701367 -0.926613 6.911458 -0.002031 -0.000148 0.000473
N 4.696031 -0.984170 -3.306610 -0.001120 -0.000230 -0.000147
N -3.240871 1.816442 1.833819 -0.001754 0.000346 0.002044
N -3.239752 1.784538 6.875204 -0.002145 0.000803 -0.001071
N -3.164603 1.767288 -3.344398 0.000109 -0.000629 -0.000818
N -0.020800 -3.748235 1.780743 0.000126 -0.000837 -0.002946
N -0.016010 -3.652384 6.954687 -0.000208 0.000627 -0.000637
N -0.023440 -3.658721 -3.292934 -0.000185 0.002091 0.000652
N -1.606511 -0.947353 1.749294 -0.000640 0.000039 -0.003072
N -1.562875 -0.970770 6.954937 -0.000116 -0.000392 0.000585
N -1.560717 -0.936815 -3.340392 0.000292 0.000703 -0.000478
