108
Energy=-2633887.737486 Lattice="9.665849 0.000000 0.000000 -4.843495 8.355501 0.000000 0.062062 -0.117868 15.684066" Stress="-0.000023 0.000003 0.000012 0.000003 -0.000017 -0.000021 0.000012 -0.000021 -0.000013" Properties=species:S:1:pos:R:3:forces:R:3
Al 1.615411 0.821005 2.479772 -0.000294 0.000431 -0.000630
Ga 1.621297 0.827040 7.675495 0.001129 -0.001436 0.000689
Ga 1.557243 0.956984 -2.752789 0.001092 -0.002154 -0.000409
Al 0.010242 3.582033 2.470814 0.000245 0.000209 -0.000578
Ga 0.009586 3.601582 7.688425 0.000282 -0.000128 0.000660
Ga -0.045356 3.725739 -2.751594 0.000384 -0.000350 -0.000362
Ga 3.241021 -1.978377 2.473720 -0.000433 0.000273 -0.000599
Ga 3.240903 -1.967288 7.689511 0.000272 -0.000300 0.000303
Ga 3.178678 -1.841611 -2.754998 0.000608 -0.000716 -0.000505
Ga -4.835792 0.819018 2.481894 0.000813 -0.000191 -0.000897
Ga -4.835362 0.830077 7.680970 0.000163 -0.001337 0.000086
Ga -4.894789 0.960420 -2.753342 0.000637 -0.002150 -0.000938
Ga -6.451912 3.584539 2.477593 0.000004 0.001404 -0.000020
Ga -6.440155 3.600991 7.675529 0.000015 -0.000363 0.000585
Al -6.502116 3.731653 -2.761992 0.000255 -0.000316 0.000163
Ga -3.201946 -1.964111 2.452905 0.000693 -0.000310 0.000585
Ga -3.203403 -1.964601 7.690726 0.000018 -0.000447 0.000440
Ga -3.255923 -1.844816 -2.744746 -0.000403 -0.000654 -0.000255
Al -1.599860 0.820734 2.469751 0.001899 0.001564 -0.002415
Ga -1.609656 0.828990 7.686032 0.002248 -0.001170 -0.000339
Ga -1.671045 0.947690 -2.733799 0.002335 -0.001101 0.000861
Ga -3.210114 3.593404 2.470696 0.000912 0.001553 -0.000678
Ga -3.221126 3.610048 7.693273 0.001447 0.000205 -0.000371
Ga -3.290769 3.733577 -2.751924 0.001926 -0.000036 -0.001376
Ga -0.000629 -1.945699 2.443118 0.001039 0.000153 0.002113
Ga 0.011098 -1.959257 7.690622 0.001857 -0.000241 0.000041
Ga -0.058688 -1.839915 -2.747423 0.002599 -0.000414 -0.001610
Ga 0.018677 1.743244 5.041802 -0.001625 0.000122 0.000320
Ga -0.051468 1.866227 -5.373790 -0.001695 0.000186 0.000430
Ga -0.051698 1.871187 -0.107737 -0.001627 -0.004477 0.002351
Ga 3.249187 -3.831379 5.071625 -0.001148 -0.000256 -0.000127
Ga 3.183043 -3.703653 -5.370768 -0.001532 -0.000047 -0.000399
Ga 3.184586 -3.691371 -0.133803 0.000532 -0.004787 0.002619
Ga 1.637084 -1.034340 5.066248 -0.002703 0.001915 -0.000961
Ga 1.572223 -0.919237 -5.372253 -0.002220 0.001416 -0.000848
Ga 1.564166 -0.903815 -0.134310 0.000512 -0.002177 0.002178
Al 3.223055 1.743934 5.064806 -0.000741 0.000037 0.000579
Ga 3.164655 1.875886 -5.369712 -0.000175 0.000015 0.000661
Ga 3.161997 1.889679 -0.145596 0.001486 -0.004355 0.002340
Ga 6.460031 -3.832566 5.064201 -0.000248 0.000281 -0.000016
Ga 6.404227 -3.703541 -5.365517 -0.000319 0.000378 0.000284
Ga 6.407710 -3.691079 -0.144790 0.000780 -0.004403 0.002314
Ga 4.848899 -1.036380 5.080154 -0.000473 0.001750 -0.000835
Ga 4.790433 -0.917577 -5.371472 -0.000539 0.001601 -0.000456
Ga 4.798631 -0.904273 -0.141359 0.001195 -0.002848 0.001825
Ga -3.221789 1.745691 5.065557 -0.000427 0.000169 0.000151
Ga -3.279652 1.872443 -5.373977 -0.000363 0.000360 0.000793
Ga -3.275805 1.874532 -0.127126 0.003051 -0.004567 0.002521
Ga 0.009932 -3.826168 5.072679 -0.000385 0.000828 -0.000263
Ga -0.053273 -3.699518 -5.366532 0.000033 0.000410 0.000258
Ga -0.059346 -3.683941 -0.159993 0.001546 -0.005554 0.002997
Ga -1.595947 -1.033705 5.064007 -0.000606 0.001639 0.000896
Ga -1.656657 -0.913071 -5.372943 -0.000856 0.001624 0.000381
Al -1.646623 -0.919682 -0.135869 -0.002505 0.002673 0.001814
N 1.657322 0.841169 4.406057 0.003039 -0.000419 -0.000994
N 1.557982 0.946617 -6.021191 0.000865 -0.001699 -0.000251
N 1.550949 0.957647 -0.777792 0.001400 -0.002451 0.000621
N 0.008177 3.603889 4.389223 0.000086 0.000038 -0.001908
N -0.051308 3.726257 -6.012030 0.000281 -0.000230 -0.000305
N -0.053786 3.730961 -0.774263 0.001008 -0.001472 0.000498
N 3.241825 -1.970567 4.443065 0.000172 -0.000073 0.000504
N 3.178800 -1.844701 -6.013988 0.000370 -0.000328 -0.000091
N 3.177390 -1.831992 -0.778369 0.000653 -0.001248 0.001402
N -4.868620 0.842424 4.459628 -0.001397 0.000028 0.001341
N -4.894948 0.949186 -6.016907 0.000634 -0.001551 -0.000199
N -4.891072 0.960054 -0.778184 0.001052 -0.002087 0.001056
N -6.438417 3.560715 4.457104 -0.000018 -0.002389 0.001081
N -6.500857 3.727153 -6.024892 0.000077 -0.000089 -0.000394
N -6.503454 3.737691 -0.837649 0.000826 -0.001191 -0.000952
N -3.205509 -1.964545 4.432609 0.000007 -0.000355 -0.000261
N -3.266582 -1.844461 -6.011003 0.000148 -0.000350 -0.000294
N -3.225277 -1.816038 -0.758388 0.002474 0.000501 0.000928
N -1.614056 0.822783 4.387623 0.002112 -0.001072 -0.001059
N -1.672912 0.950213 -6.018204 0.002078 -0.001403 -0.000108
N -1.667975 0.909283 -0.741414 0.002654 -0.003791 -0.001612
N -3.220560 3.608850 4.441176 0.001073 0.000188 0.000627
N -3.284655 3.733504 -6.008943 0.001365 -0.000002 0.000029
N -3.281375 3.739922 -0.775890 0.001879 -0.001043 0.001588
N 0.008536 -1.961093 4.426810 0.001816 -0.000279 0.000180
N -0.050423 -1.839949 -6.011798 0.001757 -0.000273 0.000041
N -0.085325 -1.809195 -0.766566 0.001392 0.000073 0.002847
N 0.012851 1.732478 1.902109 -0.002439 0.005406 -0.001493
N 0.011401 1.746253 7.030689 -0.001906 -0.000059 -0.000490
N -0.053725 1.868021 -3.393066 -0.002055 0.000078 -0.000427
N 3.284086 -3.859202 1.855316 -0.002124 0.003607 -0.003052
N 3.246091 -3.828091 7.050756 -0.001600 0.000021 0.000108
N 3.183022 -3.702998 -3.392829 -0.001609 -0.000075 0.000550
N 1.637875 -1.000920 1.857743 -0.004837 0.006123 -0.002080
N 1.633726 -1.040596 7.046147 -0.002164 0.001139 0.000313
N 1.569624 -0.917010 -3.392562 -0.002380 0.001445 0.001026
N 3.190023 1.717263 1.841353 -0.003860 0.003449 -0.001348
N 3.225505 1.748017 6.994370 -0.000012 0.000105 -0.002565
N 3.165149 1.917410 -3.382312 -0.000073 0.002502 0.000528
N 6.426463 -3.855519 1.847517 -0.003386 0.003720 -0.001779
N 6.457975 -3.823104 7.045157 0.000045 0.000352 -0.000485
N 6.436600 -3.718343 -3.376364 0.001826 -0.000902 0.000395
N 4.847225 -1.046451 1.837363 -0.002530 0.005696 -0.002716
N 4.852529 -1.039404 7.055722 -0.000514 0.001410 0.000220
N 4.793870 -0.915202 -3.389494 -0.000304 0.001674 0.000626
N -3.180619 1.716045 1.864056 -0.002055 0.004100 -0.002985
N -3.216724 1.751102 7.046424 -0.000341 0.000267 -0.000145
N -3.276046 1.873744 -3.390744 -0.000014 0.000237 -0.000430
N 0.007425 -3.833123 1.828977 -0.002198 0.005454 -0.002532
N 0.014673 -3.818717 7.050815 -0.000107 0.000333 -0.000060
N -0.085584 -3.715216 -3.377086 -0.002167 -0.000952 0.001048
N -1.607363 -0.976528 1.796405 0.000054 0.000582 -0.002532
N -1.594696 -1.034921 7.046070 -0.000864 0.001550 -0.000181
N -1.656025 -0.910787 -3.395174 -0.000878 0.001788 -0.000180
