108
Energy=-2267676.745658 Lattice="9.476278 0.000000 0.000000 -4.738139 8.206697 0.000000 0.000000 0.000000 15.313968" Stress="-0.000412 0.000037 -0.000001 0.000037 -0.000370 -0.000001 -0.000001 -0.000002 -0.000377" Properties=species:S:1:pos:R:3:forces:R:3
Al 1.564294 0.903146 2.504900 -0.001562 -0.014286 -0.012433
Al 1.564294 0.903146 7.521855 -0.001056 -0.014945 -0.005122
Ga 1.564294 0.903146 -2.775158 -0.002263 -0.018863 -0.006958
Al 0.000000 3.612582 2.504900 -0.002591 -0.001115 -0.011064
Ga 0.000000 3.612582 7.521855 -0.003301 -0.001552 -0.003177
Ga 0.000000 3.612582 -2.775158 -0.003684 -0.001443 -0.002805
Ga 3.173845 -1.884678 2.504900 -0.002890 0.001248 -0.012783
Ga 3.173845 -1.884678 7.521855 -0.003453 0.002115 -0.005394
Al 3.173845 -1.884678 -2.775158 -0.003334 0.001825 -0.004437
Ga -4.783396 0.903146 2.504900 0.000688 -0.017003 -0.013657
Al -4.783396 0.903146 7.521855 0.001159 -0.013417 -0.004400
Ga -4.783396 0.903146 -2.775158 0.000429 -0.017768 -0.004892
Ga -6.347690 3.612582 2.504900 -0.000769 0.000274 -0.011091
Ga -6.347690 3.612582 7.521855 -0.000388 -0.000834 -0.001315
Ga -6.347690 3.612582 -2.775158 0.000083 0.000018 -0.001678
Al -3.173845 -1.884678 2.504900 -0.000404 0.002265 -0.010957
Ga -3.173845 -1.884678 7.521855 -0.000728 0.003649 -0.003269
Ga -3.173845 -1.884678 -2.775158 -0.000805 0.003850 -0.002551
Ga -1.654808 0.903146 2.504900 0.016607 -0.008966 -0.016417
Ga -1.654808 0.903146 7.521855 0.016188 -0.009287 -0.008282
Ga -1.654808 0.903146 -2.775158 0.016699 -0.009612 -0.008495
Al -3.219102 3.612582 2.504900 0.012530 0.005256 -0.011130
Ga -3.219102 3.612582 7.521855 0.015675 0.007518 -0.005063
Ga -3.219102 3.612582 -2.775158 0.015568 0.008572 -0.005174
Ga -0.045257 -1.884678 2.504900 0.014820 0.010757 -0.015177
Ga -0.045257 -1.884678 7.521855 0.015347 0.011691 -0.005904
Ga -0.045257 -1.884678 -2.775158 0.015440 0.011257 -0.006744
Ga 0.000000 1.806291 5.013378 -0.015193 -0.010860 -0.007326
Al 0.000000 1.806291 -5.283635 -0.011973 -0.008846 -0.005543
Ga 0.000000 1.806291 -0.266680 -0.015068 -0.011025 0.045413
Al 3.173845 -3.690969 5.013378 -0.012159 -0.005022 -0.005229
Ga 3.173845 -3.690969 -5.283635 -0.015479 -0.008510 -0.004808
Ga 3.173845 -3.690969 -0.266680 -0.015177 -0.008225 0.045986
Al 1.609551 -0.981532 5.013378 -0.013448 0.007680 -0.006282
Ga 1.609551 -0.981532 -5.283635 -0.016820 0.009515 -0.008919
Ga 1.609551 -0.981532 -0.266680 -0.016434 0.009534 0.042145
Ga 3.128588 1.806291 5.013378 0.000347 -0.003573 -0.003154
Ga 3.128588 1.806291 -5.283635 0.000139 -0.003441 -0.003606
Ga 3.128588 1.806291 -0.266680 0.000495 -0.003414 0.048995
Ga 6.302433 -3.690969 5.013378 -0.000518 0.000198 -0.003317
Ga 6.302433 -3.690969 -5.283635 0.000193 -0.000409 -0.001814
Al 6.302433 -3.690969 -0.266680 -0.000021 -0.000032 0.039280
Al 4.738139 -0.981532 5.013378 -0.001824 0.012813 -0.004596
Ga 4.738139 -0.981532 -5.283635 -0.000646 0.017440 -0.005324
Ga 4.738139 -0.981532 -0.266680 -0.000541 0.017151 0.046081
Ga -3.219102 1.806291 5.013378 0.003295 -0.001505 -0.004387
Ga -3.219102 1.806291 -5.283635 0.003334 -0.001903 -0.004697
Al -3.219102 1.806291 -0.266680 0.003368 -0.001733 0.037078
Ga -0.045257 -3.690969 5.013378 0.003528 0.001326 -0.003914
Al -0.045257 -3.690969 -5.283635 0.003161 0.001350 -0.002903
Ga -0.045257 -3.690969 -0.266680 0.003275 0.001129 0.048956
Ga -1.609551 -0.981532 5.013378 0.001867 0.018609 -0.006776
Ga -1.609551 -0.981532 -5.283635 0.002439 0.018733 -0.006342
Ga -1.609551 -0.981532 -0.266680 0.001926 0.018632 0.045372
N 1.564294 0.903146 4.418497 -0.000998 -0.035497 -0.010238
N 1.564294 0.903146 -5.878516 -0.019788 -0.007165 -0.009386
N 1.564294 0.903146 -0.861561 -0.001324 -0.017733 0.009359
N 0.000000 3.612582 4.418497 -0.021162 0.010399 -0.013090
N 0.000000 3.612582 -5.878516 -0.002319 -0.021179 0.010000
N 0.000000 3.612582 -0.861561 0.016515 0.010891 0.012870
N 3.173845 -1.884678 4.418497 -0.002657 0.001734 0.025721
N 3.173845 -1.884678 -5.878516 -0.002928 0.001605 0.001924
N 3.173845 -1.884678 -0.861561 -0.002862 0.001600 -0.017394
N -4.783396 0.903146 4.418497 0.000952 -0.035552 0.013587
N -4.783396 0.903146 -5.878516 0.000391 -0.017729 -0.016871
N -4.783396 0.903146 -0.861561 0.018857 -0.006789 0.017063
N -6.347690 3.612582 4.418497 -0.000441 0.000144 0.003559
N -6.347690 3.612582 -5.878516 0.018519 0.011675 0.010029
N -6.347690 3.612582 -0.861561 -0.019417 0.011278 0.013409
N -3.173845 -1.884678 4.418497 -0.019700 0.013299 -0.013415
N -3.173845 -1.884678 -5.878516 -0.001283 0.002086 0.002058
N -3.173845 -1.884678 -0.861561 -0.001086 -0.019761 0.012566
N -1.654808 0.903146 4.418497 0.016877 -0.009811 0.010738
N -1.654808 0.903146 -5.878516 0.031849 -0.001123 0.016470
N -1.654808 0.903146 -0.861561 -0.001628 0.000969 0.020490
N -3.219102 3.612582 4.418497 0.030730 0.016738 -0.010643
N -3.219102 3.612582 -5.878516 -0.003244 0.019765 0.013973
N -3.219102 3.612582 -0.861561 0.015328 -0.012898 0.016566
N -0.045257 -1.884678 4.418497 0.030218 0.018835 0.012506
N -0.045257 -1.884678 -5.878516 0.014823 -0.011817 0.013497
N -0.045257 -1.884678 -0.861561 0.014674 0.009986 0.009681
N 0.000000 1.806291 1.910020 0.003844 0.000606 -0.024732
N 0.000000 1.806291 6.926975 0.003747 -0.021080 0.014188
N 0.000000 1.806291 -3.370038 -0.014600 -0.009900 -0.017158
N 3.173845 -3.690969 1.910020 -0.012647 -0.028177 -0.025134
N 3.173845 -3.690969 6.926975 -0.015381 -0.008529 -0.016627
N 3.173845 -3.690969 -3.370038 -0.015311 0.013334 0.014108
N 1.609551 -0.981532 1.910020 -0.017109 0.027768 -0.028516
N 1.609551 -0.981532 6.926975 -0.017154 0.027061 -0.006903
N 1.609551 -0.981532 -3.370038 0.002234 -0.001142 0.017977
N 3.128588 1.806291 1.910020 -0.017645 -0.013364 -0.036461
N 3.128588 1.806291 6.926975 0.000889 -0.023075 0.017694
N 3.128588 1.806291 -3.370038 0.001273 -0.001930 0.002065
N 6.302433 -3.690969 1.910020 -0.018695 0.010990 -0.039764
N 6.302433 -3.690969 6.926975 0.000992 -0.000187 0.002571
N 6.302433 -3.690969 -3.370038 0.000780 -0.000407 0.002754
N 4.738139 -0.981532 1.910020 0.018481 0.007356 -0.031302
N 4.738139 -0.981532 6.926975 -0.000370 0.035088 -0.011037
N 4.738139 -0.981532 -3.370038 -0.019179 0.006703 0.013906
N -3.219102 1.806291 1.910020 0.002740 0.020008 -0.048680
N -3.219102 1.806291 6.926975 -0.015652 -0.012441 0.009755
N -3.219102 1.806291 -3.370038 0.002844 -0.001771 0.002044
N -0.045257 -3.690969 1.910020 0.021504 -0.010903 -0.036434
N -0.045257 -3.690969 6.926975 0.002107 0.000351 0.002254
N -0.045257 -3.690969 -3.370038 0.002092 -0.000179 -0.021452
N -1.609551 -0.981532 1.910020 -0.017552 0.007425 -0.032344
N -1.609551 -0.981532 6.926975 0.001509 0.017787 0.005926
N -1.609551 -0.981532 -3.370038 0.001292 0.017842 0.006272
