108
Energy=-1397949.171802 Lattice="9.499367 0.000000 0.000000 -4.760961 8.234465 0.000000 0.012257 -0.009833 15.327708" Stress="-0.000028 -0.000004 0.000004 -0.000004 -0.000011 -0.000004 0.000004 -0.000004 -0.000018" Properties=species:S:1:pos:R:3:forces:R:3
Al 1.574142 0.875355 2.409113 -0.000511 0.002150 0.001334
Al 1.568076 0.860344 7.487209 0.001486 0.000862 0.001252
Al 1.551296 0.875977 -2.691104 0.000053 -0.000650 -0.000225
Al 0.003698 3.598284 2.386588 -0.009254 0.003332 0.005388
Al -0.024232 3.610736 7.469656 -0.000043 -0.001379 0.003215
Al -0.027107 3.611270 -2.676679 -0.001152 0.000079 0.003228
Al 3.129826 -1.856231 2.405238 0.004878 -0.004479 0.003968
Ga 3.139917 -1.884594 7.504738 -0.000140 0.000392 0.001598
Ga 3.142779 -1.877716 -2.705184 -0.000301 -0.000793 0.001507
Al -4.764394 0.876277 2.431835 -0.006424 -0.003011 -0.018343
Al -4.779209 0.880403 7.510033 -0.000696 0.001390 0.001946
Ga -4.792343 0.883272 -2.672818 0.002091 0.000361 0.000806
Al -6.371659 3.580357 2.391088 0.001687 0.004273 0.003154
Ga -6.359674 3.602507 7.501799 0.000262 -0.001422 0.000742
Ga -6.367246 3.612755 -2.685504 0.000623 0.001331 -0.000180
Ga -3.203169 -1.875775 2.416475 0.001748 -0.000316 0.001112
Al -3.171079 -1.879134 7.473382 -0.000265 -0.000282 -0.000363
Ga -3.188104 -1.880469 -2.667387 0.000717 0.000016 0.000949
Al -1.593054 0.898106 2.416389 0.000482 -0.001078 0.000673
Ga -1.601407 0.877279 7.500972 0.001325 -0.000509 -0.000241
Ga -1.607250 0.897469 -2.689694 0.000409 -0.000908 -0.000340
Ga -3.179815 3.633028 2.388464 0.000470 0.000844 0.001266
Al -3.183024 3.622271 7.519511 -0.000080 -0.000179 0.001683
Ga -3.195784 3.634265 -2.689194 0.000260 -0.001017 0.002627
Ga -0.015922 -1.854787 2.426523 -0.002437 -0.001550 0.001944
Al -0.011600 -1.865270 7.507772 0.000905 0.000390 -0.001048
Al -0.005745 -1.864942 -2.709531 -0.000372 -0.001168 0.000337
Al -0.010864 1.777379 4.919940 0.003191 0.003489 0.007263
Ga -0.013910 1.797049 -5.266278 0.000094 0.000783 0.001238
Al -0.018738 1.801760 -0.128051 0.000089 0.001364 -0.003004
Al 3.172107 -3.704230 4.945960 0.000823 0.001040 0.000513
Al 3.135723 -3.715259 -5.268806 0.000538 0.001321 0.001055
Al 3.169496 -3.707168 -0.118768 -0.000641 0.001266 -0.004285
Al 1.563738 -0.946020 4.950041 0.000248 -0.000312 0.003174
Al 1.558750 -0.956215 -5.263336 -0.000367 0.001765 0.001094
Ga 1.579442 -0.951016 -0.141196 -0.001008 -0.000042 -0.003239
Al 3.130823 1.768587 4.933970 -0.008979 0.007376 0.005174
Al 3.138163 1.782359 -5.265687 -0.000954 -0.000998 -0.000613
Al 3.135121 1.788619 -0.125091 0.002304 0.001062 0.003614
Al 6.311670 -3.741518 4.944528 0.000854 0.009564 -0.000831
Ga 6.304388 -3.707656 -5.273506 -0.000461 0.000367 0.001983
Al 6.306470 -3.719078 -0.110604 -0.000187 0.000925 -0.005207
Ga 4.714560 -0.941261 4.952204 0.000684 -0.002217 0.001626
Ga 4.723655 -0.938792 -5.284088 -0.000403 0.000115 0.000155
Al 4.725072 -0.950336 -0.096133 -0.001182 -0.001035 -0.004741
Ga -3.198684 1.799962 4.949081 0.000952 -0.000071 0.002670
Al -3.219188 1.816270 -5.281082 -0.000090 0.000255 0.000823
Al -3.202660 1.796104 -0.094919 0.000254 0.000742 -0.005961
Ga -0.023748 -3.691036 4.968939 -0.001103 0.000286 0.001269
Al -0.005825 -3.694681 -5.281838 0.000043 0.000051 0.001157
Al -0.023216 -3.703420 -0.127825 0.000618 0.000363 -0.003960
Al -1.590280 -0.939559 4.963238 -0.001014 -0.002382 -0.000169
Ga -1.590995 -0.959401 -5.266266 -0.001607 0.000235 0.001605
Ga -1.599724 -0.950100 -0.157032 -0.001329 0.000965 0.008653
N 1.564897 0.862997 4.331546 -0.001890 0.001127 -0.001531
N 1.593850 0.847633 -5.908122 0.001054 0.000106 -0.001079
N 1.562104 0.924303 -0.765449 -0.001139 -0.000330 -0.001947
N -0.021627 3.607312 4.322622 -0.001046 -0.000643 -0.000671
N -0.075515 3.642093 -5.932925 0.000247 -0.000396 -0.003647
N -0.027421 3.616663 -0.740905 0.000249 -0.000651 -0.001028
N 3.104859 -1.892992 4.333194 -0.000120 -0.000609 -0.000546
N 3.099034 -1.896565 -5.839819 -0.000004 -0.001232 0.000074
N 3.192820 -1.895066 -0.722847 0.000363 -0.000937 -0.001434
N -4.846286 0.923013 4.286388 0.014268 -0.007961 0.009012
N -4.789112 0.930958 -5.905649 0.000974 0.000453 0.000999
N -4.778862 0.875285 -0.682582 0.000895 0.000875 -0.000822
N -6.392650 3.580466 4.325711 -0.001132 0.001791 -0.001304
N -6.327812 3.590700 -5.849063 0.000685 0.001136 0.002172
N -6.360771 3.616959 -0.692289 -0.000442 -0.000845 -0.001695
N -3.149389 -1.872761 4.386631 -0.000068 -0.008782 0.001848
N -3.183373 -1.870183 -5.941790 0.000506 -0.000503 -0.002079
N -3.232217 -1.895855 -0.691623 0.000535 -0.001167 0.001446
N -1.569392 0.864578 4.341634 -0.001909 -0.000248 -0.002471
N -1.654411 0.905726 -5.854395 0.000040 -0.000089 -0.000681
N -1.615182 0.937786 -0.711832 0.000251 -0.000226 -0.000270
N -3.153516 3.658592 4.357390 -0.000205 -0.001926 -0.003340
N -3.195649 3.631542 -5.877620 -0.000620 -0.001103 -0.001704
N -3.194059 3.625149 -0.683857 0.000257 -0.001102 -0.001024
N -0.015812 -1.818675 4.390768 -0.000970 -0.001421 -0.001114
N 0.021093 -1.880803 -5.900026 0.000068 -0.001685 -0.001136
N -0.011518 -1.911093 -0.797544 0.000218 -0.002113 0.001127
N -0.008096 1.780114 1.792215 -0.000551 0.001818 0.003042
N 0.032012 1.799058 6.863916 -0.001970 0.001777 -0.003527
N 0.017971 1.815737 -3.280174 0.000510 0.000939 -0.000972
N 3.210852 -3.657264 1.782563 -0.000125 -0.006028 0.002392
N 3.153396 -3.755634 6.867748 0.000823 0.000776 -0.002338
N 3.192439 -3.735204 -3.344695 0.000987 0.000466 -0.001725
N 1.593767 -0.926048 1.819927 0.000960 -0.000176 0.003104
N 1.529734 -0.938186 6.870918 0.000320 -0.000063 -0.001361
N 1.526157 -0.929664 -3.327515 -0.000398 0.002066 -0.001567
N 3.148759 1.769843 1.804520 -0.000866 0.001835 -0.002660
N 3.146742 1.733867 6.859368 -0.000403 -0.000551 -0.002298
N 3.094651 1.761615 -3.345328 0.000048 0.000712 -0.000946
N 6.312120 -3.750616 1.793455 0.005669 -0.001259 -0.000293
N 6.284041 -3.694527 6.863224 -0.000462 0.001582 -0.001027
N 6.269235 -3.722934 -3.292411 0.000461 -0.000537 -0.001645
N 4.673628 -0.953635 1.800107 0.004057 0.010299 0.004748
N 4.768030 -0.924351 6.931202 0.000058 -0.001754 -0.000726
N 4.738306 -0.947927 -3.316047 -0.000919 -0.000070 -0.001837
N -3.185586 1.750614 1.803232 0.000478 -0.001378 0.003658
N -3.233460 1.814761 6.925858 -0.000322 0.000120 -0.001151
N -3.207262 1.799381 -3.363022 -0.000776 0.000083 -0.001563
N -0.062518 -3.707973 1.770291 -0.001232 -0.002055 0.003270
N 0.025592 -3.679568 6.942403 0.000203 -0.000160 -0.000090
N -0.018724 -3.649723 -3.350631 -0.000994 -0.000903 -0.002579
N -1.603577 -0.895520 1.847694 -0.001439 -0.002092 -0.010359
N -1.589343 -0.996325 6.872850 -0.001202 -0.000459 0.002117
N -1.565197 -0.974211 -3.286345 -0.001069 0.000532 0.000128
