108
Energy=-711317.118441 Lattice="9.428721 0.000000 0.000000 -4.714765 8.164789 0.000000 0.000133 0.001119 15.140219" Stress="0.000000 -0.000001 0.000001 -0.000001 0.000001 -0.000000 0.000001 -0.000000 -0.000000" Properties=species:S:1:pos:R:3:forces:R:3
Al 1.555871 0.874356 2.379030 -0.000473 0.001936 -0.000807
Al 1.550658 0.868047 7.423315 -0.000047 0.000017 0.000033
Al 1.557090 0.869735 -2.683437 0.000028 -0.000103 0.000577
Al -0.026797 3.586938 2.396142 -0.000329 -0.000869 0.000217
Al -0.020919 3.590106 7.413775 0.000002 -0.000112 -0.000001
Al -0.014232 3.592617 -2.687181 -0.000020 -0.000019 0.001734
Al 3.124906 -1.855267 2.368750 -0.003458 0.002252 -0.002248
Al 3.115848 -1.855197 7.437341 0.000391 0.000470 -0.000013
Al 3.126554 -1.848744 -2.684718 -0.000229 0.000072 0.000288
Al -4.739866 0.872328 2.371268 -0.000111 0.000110 -0.001064
Al -4.738636 0.873949 7.428759 0.000005 0.000809 0.000424
Al -4.749652 0.860510 -2.677773 -0.000012 0.000100 0.000156
Al -6.315065 3.573816 2.408146 0.002324 -0.000101 -0.000059
Al -6.310775 3.587785 7.421483 -0.000282 -0.000162 0.000109
Al -6.317114 3.583434 -2.705168 -0.000016 -0.000049 0.000938
Al -3.169168 -1.850048 2.383940 -0.001591 -0.001449 -0.000090
Al -3.162049 -1.858242 7.435892 -0.000197 0.000327 -0.000021
Al -3.169987 -1.856484 -2.695022 0.000118 -0.000013 0.002513
Al -1.597645 0.872956 2.380532 -0.000300 -0.000060 -0.000690
Al -1.593213 0.870036 7.421058 0.000102 0.000048 0.000002
Ga -1.588320 0.861985 -2.674177 0.000088 -0.000131 0.000026
Al -3.153657 3.579837 2.395088 -0.000526 0.000657 -0.000651
Al -3.164109 3.589495 7.420441 0.000299 -0.000122 0.000122
Ga -3.164156 3.593816 -2.686042 0.000046 -0.000006 0.000093
Ga -0.026705 -1.829627 2.388561 0.000703 -0.000902 0.000806
Al -0.019523 -1.852224 7.414837 0.000046 0.000344 0.000413
Al -0.023237 -1.849669 -2.689532 0.000000 -0.000109 -0.001078
Al -0.022000 1.772257 4.901587 -0.000044 -0.000153 -0.000301
Al -0.017525 1.777343 -5.216014 -0.000016 -0.000013 0.000047
Al -0.019678 1.771334 -0.137359 0.000240 -0.000847 0.000943
Al 3.116284 -3.672737 4.907986 0.000179 -0.000579 0.000039
Al 3.126667 -3.667068 -5.214813 -0.000011 -0.000004 0.000030
Al 3.128124 -3.666763 -0.139711 -0.000982 0.000194 0.000434
Al 1.550434 -0.941081 4.918229 0.001035 0.002027 0.000518
Al 1.548438 -0.946379 -5.201347 -0.000034 0.000076 0.000204
Al 1.557034 -0.936523 -0.165232 -0.001049 0.000481 -0.006075
Al 3.115140 1.778863 4.909017 -0.000004 -0.000150 -0.000319
Al 3.120429 1.771909 -5.204788 0.000056 -0.000033 0.000140
Al 3.118659 1.762182 -0.152340 -0.000377 -0.000904 0.000412
Al 6.267035 -3.673921 4.905663 -0.000191 -0.000103 -0.000339
Al 6.261200 -3.670432 -5.202644 0.000009 0.000018 -0.000026
Ga 6.255537 -3.672545 -0.139102 0.000100 0.000398 -0.000164
Ga 4.689813 -0.945223 4.908118 0.000230 0.000441 0.000027
Al 4.690757 -0.944688 -5.203407 0.000017 0.000106 0.000019
Al 4.688788 -0.941146 -0.153427 -0.000544 0.000271 0.000781
Al -3.160953 1.780527 4.903508 -0.000227 -0.000361 -0.000382
Al -3.169161 1.771761 -5.221517 -0.000001 -0.000072 -0.000034
Al -3.166196 1.763936 -0.127286 -0.000363 -0.000039 0.000482
Al -0.021034 -3.676811 4.916533 0.000097 0.004396 -0.002211
Al -0.025042 -3.664457 -5.217512 -0.000023 -0.000004 0.000090
Ga -0.022068 -3.669069 -0.143678 0.000036 0.000160 0.000534
Al -1.593326 -0.940334 4.922584 -0.000076 0.001307 -0.000159
Al -1.591185 -0.950401 -5.215589 -0.000025 0.000066 0.000108
Al -1.598484 -0.935307 -0.145281 0.000524 -0.000648 -0.003635
N 1.550698 0.866738 4.301949 0.000789 0.000092 -0.000218
N 1.551182 0.865683 -5.803365 -0.000025 -0.000084 -0.000103
N 1.547476 0.872296 -0.759769 -0.000063 0.000509 -0.001115
N -0.025342 3.588871 4.314112 -0.000332 0.000046 0.000412
N -0.020016 3.589514 -5.812905 -0.000022 0.000022 -0.000069
N -0.066493 3.561638 -0.761269 0.000816 0.000377 -0.003364
N 3.077207 -1.877820 4.284505 -0.000512 0.000536 -0.001741
N 3.117846 -1.852423 -5.793236 0.000054 -0.000040 -0.000157
N 3.123479 -1.857583 -0.757413 0.000174 -0.000239 -0.000081
N -4.739985 0.916507 4.279754 0.000404 0.000244 0.001772
N -4.740856 0.868362 -5.803720 -0.000008 -0.000069 -0.000048
N -4.736168 0.868663 -0.750078 0.000133 -0.000139 -0.000032
N -6.308934 3.585071 4.320846 0.000731 0.000616 0.000450
N -6.311823 3.586646 -5.801258 0.000015 0.000030 -0.000254
N -6.311566 3.538687 -0.793827 0.000199 0.000755 -0.001397
N -3.123195 -1.873572 4.293605 0.000541 0.000046 -0.000173
N -3.166083 -1.857319 -5.792905 -0.000069 -0.000044 -0.000124
N -3.166860 -1.808224 -0.762985 -0.000005 -0.000642 -0.004709
N -1.594175 0.866385 4.304401 -0.000569 0.000253 -0.000130
N -1.591401 0.868283 -5.804539 0.000100 -0.000087 -0.000142
N -1.593930 0.873080 -0.696719 0.000454 -0.000316 -0.000144
N -3.162196 3.588595 4.312868 -0.000309 0.000469 0.000208
N -3.163983 3.590646 -5.803449 0.000031 0.000052 -0.000247
N -3.123702 3.561109 -0.716778 0.000546 0.000523 0.000283
N -0.016893 -1.822757 4.362170 -0.002085 -0.009547 0.002220
N -0.018222 -1.851604 -5.810532 0.000038 -0.000004 -0.000163
N -0.024787 -1.808755 -0.780877 -0.000231 0.001131 0.003183
N -0.018905 1.776974 1.788430 -0.000682 0.000017 0.000159
N -0.020847 1.773652 6.820185 -0.000044 -0.000084 0.000083
N 0.020113 1.797549 -3.304077 -0.000108 0.000198 -0.000029
N 3.125154 -3.670095 1.782233 -0.000380 0.000785 0.000131
N 3.120836 -3.664840 6.825211 -0.000010 0.000206 0.000014
N 3.164954 -3.643387 -3.306037 0.000152 -0.000089 0.000054
N 1.574392 -0.902203 1.719964 0.005740 -0.006073 0.010654
N 1.555979 -0.943485 6.830089 -0.000117 -0.000265 0.000002
N 1.550884 -0.945866 -3.278613 0.000092 0.000067 -0.000542
N 3.118153 1.777873 1.770907 0.000596 0.000241 0.000132
N 3.119634 1.773969 6.824020 0.000087 0.000090 -0.000089
N 3.121369 1.769086 -3.288487 0.000096 0.000074 -0.000245
N 6.267049 -3.678710 1.844958 -0.001228 0.002661 -0.001800
N 6.264373 -3.666274 6.822563 -0.000035 0.000175 0.000012
N 6.260596 -3.668024 -3.284348 -0.000116 0.000032 0.000254
N 4.692995 -0.946379 1.775386 -0.001004 -0.000308 0.000404
N 4.692602 -0.941807 6.881268 -0.000467 -0.002122 0.000028
N 4.690168 -0.944214 -3.282755 0.000212 -0.000082 0.000116
N -3.166649 1.774739 1.789233 -0.000097 0.000450 -0.000173
N -3.165715 1.774552 6.823126 -0.000029 0.000147 -0.000080
N -3.206580 1.747293 -3.319882 -0.000166 -0.000101 0.000141
N -0.022527 -3.704190 1.829808 -0.000987 -0.001919 0.000421
N -0.022376 -3.672466 6.832205 0.000036 0.000637 -0.000748
N -0.061607 -3.643678 -3.305574 -0.000198 0.000000 0.000146
N -1.647512 -0.926610 1.749379 0.002898 0.002025 0.004241
N -1.598654 -0.944149 6.835239 0.000192 -0.000319 -0.000092
N -1.593576 -0.992272 -3.307002 -0.000346 0.000101 -0.000202
