108
Energy=-4.824393e+05 Lattice="9.424450e+00 0.000000e+00 0.000000e+00 -4.730101e+00 8.141677e+00 0.000000e+00 1.621810e-02 1.973890e-02 1.506164e+01" Stress="5.048280e-03 2.687323e-04 4.502184e-04 2.631518e-04 3.313239e-03 4.038463e-04 4.474439e-04 4.046590e-04 -4.075969e-03" Properties=species:S:1:pos:R:3:forces:R:3 Config_type=AlGaN_super3_1_0_4.xyz
Al 1.550036e+00 8.828360e-01 2.348839e+00 -1.670353e-03 -3.411491e-03 -1.204477e-03
Al 1.551628e+00 8.815365e-01 7.378191e+00 5.218192e-04 -4.276267e-03 2.961544e-04
Al 1.540196e+00 8.606508e-01 -2.651428e+00 9.320599e-04 -5.006016e-03 -3.442435e-04
Al -1.935395e-02 3.585725e+00 2.347061e+00 -7.902331e-04 -2.707357e-03 3.687604e-04
Al -1.608640e-02 3.587486e+00 7.377808e+00 -3.315161e-04 -4.315372e-04 9.009525e-04
Al -2.934851e-02 3.573065e+00 -2.652370e+00 -5.827773e-04 3.099632e-04 -7.507329e-04
Al 3.144616e+00 -1.847232e+00 2.341629e+00 -7.978707e-04 -5.866756e-04 6.742371e-04
Al 3.147240e+00 -1.847174e+00 7.378217e+00 -2.777819e-04 2.706929e-04 1.113516e-03
Al 3.131967e+00 -1.865835e+00 -2.646339e+00 -4.908351e-04 3.299992e-04 8.389061e-04
Al -4.745616e+00 8.874849e-01 2.339255e+00 3.006595e-03 -3.125174e-03 -1.851857e-04
Al -4.742411e+00 8.861923e-01 7.379116e+00 1.202140e-03 -4.115726e-03 3.722154e-04
Al -4.758010e+00 8.672338e-01 -2.645508e+00 -2.460244e-04 -4.938298e-03 -8.826384e-04
Al -6.312134e+00 3.595417e+00 2.339024e+00 -2.874419e-06 -2.223626e-04 1.112817e-03
Al -6.308781e+00 3.591835e+00 7.378960e+00 -1.073118e-04 2.022293e-04 1.227104e-03
Al -6.323197e+00 3.572441e+00 -2.645467e+00 -2.400411e-04 1.895200e-04 4.073586e-04
Al -3.160186e+00 -1.844377e+00 2.346751e+00 4.313049e-03 2.637285e-03 4.627798e-03
Al -3.146645e+00 -1.842204e+00 7.378844e+00 1.672324e-04 6.366101e-04 8.133550e-04
Al -3.163795e+00 -1.863161e+00 -2.650027e+00 -1.629519e-04 4.795185e-04 -1.624435e-03
Al -1.611991e+00 8.868268e-01 2.355253e+00 4.901731e-03 9.987957e-03 2.674429e-03
Al -1.612919e+00 8.905997e-01 7.379173e+00 5.660625e-03 -3.043349e-03 -8.564248e-04
Al -1.629720e+00 8.752370e-01 -2.636278e+00 8.713026e-03 -3.407092e-03 1.468191e-03
Al -3.181838e+00 3.597098e+00 2.338498e+00 4.536780e-03 -1.009665e-03 1.117828e-04
Al -3.179366e+00 3.596304e+00 7.379256e+00 4.292871e-03 1.113757e-03 3.814060e-04
Al -3.194751e+00 3.577349e+00 -2.645845e+00 4.633391e-03 2.891415e-03 -7.014028e-04
Al -4.971134e-03 -1.834457e+00 2.366737e+00 3.502671e-03 1.369675e-03 -2.928809e-04
Al -1.632378e-02 -1.838266e+00 7.379134e+00 4.202688e-03 1.775934e-03 7.103833e-05
Al -2.629909e-02 -1.861675e+00 -2.649161e+00 4.420576e-03 2.341690e-03 -1.200616e-03
Al -1.322765e-02 1.781429e+00 4.860359e+00 -5.647749e-03 -2.350964e-03 -1.038795e-03
Al -2.938788e-02 1.761410e+00 -5.165967e+00 -4.274122e-03 -1.745650e-03 1.673417e-04
Al -3.005575e-02 1.769108e+00 -1.815676e-01 1.504073e-02 5.999253e-03 1.655846e-02
Al 3.149220e+00 -3.653087e+00 4.861659e+00 -4.429628e-03 -1.837914e-03 4.522101e-04
Al 3.133073e+00 -3.672230e+00 -5.165599e+00 -4.219107e-03 -1.305198e-03 4.299104e-04
Al 3.137367e+00 -3.673695e+00 -1.214550e-01 -3.976890e-03 -4.691981e-04 -2.049039e-02
Al 1.586939e+00 -9.478797e-01 4.866909e+00 -5.868552e-03 3.512765e-03 -2.329233e-05
Al 1.567614e+00 -9.675220e-01 -5.166073e+00 -5.502573e-03 3.178508e-03 -2.502354e-04
Al 1.575261e+00 -9.700991e-01 -1.168096e-01 -5.156106e-03 5.742928e-03 -2.121236e-02
Al 3.116681e+00 1.786315e+00 4.860016e+00 4.107721e-05 -8.696903e-04 1.151678e-03
Al 3.101180e+00 1.766094e+00 -5.165996e+00 -1.256167e-04 -5.592619e-04 9.733394e-04
Al 3.102779e+00 1.767416e+00 -1.223659e-01 -4.400482e-04 -3.793633e-04 -2.003457e-02
Al 6.278141e+00 -3.648843e+00 4.862637e+00 -3.745600e-04 4.458413e-04 1.183563e-03
Al 6.263958e+00 -3.668371e+00 -5.166406e+00 6.500603e-05 -2.614819e-04 7.234925e-04
Al 6.261855e+00 -3.672069e+00 -1.239962e-01 1.360731e-03 -1.209047e-03 -1.865767e-02
Al 4.711257e+00 -9.430590e-01 4.862020e+00 -2.527211e-04 4.286289e-03 4.893074e-04
Al 4.695662e+00 -9.620217e-01 -5.165348e+00 -1.155324e-03 4.114957e-03 3.573176e-04
Al 4.695107e+00 -9.622261e-01 -1.205670e-01 -2.286214e-03 5.299024e-03 -2.022491e-02
Al -3.178088e+00 1.789705e+00 4.860459e+00 1.667991e-03 -9.246093e-04 5.384796e-04
Al -3.192988e+00 1.770596e+00 -5.166246e+00 5.769910e-04 -4.773403e-04 -4.662988e-05
Al -3.182460e+00 1.770222e+00 -1.424410e-01 5.981463e-04 1.528946e-03 -7.876262e-03
Al -1.246406e-02 -3.646504e+00 4.861670e+00 5.553367e-04 1.894201e-04 1.282107e-03
Al -2.984212e-02 -3.664399e+00 -5.166071e+00 3.249846e-04 1.316823e-04 8.595095e-04
Al -2.117101e-02 -3.674886e+00 -1.213618e-01 -1.959502e-04 7.321893e-04 -1.870846e-02
Al -1.580045e+00 -9.399952e-01 4.863602e+00 -1.056361e-03 5.354015e-03 -2.661989e-03
Al -1.596823e+00 -9.568247e-01 -5.163493e+00 -7.188421e-04 4.558636e-03 2.103968e-05
Ga -1.583824e+00 -9.729364e-01 -1.160485e-01 7.807935e-04 9.093581e-03 -5.394418e-04
N 1.553769e+00 8.803504e-01 4.265159e+00 1.401406e-03 -4.964528e-03 4.330447e-04
N 1.535357e+00 8.618106e-01 -5.764282e+00 6.487585e-04 -4.264186e-03 -1.378817e-04
N 1.540296e+00 8.624167e-01 -7.393690e-01 1.872249e-03 -5.449472e-03 1.307106e-03
N -1.623650e-02 3.590694e+00 4.263313e+00 -1.768326e-04 7.589015e-04 -3.036242e-04
N -3.169642e-02 3.568776e+00 -5.765045e+00 -3.903296e-04 -7.083864e-05 -9.134885e-04
N -2.676131e-02 3.575290e+00 -7.424750e-01 -1.148212e-03 1.332167e-03 1.634854e-05
N 3.147364e+00 -1.847151e+00 4.259847e+00 -4.626105e-04 3.449120e-04 -1.558591e-03
N 3.131136e+00 -1.866502e+00 -5.765543e+00 -3.401640e-04 3.849438e-04 -1.341929e-03
N 3.133418e+00 -1.866296e+00 -7.277235e-01 2.247336e-04 1.101335e-04 -1.625563e-03
N -4.743387e+00 8.859799e-01 4.257885e+00 4.316562e-04 -4.575848e-03 -2.115853e-04
N -4.758605e+00 8.655816e-01 -5.764420e+00 1.297029e-03 -4.012430e-03 6.227361e-05
N -4.755174e+00 8.671467e-01 -7.315923e-01 4.047365e-03 -5.309261e-03 -1.291295e-04
N -6.309881e+00 3.593208e+00 4.257675e+00 5.413829e-05 1.161955e-04 -1.227235e-03
N -6.324512e+00 3.572257e+00 -5.765014e+00 -4.141580e-05 1.932254e-04 -1.036443e-03
N -6.322144e+00 3.571796e+00 -7.293968e-01 -2.668203e-05 1.297613e-03 -3.751187e-04
N -3.149376e+00 -1.844177e+00 4.262269e+00 -1.652441e-03 -5.930098e-04 8.435279e-04
N -3.162824e+00 -1.861787e+00 -5.764021e+00 1.369572e-04 7.361367e-04 -7.935814e-04
N -3.180002e+00 -1.874060e+00 -7.410872e-01 -6.634300e-03 -1.433805e-03 -1.245049e-03
N -1.615259e+00 8.898946e-01 4.269289e+00 5.262492e-03 -1.233508e-03 4.336498e-03
N -1.628651e+00 8.711164e-01 -5.762137e+00 5.355837e-03 -3.026698e-03 3.798072e-04
N -1.564304e+00 9.152526e-01 -6.656075e-01 -2.291275e-02 -7.992061e-03 -2.841521e-02
N -3.179191e+00 3.595923e+00 4.257807e+00 4.275209e-03 1.922475e-03 -3.025810e-04
N -3.194771e+00 3.577692e+00 -5.764544e+00 4.305615e-03 1.125715e-03 7.927997e-05
N -3.191438e+00 3.575274e+00 -7.329611e-01 5.873106e-03 1.308264e-03 -3.102381e-04
N -7.486752e-03 -1.840869e+00 4.271341e+00 4.444553e-03 1.290921e-03 2.330733e-03
N -3.272366e-02 -1.857262e+00 -5.763506e+00 4.003440e-03 1.824166e-03 -7.419559e-05
N -2.909192e-03 -1.879460e+00 -7.382268e-01 1.200927e-02 -1.402417e-03 -2.499008e-03
N -1.870129e-02 1.778498e+00 1.775816e+00 -7.867112e-04 3.697962e-04 -4.072215e-03
N -1.313948e-02 1.780848e+00 6.780012e+00 -3.965943e-03 -1.712233e-03 7.069784e-05
N -2.706224e-02 1.763097e+00 -3.245948e+00 -5.254000e-03 -2.255437e-03 7.743738e-04
N 3.148072e+00 -3.653262e+00 1.728383e+00 -4.767078e-03 -1.565474e-03 2.112130e-02
N 3.148309e+00 -3.654198e+00 6.780013e+00 -4.374810e-03 -1.217194e-03 -3.784354e-04
N 3.133300e+00 -3.671750e+00 -3.248078e+00 -4.467311e-03 -1.855046e-03 -8.780795e-05
N 1.584159e+00 -9.472841e-01 1.733861e+00 -5.451953e-03 2.611333e-03 2.131270e-02
N 1.583754e+00 -9.477590e-01 6.783001e+00 -5.364876e-03 3.038643e-03 7.374581e-04
N 1.569407e+00 -9.681509e-01 -3.249185e+00 -5.692057e-03 3.232899e-03 3.615484e-04
N 3.113991e+00 1.788201e+00 1.727147e+00 6.875224e-06 -1.418902e-03 2.064203e-02
N 3.117279e+00 1.786622e+00 6.779086e+00 1.917363e-04 -6.076263e-04 -1.221263e-03
N 3.102913e+00 1.767273e+00 -3.248139e+00 4.732320e-04 -4.190025e-04 -1.309253e-03
N 6.273471e+00 -3.647302e+00 1.727678e+00 7.065454e-04 6.689566e-04 1.931920e-02
N 6.279217e+00 -3.648869e+00 6.780347e+00 2.200825e-04 -2.780947e-04 -7.792805e-04
N 6.265550e+00 -3.667921e+00 -3.250609e+00 4.569144e-04 -1.293761e-04 -7.119837e-04
N 4.705443e+00 -9.440162e-01 1.730163e+00 1.732352e-04 4.293708e-03 1.990483e-02
N 4.712361e+00 -9.419865e-01 6.780212e+00 -1.215290e-03 4.283031e-03 -2.619009e-04
N 4.696177e+00 -9.611196e-01 -3.247991e+00 -5.783442e-04 4.461968e-03 6.968538e-05
N -3.177737e+00 1.789153e+00 1.726215e+00 -1.694492e-03 -8.632468e-04 1.737984e-02
N -3.177570e+00 1.790192e+00 6.779755e+00 1.605430e-04 -2.356757e-04 -8.580142e-04
N -3.193672e+00 1.771582e+00 -3.247278e+00 2.102128e-03 -1.648906e-03 1.944247e-03
N -1.740499e-02 -3.636141e+00 1.730580e+00 -7.047094e-05 -9.406981e-04 1.992837e-02
N -1.414671e-02 -3.646012e+00 6.779643e+00 3.623420e-04 -6.688865e-06 -9.284182e-04
N -2.908722e-02 -3.666066e+00 -3.248789e+00 3.427800e-04 -2.889814e-04 -1.244988e-03
N -1.567126e+00 -9.017031e-01 1.853439e+00 -6.802976e-03 -1.595478e-02 -3.334976e-03
N -1.581075e+00 -9.389659e-01 6.781441e+00 -5.454643e-04 4.094491e-03 -1.366009e-05
N -1.595657e+00 -9.573984e-01 -3.241119e+00 -6.608287e-04 5.891277e-03 1.508023e-03
