108
Energy=-1397949.259651 Lattice="9.509299 0.000000 0.000000 -4.756575 8.232456 0.000000 -0.000397 0.003585 15.348107" Stress="-0.000004 -0.000001 0.000000 -0.000001 -0.000006 -0.000000 0.000000 -0.000000 -0.000003" Properties=species:S:1:pos:R:3:forces:R:3
Al 1.566560 0.868995 2.391010 -0.000036 0.000084 -0.000100
Al 1.547706 0.883251 7.537088 0.000116 0.000066 0.000097
Al 1.581002 0.868409 -2.695412 -0.000117 0.000113 0.000147
Al -0.033925 3.626949 2.416036 0.000072 -0.000075 -0.000033
Al -0.018702 3.609695 7.505460 0.000005 0.000101 -0.000019
Ga -0.024415 3.623156 -2.692684 -0.000087 0.000039 0.000027
Al 3.148097 -1.873208 2.369368 -0.000063 0.000028 0.000003
Ga 3.146260 -1.872553 7.521989 0.000018 0.000014 0.000028
Al 3.144037 -1.861170 -2.663974 -0.000082 0.000154 -0.000072
Al -4.777891 0.872282 2.366465 -0.000091 0.000165 -0.000082
Ga -4.774794 0.881334 7.539670 0.000160 -0.000013 0.000135
Al -4.785466 0.879616 -2.675015 0.000030 0.000011 -0.000047
Ga -6.363734 3.615474 2.414461 0.000008 -0.000044 0.000014
Ga -6.375049 3.621990 7.533142 -0.000012 0.000042 0.000024
Al -6.361622 3.604133 -2.712336 0.000108 0.000078 -0.000077
Al -3.199725 -1.865046 2.387521 -0.000048 -0.000207 0.000103
Ga -3.189672 -1.877842 7.541101 -0.000148 -0.000028 0.000026
Al -3.189462 -1.859231 -2.694094 0.000074 -0.000027 -0.000000
Ga -1.614232 0.880763 2.403387 0.000124 -0.000059 0.000061
Al -1.598041 0.889776 7.505724 0.000149 -0.000102 -0.000011
Al -1.621156 0.866241 -2.675391 -0.000015 0.000117 -0.000074
Al -3.183788 3.621049 2.408014 -0.000106 0.000069 -0.000048
Ga -3.184623 3.617221 7.505336 0.000086 -0.000147 0.000093
Al -3.195296 3.613409 -2.680652 -0.000104 -0.000083 -0.000075
Al -0.014218 -1.863568 2.381612 0.000067 -0.000202 -0.000032
Ga -0.018744 -1.858906 7.559171 0.000080 -0.000159 0.000113
Ga -0.022141 -1.857838 -2.707306 -0.000005 -0.000006 0.000093
Al -0.022767 1.808668 4.965251 -0.000004 -0.000124 -0.000081
Ga -0.013392 1.775224 -5.262450 -0.000183 0.000069 0.000131
Ga -0.020726 1.776083 -0.146715 0.000024 0.000086 0.000061
Al 3.153179 -3.714731 4.930604 0.000008 0.000178 0.000100
Ga 3.143849 -3.692923 -5.245002 -0.000136 0.000163 0.000033
Al 3.135696 -3.692270 -0.131529 -0.000021 -0.000058 0.000008
Ga 1.557580 -0.957661 4.937094 -0.000035 0.000035 0.000016
Al 1.562556 -0.946452 -5.238955 -0.000100 0.000103 0.000075
Al 1.574992 -0.949234 -0.138816 -0.000017 0.000044 -0.000009
Ga 3.144122 1.793518 4.953070 0.000142 -0.000016 0.000086
Al 3.134355 1.793367 -5.236552 0.000152 -0.000061 -0.000094
Al 3.153545 1.771880 -0.155452 -0.000158 -0.000071 0.000084
Al 6.303808 -3.701785 4.944608 0.000067 -0.000071 0.000086
Al 6.332582 -3.700878 -5.240629 0.000132 -0.000093 -0.000016
Ga 6.317392 -3.687119 -0.142758 0.000073 -0.000124 -0.000041
Ga 4.737711 -0.958294 4.924032 -0.000103 -0.000013 0.000042
Ga 4.730266 -0.958128 -5.210822 -0.000080 -0.000061 0.000046
Al 4.729906 -0.947182 -0.158429 0.000022 -0.000002 -0.000076
Al -3.190148 1.805911 4.944389 -0.000053 -0.000080 0.000053
Ga -3.193188 1.787908 -5.227224 0.000093 0.000019 0.000221
Al -3.201369 1.787747 -0.159727 -0.000003 0.000256 -0.000101
Al -0.011451 -3.696681 4.933495 0.000041 -0.000110 0.000042
Al -0.034642 -3.698303 -5.225602 0.000019 0.000016 0.000091
Ga -0.010189 -3.704417 -0.149401 0.000136 0.000086 0.000046
Ga -1.604809 -0.959261 4.953500 -0.000067 -0.000084 0.000092
Al -1.605373 -0.955526 -5.246132 0.000077 0.000153 -0.000071
Al -1.618093 -0.948374 -0.143626 0.000200 -0.000175 -0.000037
N 1.518284 0.901720 4.300050 0.000016 0.000012 0.000026
N 1.603992 0.850136 -5.889008 0.000152 0.000002 -0.000030
N 1.607333 0.846960 -0.779988 0.000071 -0.000070 -0.000221
N -0.023981 3.616416 4.339923 -0.000118 -0.000001 0.000024
N 0.018895 3.643458 -5.909799 0.000087 -0.000020 -0.000065
N -0.066153 3.644371 -0.735013 -0.000068 0.000009 0.000012
N 3.146014 -1.918119 4.285192 0.000044 -0.000131 -0.000044
N 3.109134 -1.845121 -5.856962 -0.000037 0.000035 -0.000102
N 3.143230 -1.871164 -0.737490 -0.000012 -0.000019 0.000084
N -4.736434 0.904050 4.284292 0.000169 0.000062 -0.000050
N -4.817351 0.897045 -5.835978 -0.000118 0.000080 0.000014
N -4.780706 0.876742 -0.754173 0.000104 0.000024 0.000060
N -6.363835 3.665962 4.383165 -0.000150 0.000116 -0.000034
N -6.362119 3.618775 -5.817239 -0.000151 0.000016 0.000075
N -6.364514 3.568812 -0.795597 -0.000073 0.000014 -0.000009
N -3.187618 -1.914461 4.295131 0.000035 0.000004 -0.000131
N -3.154642 -1.895350 -5.826090 0.000046 0.000063 0.000003
N -3.188980 -1.821489 -0.778144 -0.000009 0.000115 -0.000038
N -1.606014 0.925564 4.379513 0.000150 0.000079 -0.000001
N -1.613063 0.832789 -5.920006 -0.000003 -0.000220 -0.000090
N -1.650083 0.848832 -0.761590 0.000002 -0.000071 0.000043
N -3.190245 3.618700 4.335842 0.000015 -0.000079 -0.000077
N -3.238922 3.641859 -5.864691 -0.000024 -0.000098 -0.000135
N -3.149270 3.597621 -0.772724 0.000015 -0.000177 0.000150
N -0.023451 -1.910219 4.289556 0.000058 -0.000073 -0.000003
N -0.020168 -1.871642 -5.793148 -0.000013 -0.000013 0.000035
N -0.021557 -1.816139 -0.727292 -0.000101 0.000095 0.000067
N 0.017634 1.815111 1.821652 0.000089 -0.000028 0.000034
N -0.016679 1.791845 6.906691 -0.000085 0.000099 -0.000048
N -0.024911 1.735325 -3.274659 0.000105 -0.000163 0.000067
N 3.145347 -3.704442 1.791655 -0.000016 0.000023 0.000009
N 3.192676 -3.721299 6.854163 0.000056 -0.000017 -0.000094
N 3.104260 -3.670321 -3.272365 0.000027 0.000043 -0.000030
N 1.565238 -0.949808 1.782535 -0.000133 -0.000015 -0.000011
N 1.560358 -0.905332 6.913942 -0.000302 0.000161 -0.000072
N 1.611367 -0.929253 -3.323667 0.000138 -0.000048 0.000039
N 3.143001 1.744960 1.762768 0.000249 -0.000040 -0.000041
N 3.104704 1.764939 6.925036 -0.000085 -0.000072 -0.000062
N 3.145456 1.784472 -3.312217 -0.000007 -0.000013 0.000038
N 6.276242 -3.678063 1.824821 -0.000037 0.000204 0.000081
N 6.276350 -3.718216 6.863287 -0.000043 -0.000036 -0.000083
N 6.357646 -3.673946 -3.321558 -0.000003 0.000116 -0.000018
N 4.733927 -0.954223 1.771123 -0.000031 -0.000010 0.000005
N 4.737084 -0.951608 6.893491 -0.000128 -0.000017 -0.000157
N 4.727220 -0.954503 -3.228086 -0.000048 0.000030 0.000056
N -3.232810 1.820212 1.758020 -0.000079 -0.000053 0.000020
N -3.158248 1.767130 6.861804 0.000014 0.000018 -0.000173
N -3.192584 1.787877 -3.243495 -0.000041 -0.000003 0.000066
N 0.021412 -3.680907 1.821448 0.000103 0.000006 0.000053
N -0.023213 -3.688110 6.850640 -0.000080 0.000156 -0.000161
N -0.019143 -3.746884 -3.309405 0.000012 -0.000081 0.000043
N -1.610406 -0.997356 1.771992 -0.000030 0.000000 -0.000131
N -1.604157 -0.912330 6.926193 -0.000029 0.000072 -0.000003
N -1.651607 -0.922237 -3.331298 -0.000111 -0.000085 -0.000069
