108
Energy=-1443724.789778 Lattice="9.516429 0.000000 0.000000 -4.758428 8.240968 0.000000 -0.000018 -0.003327 15.362457" Stress="0.000001 -0.000000 0.000000 -0.000000 0.000001 -0.000000 -0.000000 -0.000000 -0.000001" Properties=species:S:1:pos:R:3:forces:R:3
Al 1.580759 0.868362 2.428771 -0.000252 -0.000016 -0.000150
Al 1.565204 0.883891 7.533833 0.000142 -0.000355 -0.000059
Al 1.562218 0.895307 -2.728517 0.000133 0.000134 0.000324
Al -0.035909 3.624646 2.408288 0.000010 -0.000008 0.000083
Al -0.014300 3.621184 7.575540 -0.000209 -0.000235 0.000018
Al -0.019849 3.624406 -2.751359 0.000009 0.000039 0.000041
Al 3.134569 -1.881135 2.404601 -0.000110 -0.000008 0.000130
Al 3.155570 -1.871929 7.550545 -0.000077 0.000359 0.000232
Ga 3.152457 -1.886762 -2.714306 -0.000024 -0.000076 0.000168
Al -4.794461 0.890689 2.413548 -0.000051 0.000219 0.000106
Ga -4.787165 0.875769 7.552264 0.000023 -0.000068 0.000141
Ga -4.787969 0.888043 -2.730132 0.000142 0.000097 -0.000087
Ga -6.368290 3.602215 2.407282 -0.000032 0.000012 0.000010
Al -6.382668 3.613753 7.564210 0.000151 0.000162 0.000088
Al -6.371838 3.625684 -2.739363 0.000044 -0.000130 0.000175
Ga -3.195999 -1.875231 2.434630 -0.000062 -0.000041 0.000111
Al -3.198686 -1.880298 7.547263 0.000013 0.000239 0.000254
Al -3.194314 -1.887251 -2.739595 -0.000022 -0.000084 0.000212
Ga -1.615269 0.883759 2.419501 0.000167 -0.000025 0.000105
Al -1.607271 0.879984 7.539265 0.000113 0.000153 -0.000582
Ga -1.600743 0.888923 -2.715776 -0.000018 -0.000049 0.000057
Al -3.184351 3.621403 2.402810 0.000166 0.000112 -0.000009
Ga -3.187651 3.617706 7.560931 -0.000066 -0.000053 0.000008
Al -3.190868 3.629881 -2.727610 -0.000018 -0.000174 -0.000094
Al -0.005597 -1.863985 2.443258 0.000087 0.000108 0.000173
Ga -0.021875 -1.863367 7.534348 0.000074 -0.000043 0.000143
Al -0.024125 -1.883381 -2.733375 0.000023 -0.000108 0.000175
Ga -0.016377 1.779956 4.989826 -0.000166 0.000073 0.000049
Al -0.017561 1.807459 -5.285226 -0.000265 -0.000016 -0.000531
Ga -0.013338 1.807134 -0.147459 0.000027 0.000008 0.000052
Ga 3.145415 -3.703131 4.980597 -0.000031 -0.000109 0.000176
Al 3.156207 -3.708402 -5.272875 -0.000162 -0.000235 0.000040
Al 3.146527 -3.723093 -0.151720 -0.000019 0.000063 0.000119
Al 1.569077 -0.946319 4.971956 -0.000000 0.000201 -0.000227
Ga 1.577292 -0.943033 -5.265727 0.000038 0.000031 0.000042
Ga 1.562804 -0.948689 -0.142253 -0.000153 0.000221 0.000119
Al 3.152240 1.781028 4.989413 -0.000009 -0.000204 -0.000158
Al 3.142237 1.805131 -5.273366 0.000347 0.000009 0.000068
Al 3.151581 1.789407 -0.161063 -0.000046 -0.000103 0.000119
Ga 6.324539 -3.712968 5.014966 -0.000050 -0.000085 0.000041
Al 6.319181 -3.707375 -5.275825 0.000121 -0.000212 0.000068
Ga 6.310237 -3.712040 -0.182347 0.000041 -0.000047 0.000009
Ga 4.724861 -0.940305 4.977826 -0.000015 -0.000063 0.000066
Al 4.737829 -0.962326 -5.281135 -0.000094 0.000693 -0.000595
Ga 4.735853 -0.944178 -0.133780 -0.000169 0.000026 0.000105
Al -3.204663 1.786294 4.972462 0.000411 0.000124 0.000137
Al -3.193441 1.802679 -5.267161 -0.000334 0.000228 0.000337
Al -3.207722 1.811164 -0.149110 0.000036 -0.000026 -0.000031
Ga -0.020266 -3.707317 4.967527 0.000067 -0.000089 0.000059
Al -0.026216 -3.722337 -5.249543 -0.000033 -0.000069 0.000031
Ga -0.008689 -3.713968 -0.159822 0.000005 0.000012 0.000051
Al -1.603118 -0.945786 5.002967 0.000012 -0.000022 0.000146
Ga -1.624619 -0.949712 -5.271203 -0.000016 -0.000015 0.000062
Ga -1.608126 -0.958965 -0.161784 -0.000057 -0.000130 -0.000017
N 1.610480 0.855318 4.351807 0.000116 -0.000074 -0.000090
N 1.566314 0.926125 -5.913361 0.000034 -0.000120 0.000032
N 1.603791 0.902099 -0.811777 -0.000124 -0.000003 -0.000206
N -0.021571 3.622427 4.315275 0.000053 -0.000002 -0.000062
N -0.021940 3.626798 -5.871078 -0.000027 -0.000047 -0.000001
N -0.070442 3.644486 -0.833011 0.000042 -0.000059 -0.000051
N 3.106235 -1.855391 4.320510 0.000051 0.000120 -0.000084
N 3.186259 -1.894293 -5.894177 0.000046 0.000131 -0.000302
N 3.151432 -1.922674 -0.738380 0.000126 -0.000067 -0.000150
N -4.785431 0.928997 4.343084 -0.000165 0.000217 -0.000132
N -4.783064 0.882997 -5.826066 -0.000006 -0.000559 0.000205
N -4.780831 0.924261 -0.747430 0.000118 -0.000000 -0.000072
N -6.373358 3.568855 4.375749 0.000038 -0.000029 -0.000071
N -6.365062 3.624410 -5.873133 0.000012 0.000032 -0.000041
N -6.364003 3.574312 -0.814079 -0.000015 0.000232 -0.000357
N -3.151727 -1.853450 4.403598 0.000037 0.000055 -0.000079
N -3.234100 -1.895951 -5.901560 -0.000050 0.000123 -0.000145
N -3.202545 -1.868667 -0.830502 -0.000019 0.000050 -0.000140
N -1.651030 0.852774 4.399877 -0.000119 0.000171 -0.000078
N -1.611878 0.928266 -5.903068 0.000355 0.000037 0.000610
N -1.650187 0.908276 -0.740538 0.000088 -0.000015 -0.000019
N -3.188414 3.573454 4.318362 -0.000082 -0.000417 0.000271
N -3.196961 3.626441 -5.827412 0.000024 -0.000042 0.000161
N -3.150962 3.600254 -0.799489 -0.000001 0.000045 0.000035
N -0.022719 -1.818224 4.369448 -0.000090 0.000008 -0.000148
N -0.020052 -1.918344 -5.859275 0.000012 0.000006 -0.000157
N -0.017708 -1.874682 -0.828982 0.000005 -0.000083 -0.000167
N 0.025920 1.811582 1.837352 0.000065 -0.000032 0.000006
N -0.020670 1.795375 6.979641 -0.000382 0.000268 -0.000047
N 0.019296 1.813601 -3.365013 0.000010 0.000144 0.000177
N 3.149272 -3.710189 1.783647 0.000077 0.000021 -0.000225
N 3.194295 -3.682176 6.962948 0.000096 -0.000205 -0.000049
N 3.149255 -3.748138 -3.361916 0.000079 0.000076 -0.000023
N 1.557833 -0.952918 1.846674 0.000060 0.000153 -0.000090
N 1.611803 -0.930727 6.901850 0.000119 0.000052 0.000488
N 1.528538 -0.924859 -3.293291 0.000040 -0.000210 -0.000199
N 3.143690 1.739551 1.759278 0.000073 -0.000107 0.000209
N 3.109615 1.815963 6.910446 0.000056 -0.000040 -0.000017
N 3.104948 1.817718 -3.362132 -0.000089 0.000115 -0.000108
N 6.278966 -3.726656 1.792431 -0.000010 -0.000013 -0.000058
N 6.319217 -3.710413 6.998449 0.000111 0.000017 -0.000151
N 6.323370 -3.703327 -3.346057 0.000000 0.000020 -0.000044
N 4.696113 -0.930527 1.848813 0.000059 -0.000073 -0.000087
N 4.732784 -1.000293 6.958126 -0.000025 0.000027 0.000002
N 4.773635 -0.977897 -3.370207 -0.000066 -0.000062 0.000149
N -3.242122 1.817208 1.772948 0.000038 -0.000081 0.000058
N -3.160177 1.770257 6.888013 -0.000070 0.000095 -0.000133
N -3.192076 1.839957 -3.364306 -0.000068 -0.000057 -0.000393
N 0.019411 -3.673465 1.832999 -0.000147 -0.000029 -0.000118
N -0.064393 -3.732695 6.939468 -0.000098 -0.000018 -0.000058
N -0.021901 -3.707938 -3.325145 -0.000014 0.000013 -0.000055
N -1.563693 -0.984278 1.810424 -0.000093 -0.000016 0.000002
N -1.650682 -0.930283 6.923707 -0.000046 -0.000181 0.000027
N -1.610322 -0.995710 -3.299220 -0.000078 -0.000009 -0.000134
