108
Energy=-1.947255e+06 Lattice="9.580278e+00 0.000000e+00 0.000000e+00 -4.791496e+00 8.295452e+00 0.000000e+00 2.673842e-03 -2.103831e-03 1.550763e+01" Stress="-8.932457e-05 -2.171984e-05 8.091543e-05 -3.318120e-05 -4.562702e-05 -2.194042e-05 9.762830e-05 -1.845633e-05 -2.343792e-04" Properties=species:S:1:pos:R:3:forces:R:3 Config_type=AlGaN_super3_33_0_13.xyz
Al 1.581421e+00 8.891841e-01 2.447737e+00 9.533387e-05 -4.996809e-05 1.797603e-07
Al 1.575442e+00 8.910130e-01 7.600753e+00 3.810795e-05 -7.670927e-05 1.193172e-04
Al 1.576375e+00 8.947335e-01 -2.747184e+00 8.802576e-05 -7.889765e-05 4.209744e-05
Al -4.035423e-03 3.643067e+00 2.434597e+00 -2.424818e-05 1.965274e-05 1.853645e-04
Al -1.844470e-02 3.639010e+00 7.592147e+00 -6.686322e-05 -6.818788e-06 1.126086e-04
Al -4.207773e-04 3.651149e+00 -2.724462e+00 2.591762e-05 3.196136e-05 5.597504e-05
Al 3.179155e+00 -1.873398e+00 2.422411e+00 -3.734392e-05 -3.805235e-05 5.167550e-05
Al 3.158709e+00 -1.891357e+00 7.610218e+00 3.576349e-06 -6.215403e-05 1.074587e-04
Ga 3.171363e+00 -1.881407e+00 -2.721446e+00 -5.187545e-05 -7.621339e-06 -3.064386e-05
Al -4.834585e+00 8.736575e-01 2.425115e+00 -5.734521e-05 -4.850665e-05 1.222861e-04
Ga -4.838338e+00 8.903358e-01 7.621759e+00 1.828519e-04 -1.005248e-04 2.063346e-05
Ga -4.835187e+00 8.834820e-01 -2.730805e+00 4.011763e-05 -1.368631e-04 -2.863785e-05
Al -6.426680e+00 3.634723e+00 2.419431e+00 -2.424702e-05 -7.233885e-05 1.156819e-04
Al -6.406910e+00 3.640709e+00 7.631697e+00 1.026899e-04 4.372413e-05 1.351014e-04
Al -6.423159e+00 3.652276e+00 -2.753586e+00 -5.130085e-04 2.196317e-04 6.392316e-05
Ga -3.234230e+00 -1.902195e+00 2.413177e+00 -3.706057e-05 -1.142648e-04 2.114408e-04
Ga -3.216243e+00 -1.902216e+00 7.607657e+00 6.816558e-05 1.436338e-05 2.430736e-05
Al -3.214896e+00 -1.904621e+00 -2.709070e+00 -6.210323e-05 -9.332429e-05 1.010606e-04
Ga -1.607627e+00 8.918577e-01 2.450017e+00 1.774361e-04 -6.740608e-05 2.381692e-04
Ga -1.595217e+00 8.927433e-01 7.602837e+00 5.414422e-05 -1.660357e-04 -1.044394e-04
Ga -1.603179e+00 8.798509e-01 -2.732429e+00 1.329910e-04 -6.341059e-05 3.487499e-05
Ga -3.219476e+00 3.650912e+00 2.442137e+00 9.317418e-05 6.520232e-06 1.642906e-04
Al -3.221752e+00 3.667608e+00 7.617016e+00 6.870796e-06 -8.473766e-05 2.507842e-05
Ga -3.226849e+00 3.665291e+00 -2.740733e+00 2.037577e-04 -1.426532e-05 2.977143e-05
Ga -1.012552e-02 -1.887069e+00 2.443512e+00 2.103607e-04 -1.258439e-04 1.617010e-04
Al -7.621451e-03 -1.897232e+00 7.621909e+00 -1.822750e-05 -1.109101e-04 1.259506e-04
Al -2.771493e-02 -1.890271e+00 -2.750950e+00 1.578226e-04 1.944369e-05 1.409560e-04
Al -8.594807e-03 1.810439e+00 5.021841e+00 -1.137756e-04 8.286911e-05 1.661216e-04
Ga -1.520101e-03 1.814059e+00 -5.313274e+00 -1.567827e-04 1.229468e-04 1.381420e-04
Ga -1.521373e-03 1.818617e+00 -1.464702e-01 -2.575483e-04 6.454895e-05 -2.188397e-04
Ga 3.184881e+00 -3.730247e+00 5.029477e+00 -7.187158e-05 1.342246e-04 4.894580e-05
Ga 3.169404e+00 -3.729053e+00 -5.333591e+00 -7.530024e-05 1.160917e-04 3.917066e-05
Ga 3.199333e+00 -3.720870e+00 -1.335223e-01 -1.898278e-04 -3.284577e-05 -2.606072e-04
Ga 1.578734e+00 -9.511218e-01 5.039797e+00 -1.408427e-04 9.000914e-05 7.046230e-05
Ga 1.570654e+00 -9.543738e-01 -5.331739e+00 -1.739554e-04 7.977221e-05 5.819772e-05
Ga 1.581024e+00 -9.520549e-01 -1.473612e-01 -2.677040e-04 -1.200943e-05 -3.600259e-04
Ga 3.157156e+00 1.809322e+00 5.009774e+00 3.879772e-05 3.715735e-05 2.539676e-04
Al 3.159313e+00 1.819532e+00 -5.316948e+00 -3.535306e-05 1.501604e-05 1.132983e-04
Ga 3.162598e+00 1.809651e+00 -1.381940e-01 -4.499628e-05 3.569913e-05 -1.778035e-04
Ga 6.365365e+00 -3.749693e+00 5.027279e+00 -8.525143e-06 9.183692e-05 2.424380e-04
Ga 6.374099e+00 -3.740931e+00 -5.305383e+00 -1.056691e-04 3.313983e-05 2.086291e-04
Al 6.362067e+00 -3.728733e+00 -1.676420e-01 3.786620e-06 7.626458e-05 -1.488251e-04
Ga 4.757014e+00 -9.612798e-01 5.014057e+00 -5.024551e-05 8.581400e-05 9.535448e-05
Ga 4.760690e+00 -9.596997e-01 -5.306195e+00 -1.054225e-04 5.637666e-06 3.790853e-05
Al 4.773080e+00 -9.690858e-01 -1.388245e-01 -3.188352e-07 2.213799e-06 -2.111722e-04
Ga -3.218172e+00 1.802010e+00 5.031334e+00 -1.094859e-05 2.128483e-05 9.614006e-05
Ga -3.233513e+00 1.820572e+00 -5.324260e+00 4.270379e-05 4.989372e-05 -3.797926e-05
Ga -3.224660e+00 1.796086e+00 -1.340418e-01 -1.346498e-04 -3.337083e-05 -7.147495e-05
Ga -3.446942e-02 -3.732605e+00 5.051664e+00 -1.925156e-05 3.947325e-05 1.238471e-04
Al -3.379163e-02 -3.731614e+00 -5.327734e+00 1.282180e-04 3.244269e-04 -4.019481e-04
Ga -4.241951e-02 -3.724163e+00 -1.610106e-01 -1.553060e-04 -8.135591e-05 -1.402226e-04
Ga -1.610994e+00 -9.585210e-01 5.036212e+00 -1.711693e-04 1.117086e-04 -3.041773e-05
Ga -1.612062e+00 -9.782808e-01 -5.297526e+00 -1.017696e-04 8.446875e-05 1.118356e-05
Ga -1.627453e+00 -9.766749e-01 -1.675960e-01 -2.251504e-04 1.074814e-05 2.159955e-05
N 1.531010e+00 9.014400e-01 4.366574e+00 1.344532e-04 -8.374290e-05 -2.244499e-06
N 1.614205e+00 9.121748e-01 -5.985352e+00 2.305841e-04 -6.951395e-05 -8.065405e-05
N 1.580014e+00 8.849484e-01 -8.356350e-01 1.544496e-04 -6.171952e-05 5.774395e-05
N -1.968748e-02 3.600304e+00 4.359513e+00 1.492659e-05 -7.749817e-05 -7.950586e-05
N -1.963410e-02 3.647274e+00 -6.004384e+00 1.038971e-04 -4.261993e-05 -9.018214e-05
N 1.907208e-02 3.671487e+00 -8.105119e-01 7.731104e-05 -7.174371e-05 -3.588207e-07
N 3.165977e+00 -1.884516e+00 4.340717e+00 6.022490e-05 -1.478396e-04 1.195698e-04
N 3.169309e+00 -1.880526e+00 -5.988423e+00 1.350686e-04 -9.824718e-05 -1.425191e-05
N 3.211850e+00 -1.858598e+00 -7.483474e-01 1.317043e-04 -5.474041e-05 8.896383e-05
N -4.817497e+00 8.812546e-01 4.343992e+00 6.343021e-05 -5.245348e-05 -1.421242e-04
N -4.866216e+00 9.066376e-01 -5.911928e+00 4.377358e-05 -1.330585e-05 -2.567114e-05
N -4.821833e+00 8.353547e-01 -7.513567e-01 9.492753e-05 -8.598871e-06 -9.777560e-05
N -6.409399e+00 3.651029e+00 4.332881e+00 8.187791e-06 -4.314409e-05 -1.601025e-04
N -6.372085e+00 3.623344e+00 -5.949724e+00 -7.782401e-05 -8.569772e-05 -4.051947e-05
N -6.452559e+00 3.665902e+00 -8.277763e-01 4.173038e-05 -1.292142e-04 1.967435e-04
N -3.216306e+00 -1.890794e+00 4.394479e+00 -1.030347e-06 -1.606829e-04 -1.118257e-04
N -3.217951e+00 -1.886498e+00 -5.935202e+00 4.093502e-05 -8.614940e-05 -7.800157e-05
N -3.263095e+00 -1.911398e+00 -7.781688e-01 4.242229e-05 -6.904574e-05 -2.084949e-04
N -1.575300e+00 9.085485e-01 4.432166e+00 1.112169e-04 -8.877397e-05 -1.017023e-04
N -1.614389e+00 8.830937e-01 -5.928189e+00 1.329259e-04 -1.312062e-04 2.193011e-05
N -1.613618e+00 8.885925e-01 -7.634590e-01 1.651052e-04 -1.093953e-04 -2.019375e-04
N -3.219749e+00 3.653086e+00 4.411400e+00 1.801216e-05 -8.138482e-05 -4.533464e-05
N -3.262105e+00 3.679671e+00 -5.972364e+00 2.217249e-05 -1.011750e-04 5.340166e-05
N -3.213169e+00 3.653835e+00 -7.648782e-01 9.457617e-05 -8.968648e-05 -1.272078e-04
N -1.597892e-02 -1.887530e+00 4.410613e+00 1.475640e-04 -1.882431e-04 -1.903948e-05
N -2.360625e-02 -1.930566e+00 -5.968672e+00 3.715009e-05 -2.663992e-04 1.126187e-04
N -1.383560e-02 -1.883378e+00 -8.355080e-01 1.545494e-04 -1.270519e-04 -1.229208e-04
N 2.596177e-02 1.826685e+00 1.836864e+00 3.065859e-05 1.386154e-04 9.682426e-05
N 2.757407e-02 1.828690e+00 6.949826e+00 -3.400344e-05 1.424913e-04 -1.287292e-04
N 2.343355e-02 1.835799e+00 -3.330327e+00 -1.332274e-04 1.288509e-04 -1.354392e-04
N 3.220934e+00 -3.707080e+00 1.851808e+00 8.018081e-05 1.349820e-04 1.538399e-04
N 3.174472e+00 -3.727626e+00 7.029268e+00 3.509690e-05 7.386369e-05 -9.206510e-05
N 3.218600e+00 -3.750574e+00 -3.350656e+00 -2.298880e-05 2.646497e-05 -4.606045e-05
N 1.614174e+00 -9.325785e-01 1.839620e+00 -5.990796e-05 1.996331e-04 2.714695e-04
N 1.575789e+00 -9.590871e-01 7.038955e+00 -5.962117e-05 1.104407e-04 -1.246483e-04
N 1.533201e+00 -9.349692e-01 -3.339285e+00 -1.396188e-04 4.397721e-05 -1.043400e-04
N 3.163472e+00 1.801708e+00 1.855744e+00 6.822732e-05 1.128700e-04 1.350126e-04
N 3.127391e+00 1.833491e+00 6.997304e+00 -1.053942e-04 7.960535e-05 -2.086232e-04
N 3.124016e+00 1.833099e+00 -3.386687e+00 4.201690e-05 -1.323873e-04 -1.639468e-04
N 6.364077e+00 -3.782500e+00 1.766831e+00 7.011276e-05 3.254394e-05 8.153802e-05
N 6.373199e+00 -3.784441e+00 7.012342e+00 -1.280060e-05 -7.470880e-06 -1.517891e-04
N 6.363713e+00 -3.726081e+00 -3.313956e+00 -1.048671e-04 6.670420e-05 -1.660207e-04
N 4.727658e+00 -9.395382e-01 1.785612e+00 6.269397e-06 1.064255e-04 1.531435e-04
N 4.722550e+00 -9.842949e-01 6.993235e+00 -1.195622e-04 2.670398e-05 -1.012694e-04
N 4.810884e+00 -9.885229e-01 -3.335126e+00 -1.172019e-06 1.434173e-05 -2.778182e-05
N -3.258467e+00 1.776643e+00 1.840978e+00 -4.175841e-05 1.061610e-04 2.693314e-05
N -3.221727e+00 1.850854e+00 7.013109e+00 -5.904780e-05 1.460640e-04 5.032278e-05
N -3.219878e+00 1.806631e+00 -3.356151e+00 -6.794174e-05 1.332993e-04 2.267980e-05
N -6.950498e-02 -3.751909e+00 1.813571e+00 -6.243068e-05 1.328527e-04 1.288596e-04
N -2.992379e-02 -3.731033e+00 7.041897e+00 -4.464513e-05 5.401030e-05 -1.468993e-04
N -7.023055e-02 -3.703267e+00 -3.393348e+00 4.495848e-04 8.116194e-06 -1.331284e-04
N -1.617680e+00 -9.649240e-01 1.805797e+00 -6.592673e-05 1.115258e-04 -5.759153e-05
N -1.572593e+00 -9.892869e-01 7.009681e+00 -9.991096e-05 3.307654e-05 -1.752327e-05
N -1.625036e+00 -1.014035e+00 -3.310417e+00 -1.159097e-04 1.232042e-04 -1.081570e-04
