108
Energy=-2816990.117599 Lattice="9.693238 0.000000 0.000000 -4.846144 8.393108 0.000000 -0.001193 -0.000114 15.745684" Stress="0.000000 0.000000 -0.000000 0.000000 0.000000 -0.000000 0.000000 0.000000 -0.000000" Properties=species:S:1:pos:R:3:forces:R:3
Al 1.590782 0.892580 2.480129 0.000005 0.000008 0.000010
Ga 1.587192 0.900400 7.724034 0.000002 -0.000001 0.000008
Ga 1.591615 0.893760 -2.772867 -0.000000 -0.000000 0.000006
Ga -0.019110 3.681852 2.478839 0.000006 0.000012 0.000004
Al -0.023206 3.688675 7.721185 0.000000 -0.000001 0.000008
Ga -0.022654 3.688644 -2.768606 0.000002 -0.000001 0.000011
Ga 3.202638 -1.899545 2.481240 0.000009 0.000008 0.000009
Ga 3.210426 -1.912084 7.721473 -0.000003 -0.000003 0.000012
Ga 3.207181 -1.905790 -2.770858 -0.000003 -0.000004 0.000005
Ga -4.879408 0.892014 2.476505 0.000007 0.000009 0.000006
Ga -4.871862 0.892920 7.723265 -0.000001 -0.000001 0.000010
Ga -4.870878 0.893639 -2.766336 -0.000000 -0.000003 0.000005
Ga -6.491844 3.682560 2.481163 0.000005 0.000006 0.000003
Ga -6.495518 3.688632 7.722051 0.000001 -0.000001 0.000008
Ga -6.486444 3.689024 -2.770683 0.000000 -0.000002 0.000005
Ga -3.254861 -1.907436 2.482450 0.000003 0.000000 0.000010
Ga -3.259422 -1.913300 7.726108 -0.000002 -0.000005 0.000009
Ga -3.254307 -1.906537 -2.775696 -0.000001 -0.000005 0.000007
Ga -1.628064 0.893205 2.481036 0.000012 0.000007 0.000011
Ga -1.632919 0.900900 7.721867 0.000000 -0.000004 0.000006
Ga -1.635673 0.894663 -2.770651 0.000002 -0.000002 -0.000006
Ga -3.253445 3.690619 2.483159 0.000010 0.000011 0.000008
Ga -3.245510 3.690318 7.726175 -0.000001 -0.000000 0.000009
Ga -3.252048 3.690699 -2.774064 0.000001 -0.000003 0.000006
Ga -0.019237 -1.897882 2.477862 0.000007 0.000002 0.000013
Ga -0.022787 -1.904156 7.723885 -0.000002 -0.000003 0.000011
Ga -0.021259 -1.904380 -2.766577 -0.000001 -0.000003 0.000006
Ga -0.016150 1.826622 5.101755 0.000010 -0.000001 0.000012
Ga -0.022677 1.833299 -5.408423 0.000005 0.000001 0.000003
Ga -0.017539 1.822445 -0.133251 0.000020 0.000017 -0.000002
Ga 3.212040 -3.773528 5.113975 0.000005 0.000001 0.000011
Ga 3.216255 -3.773998 -5.408459 0.000007 -0.000004 0.000007
Ga 3.207715 -3.770118 -0.144479 0.000020 0.000009 0.000006
Ga 1.591222 -0.964779 5.090633 0.000007 0.000004 0.000015
Ga 1.592811 -0.972795 -5.396614 0.000003 -0.000000 0.000007
Ga 1.593757 -0.966187 -0.133055 0.000017 0.000010 0.000003
Ga 3.200264 1.820637 5.090624 0.000009 0.000005 0.000007
Ga 3.208775 1.825151 -5.396380 0.000005 0.000001 0.000007
Ga 3.202229 1.822929 -0.133392 0.000016 0.000014 0.000007
Ga 6.433107 -3.772982 5.113866 0.000012 -0.000001 0.000011
Ga 6.431749 -3.775640 -5.408602 0.000006 -0.000003 0.000007
Ga 6.439506 -3.769477 -0.144754 0.000012 0.000006 0.000002
Ga 4.822998 -0.972538 5.102729 0.000006 0.000001 0.000013
Ga 4.822741 -0.971542 -5.396607 0.000005 -0.000001 0.000008
Ga 4.824428 -0.973828 -0.144842 0.000017 0.000013 0.000007
Ga -3.255110 1.824807 5.102654 0.000007 0.000001 0.000011
Ga -3.253918 1.824337 -5.396163 0.000005 -0.000002 0.000004
Ga -3.252611 1.826466 -0.144403 0.000012 0.000012 0.000012
Ga -0.024071 -3.769986 5.102854 0.000005 -0.000003 0.000013
Ga -0.023617 -3.769832 -5.396222 0.000004 -0.000003 0.000007
Ga -0.022485 -3.771034 -0.144404 0.000013 0.000006 0.000006
Ga -1.639254 -0.973084 5.102755 0.000003 0.000001 0.000016
Ga -1.637296 -0.971965 -5.396441 0.000004 -0.000002 0.000006
Ga -1.638928 -0.971985 -0.144536 0.000012 0.000004 0.000011
N 1.588960 0.893726 4.406056 -0.000007 -0.000005 -0.000016
N 1.593089 0.892962 -6.039307 -0.000004 -0.000005 -0.000003
N 1.592322 0.893182 -0.790733 -0.000015 -0.000014 -0.000005
N -0.023442 3.690334 4.458867 -0.000007 0.000003 -0.000010
N -0.022472 3.689296 -6.099242 -0.000008 0.000002 -0.000008
N -0.022604 3.687723 -0.783329 -0.000017 -0.000011 -0.000008
N 3.207113 -1.908154 4.465634 -0.000004 0.000000 -0.000014
N 3.207922 -1.904671 -6.040356 -0.000006 -0.000000 -0.000007
N 3.205657 -1.903820 -0.784300 -0.000019 -0.000013 -0.000003
N -4.870463 0.892492 4.458589 -0.000005 -0.000001 -0.000011
N -4.869753 0.893316 -6.039297 -0.000005 -0.000003 -0.000007
N -4.871733 0.894885 -0.780703 -0.000017 -0.000017 -0.000004
N -6.488500 3.692025 4.465413 -0.000006 0.000003 -0.000011
N -6.484714 3.689796 -6.040086 -0.000006 0.000001 -0.000004
N -6.484943 3.687990 -0.784193 -0.000014 -0.000010 -0.000002
N -3.254722 -1.908213 4.466094 -0.000003 0.000001 -0.000016
N -3.254059 -1.904956 -6.036535 -0.000006 0.000000 -0.000006
N -3.253492 -1.905077 -0.791178 -0.000016 -0.000010 -0.000003
N -1.636304 0.894052 4.465247 -0.000002 -0.000002 -0.000017
N -1.637755 0.893231 -6.040046 -0.000003 -0.000002 -0.000001
N -1.634771 0.895201 -0.784087 -0.000015 -0.000013 0.000002
N -3.252139 3.691973 4.466669 -0.000003 0.000002 -0.000014
N -3.253392 3.690438 -6.036536 -0.000005 0.000002 -0.000005
N -3.252889 3.691159 -0.789501 -0.000014 -0.000010 -0.000004
N -0.023996 -1.905093 4.460136 0.000000 0.000001 -0.000017
N -0.022218 -1.904630 -6.038835 -0.000001 -0.000000 -0.000008
N -0.019711 -1.903215 -0.780829 -0.000012 -0.000009 -0.000004
N 0.020801 1.799588 1.856708 -0.000012 -0.000018 -0.000002
N -0.020409 1.873710 7.094988 -0.000002 0.000009 -0.000008
N -0.022454 1.828443 -3.421977 -0.000003 0.000002 -0.000003
N 3.208075 -3.770591 1.838640 -0.000011 -0.000006 -0.000012
N 3.250692 -3.796034 7.103763 0.000005 0.000001 -0.000007
N 3.212064 -3.771680 -3.420534 -0.000003 0.000001 -0.000006
N 1.592703 -0.922392 1.858689 -0.000011 -0.000005 -0.000009
N 1.592615 -0.968771 7.076767 -0.000000 0.000004 -0.000011
N 1.592580 -0.972748 -3.413210 -0.000003 0.000004 -0.000002
N 3.162662 1.799649 1.857968 -0.000006 -0.000007 -0.000009
N 3.204611 1.822894 7.074671 0.000001 0.000002 -0.000013
N 3.208490 1.824766 -3.413174 -0.000001 0.000001 -0.000004
N 6.437965 -3.770893 1.836363 -0.000000 -0.000001 -0.000008
N 6.394161 -3.795602 7.103587 -0.000002 0.000002 -0.000008
N 6.436054 -3.773591 -3.420687 -0.000002 0.000001 -0.000006
N 4.823056 -0.975072 1.837811 -0.000007 -0.000005 -0.000011
N 4.823098 -0.972792 7.083623 0.000002 0.000005 -0.000012
N 4.822601 -0.971676 -3.411826 -0.000000 0.000005 -0.000003
N -3.253398 1.823843 1.840078 -0.000006 -0.000008 -0.000010
N -3.254935 1.824934 7.083675 0.000000 0.000004 -0.000013
N -3.253920 1.823888 -3.411490 -0.000005 0.000003 0.000000
N -0.025106 -3.771532 1.840251 -0.000007 -0.000007 -0.000009
N -0.023851 -3.771846 7.085932 0.000002 0.000004 -0.000010
N -0.023816 -3.769788 -3.411361 -0.000003 0.000000 -0.000004
N -1.640256 -0.973029 1.838199 -0.000006 0.000006 -0.000013
N -1.640527 -0.972502 7.085686 0.000001 0.000005 -0.000011
N -1.636858 -0.972203 -3.411646 -0.000003 0.000002 -0.000001
