108
Energy=-848643.540308 Lattice="9.447549 0.000000 0.000000 -4.726905 8.177373 0.000000 -0.012215 -0.007361 15.194710" Stress="0.000006 -0.000001 -0.000003 -0.000001 0.000002 -0.000002 -0.000003 -0.000002 0.000009" Properties=species:S:1:pos:R:3:forces:R:3
Al 1.550311 0.868706 2.422682 -0.000226 -0.000103 0.000242
Al 1.550732 0.873476 7.445987 -0.000035 0.000040 -0.000020
Al 1.553080 0.872663 -2.719992 0.000111 0.000021 -0.000200
Al -0.009688 3.597800 2.419425 -0.000100 0.000057 -0.000053
Al -0.030377 3.590541 7.444857 -0.000014 -0.000028 -0.000027
Al -0.020124 3.590619 -2.715225 0.000009 -0.000043 -0.000101
Al 3.134927 -1.845990 2.414729 0.000083 -0.000200 -0.000057
Al 3.130131 -1.860780 7.447140 -0.000020 0.000038 -0.000015
Al 3.128535 -1.849896 -2.710787 0.000061 0.000012 -0.000095
Al -4.746207 0.860181 2.403202 0.000001 -0.000247 0.000203
Al -4.758991 0.863751 7.435040 0.000053 0.000017 -0.000121
Al -4.751849 0.869483 -2.689471 -0.000013 0.000075 -0.000087
Al -6.338093 3.597921 2.390869 -0.000254 -0.000163 0.000164
Al -6.339470 3.579037 7.461547 0.000011 -0.000028 -0.000064
Al -6.318755 3.593856 -2.700722 0.000049 -0.000022 0.000004
Al -3.173883 -1.859226 2.380863 -0.000033 -0.000051 -0.000057
Al -3.183916 -1.858885 7.446220 -0.000099 -0.000012 0.000035
Ga -3.172465 -1.854032 -2.679176 -0.000079 -0.000016 0.000021
Al -1.602266 0.860674 2.400338 0.000105 -0.000208 0.000177
Al -1.603107 0.868667 7.437554 0.000024 0.000035 -0.000159
Al -1.587642 0.874214 -2.685230 0.000109 -0.000159 -0.000066
Ga -3.175359 3.586154 2.389898 -0.000005 0.000039 -0.000049
Al -3.167730 3.585756 7.452901 0.000062 -0.000048 -0.000010
Al -3.175308 3.601274 -2.685803 0.000015 -0.000089 -0.000110
Al -0.032307 -1.848229 2.393308 -0.000030 -0.000104 -0.000062
Ga -0.029265 -1.850206 7.466933 -0.000018 -0.000010 -0.000037
Al -0.015809 -1.855485 -2.703561 0.000108 -0.000140 -0.000091
Al -0.028673 1.775499 4.922400 0.000043 -0.000015 -0.000022
Al -0.013458 1.779413 -5.228711 0.000064 0.000031 -0.000033
Ga -0.028810 1.781198 -0.138989 -0.000000 0.000083 0.000037
Al 3.138850 -3.671544 4.934499 0.000015 -0.000026 -0.000020
Al 3.136631 -3.664471 -5.221088 -0.000032 0.000043 -0.000035
Ga 3.139498 -3.667962 -0.156484 -0.000040 0.000009 0.000008
Al 1.556257 -0.941809 4.918728 -0.000013 0.000085 -0.000092
Al 1.563641 -0.942703 -5.213006 0.000188 0.000072 0.000058
Ga 1.551466 -0.954679 -0.147818 -0.000078 -0.000034 -0.000012
Al 3.117476 1.771314 4.920966 -0.000017 -0.000083 0.000063
Al 3.123567 1.779683 -5.220986 0.000015 -0.000029 -0.000029
Ga 3.138975 1.784828 -0.145395 -0.000034 0.000025 -0.000030
Al 6.266760 -3.672856 4.927927 0.000049 -0.000014 0.000002
Al 6.281296 -3.673264 -5.235721 -0.000050 0.000024 -0.000085
Al 6.285156 -3.666398 -0.140465 -0.000273 -0.000125 0.000048
Al 4.701513 -0.952309 4.921663 -0.000051 0.000031 -0.000013
Al 4.699836 -0.949869 -5.237800 0.000028 0.000017 -0.000182
Al 4.711756 -0.943163 -0.131857 -0.000139 -0.000072 0.000184
Al -3.172690 1.761114 4.939512 -0.000016 -0.000143 0.000096
Ga -3.167794 1.777412 -5.217620 -0.000002 -0.000007 -0.000014
Al -3.176643 1.763741 -0.163470 0.000102 0.000053 -0.000142
Ga -0.033853 -3.676956 4.931807 -0.000048 -0.000005 -0.000020
Al -0.021118 -3.672387 -5.211746 0.000071 -0.000062 0.000008
Al -0.036043 -3.668147 -0.158798 0.000093 0.000110 -0.000213
Al -1.612116 -0.942876 4.908895 -0.000120 0.000043 0.000170
Al -1.593171 -0.945500 -5.214461 0.000074 0.000021 -0.000131
Al -1.600640 -0.949748 -0.138930 -0.000241 -0.000255 0.000066
N 1.546442 0.869327 4.332920 0.000050 -0.000014 -0.000020
N 1.556751 0.871504 -5.823735 0.000053 0.000012 0.000018
N 1.552311 0.872371 -0.815956 0.000033 -0.000015 0.000256
N -0.024427 3.595377 4.335273 0.000032 0.000021 0.000044
N -0.022412 3.597056 -5.828407 -0.000011 -0.000006 0.000032
N 0.023936 3.618187 -0.804925 0.000049 0.000040 0.000184
N 3.127455 -1.858024 4.329590 0.000018 -0.000008 0.000010
N 3.129500 -1.855395 -5.828120 0.000012 0.000037 0.000024
N 3.174735 -1.826026 -0.800919 -0.000073 0.000013 0.000056
N -4.747497 0.867049 4.327248 0.000110 0.000005 0.000050
N -4.785469 0.850722 -5.849549 -0.000001 0.000030 0.000098
N -4.711028 0.839816 -0.775633 0.000033 0.000107 0.000036
N -6.372360 3.571737 4.301310 -0.000060 0.000177 -0.000158
N -6.318783 3.593932 -5.818450 -0.000000 0.000029 0.000045
N -6.326871 3.642479 -0.781051 0.000084 0.000059 -0.000040
N -3.177270 -1.861926 4.307283 0.000033 0.000023 0.000019
N -3.164961 -1.851976 -5.826712 0.000030 -0.000006 0.000030
N -3.172635 -1.854333 -0.693316 0.000360 -0.000055 -0.000018
N -1.605862 0.869760 4.319600 0.000097 -0.000042 0.000062
N -1.551689 0.847702 -5.848525 -0.000026 -0.000179 0.000397
N -1.630755 0.843601 -0.770717 0.000005 0.000110 0.000080
N -3.135225 3.565709 4.360779 -0.000006 0.000167 -0.000167
N -3.166104 3.644641 -5.831598 0.000071 -0.000063 0.000011
N -3.214243 3.576434 -0.762808 0.000024 -0.000171 0.000090
N -0.027708 -1.810964 4.306808 0.000012 -0.000080 -0.000018
N -0.015605 -1.850860 -5.756783 -0.000442 -0.000049 -0.000098
N -0.063805 -1.874890 -0.780719 0.000025 -0.000047 0.000113
N -0.024183 1.778493 1.847698 0.000157 0.000115 -0.000059
N -0.027235 1.774102 6.843352 -0.000016 0.000078 -0.000021
N -0.025376 1.778218 -3.309002 -0.000028 -0.000030 -0.000009
N 3.174597 -3.648441 1.819678 -0.000032 0.000120 0.000028
N 3.126385 -3.675488 6.850981 -0.000013 0.000097 0.000011
N 3.128342 -3.673055 -3.296491 -0.000014 0.000066 0.000004
N 1.553720 -0.947869 1.839059 0.000111 -0.000002 -0.000096
N 1.588627 -0.927951 6.831508 0.000016 -0.000025 0.000117
N 1.557063 -0.947252 -3.297790 -0.000069 0.000080 0.000047
N 3.124042 1.773030 1.839614 0.000337 0.000334 -0.000175
N 3.118358 1.776879 6.839957 0.000005 -0.000010 0.000021
N 3.132718 1.780873 -3.300016 0.000005 0.000023 0.000032
N 6.272271 -3.678435 1.781824 0.000022 -0.000022 0.000034
N 6.273020 -3.676384 6.851236 0.000011 0.000015 0.000027
N 6.281650 -3.714132 -3.326257 0.000049 -0.000008 0.000048
N 4.695876 -0.946064 1.792165 0.000006 -0.000011 0.000050
N 4.697629 -0.954384 6.841041 -0.000069 -0.000002 -0.000011
N 4.668383 -0.921268 -3.328776 -0.000122 -0.000162 0.000247
N -3.174143 1.723117 1.757333 -0.000327 0.000234 -0.000332
N -3.178469 1.771312 6.856299 0.000004 0.000029 0.000010
N -3.169316 1.778359 -3.240111 -0.000081 0.000189 0.000050
N -0.066354 -3.650430 1.764899 0.000055 0.000265 0.000122
N -0.031596 -3.723594 6.895049 -0.000037 0.000056 -0.000035
N -0.018646 -3.675785 -3.293633 -0.000005 -0.000039 0.000010
N -1.596734 -0.945633 1.785411 0.000028 -0.000079 0.000033
N -1.645548 -0.930648 6.821613 0.000099 -0.000010 -0.000338
N -1.559911 -0.920600 -3.306841 -0.000068 0.000164 0.000024
