108
Energy=-1397949.262545 Lattice="9.509637 0.000000 0.000000 -4.755778 8.234132 0.000000 -0.003271 0.001814 15.351117" Stress="-0.000001 -0.000000 -0.000000 -0.000001 -0.000002 0.000000 -0.000000 0.000000 -0.000002" Properties=species:S:1:pos:R:3:forces:R:3
Al 1.571900 0.870449 2.406526 0.000223 -0.000105 -0.000024
Al 1.574173 0.880230 7.528956 -0.000067 -0.000018 0.000020
Al 1.567187 0.866426 -2.712439 -0.000080 0.000014 -0.000004
Al -0.008029 3.627754 2.429638 -0.000099 0.000078 -0.000016
Al -0.017531 3.623903 7.515028 -0.000073 0.000139 -0.000035
Al -0.024041 3.612429 -2.708047 0.000035 -0.000013 0.000063
Al 3.143110 -1.855192 2.401285 -0.000064 -0.000023 -0.000051
Al 3.140410 -1.869643 7.549802 0.000050 -0.000020 -0.000084
Ga 3.131137 -1.863308 -2.716724 -0.000004 0.000039 -0.000002
Al -4.793631 0.870791 2.406169 0.000009 0.000122 0.000057
Al -4.795587 0.884546 7.539453 -0.000043 -0.000252 0.000002
Al -4.780677 0.888096 -2.712552 0.000007 -0.000081 0.000077
Ga -6.376466 3.615287 2.402677 0.000038 -0.000014 0.000063
Al -6.365746 3.611949 7.524060 0.000036 0.000109 -0.000131
Ga -6.362859 3.606414 -2.697781 0.000011 -0.000021 0.000047
Al -3.195649 -1.877376 2.396079 -0.000129 -0.000038 -0.000029
Al -3.197190 -1.881339 7.519176 -0.000054 0.000000 -0.000017
Ga -3.184252 -1.867129 -2.681601 -0.000040 0.000007 0.000026
Ga -1.605790 0.868730 2.401631 -0.000009 0.000028 0.000008
Ga -1.601641 0.881717 7.532334 0.000007 -0.000045 0.000030
Al -1.610249 0.876901 -2.698028 -0.000076 -0.000045 -0.000055
Ga -3.197380 3.625143 2.392219 0.000002 -0.000024 0.000030
Al -3.199115 3.628288 7.566801 0.000210 -0.000030 -0.000026
Ga -3.191599 3.611094 -2.720867 0.000043 -0.000058 -0.000009
Al -0.017948 -1.860103 2.379717 0.000033 -0.000044 -0.000005
Al -0.013882 -1.876559 7.552961 -0.000060 -0.000027 0.000033
Al -0.012478 -1.855834 -2.702840 0.000036 0.000024 0.000110
Al 0.004371 1.802183 4.968355 0.000027 0.000126 -0.000091
Ga -0.012218 1.792790 -5.245719 -0.000003 0.000054 0.000008
Ga -0.010222 1.787389 -0.163659 -0.000001 0.000028 0.000009
Ga 3.161575 -3.702088 4.985015 -0.000050 0.000079 0.000048
Al 3.138536 -3.705175 -5.285844 -0.000085 -0.000051 -0.000202
Ga 3.151215 -3.701763 -0.134525 -0.000029 -0.000026 0.000043
Ga 1.558178 -0.937238 4.976105 -0.000061 0.000016 0.000022
Al 1.561655 -0.957516 -5.278017 0.000035 -0.000083 0.000084
Al 1.548077 -0.946775 -0.142500 -0.000127 0.000084 0.000068
Al 3.130873 1.791027 4.979925 0.000293 0.000214 -0.000090
Al 3.155187 1.786876 -5.278149 -0.000039 -0.000200 0.000241
Al 3.151655 1.785604 -0.152506 0.000064 -0.000042 0.000048
Al 6.314154 -3.710291 4.980878 0.000051 -0.000068 -0.000041
Ga 6.321295 -3.713346 -5.284863 -0.000009 0.000026 0.000031
Al 6.323313 -3.703430 -0.134402 0.000033 -0.000063 0.000119
Ga 4.729971 -0.951147 4.969760 -0.000049 -0.000002 0.000030
Ga 4.722815 -0.942255 -5.277208 -0.000038 0.000018 -0.000002
Ga 4.735615 -0.933706 -0.129539 -0.000015 0.000000 -0.000035
Ga -3.207479 1.791529 4.989825 -0.000092 -0.000000 0.000003
Al -3.207461 1.801297 -5.265108 -0.000161 0.000133 0.000016
Al -3.208746 1.782401 -0.161096 -0.000099 -0.000047 0.000025
Ga -0.037167 -3.697012 4.997551 0.000026 -0.000017 0.000005
Al -0.012898 -3.702730 -5.283392 0.000143 0.000071 -0.000127
Al -0.032534 -3.687302 -0.157062 -0.000010 0.000043 0.000045
Ga -1.605087 -0.967642 4.971134 -0.000024 -0.000035 0.000028
Ga -1.591081 -0.960792 -5.253172 -0.000009 -0.000063 0.000029
Al -1.595574 -0.961142 -0.152428 -0.000005 -0.000050 -0.000008
N 1.567022 0.922035 4.330225 -0.000099 -0.000104 0.000071
N 1.604173 0.854865 -5.899830 0.000078 0.000122 -0.000078
N 1.610768 0.847246 -0.791889 -0.000028 -0.000005 -0.000107
N 0.020505 3.600627 4.349372 0.000018 -0.000056 -0.000028
N -0.061728 3.634097 -5.928755 0.000038 -0.000006 0.000080
N 0.017647 3.648909 -0.803409 0.000081 0.000011 -0.000028
N 3.139705 -1.866585 4.309020 0.000008 0.000030 -0.000068
N 3.105500 -1.893863 -5.886553 -0.000066 0.000143 0.000068
N 3.103122 -1.842748 -0.742740 0.000131 -0.000035 -0.000022
N -4.825822 0.905333 4.322017 -0.000059 0.000009 -0.000052
N -4.779521 0.926311 -5.901653 0.000020 0.000035 -0.000039
N -4.782246 0.926221 -0.796630 0.000015 -0.000013 -0.000043
N -6.404736 3.595868 4.391587 -0.000113 -0.000019 0.000061
N -6.320126 3.589962 -5.904483 -0.000093 -0.000084 0.000055
N -6.364169 3.616083 -0.708338 -0.000106 0.000116 -0.000055
N -3.193441 -1.921485 4.319053 0.000045 -0.000016 0.000050
N -3.187747 -1.870321 -5.930022 -0.000004 0.000049 -0.000034
N -3.153411 -1.893368 -0.710462 0.000057 0.000001 0.000004
N -1.567869 0.901889 4.383226 0.000032 -0.000020 0.000038
N -1.643289 0.901786 -5.851205 0.000133 -0.000088 -0.000029
N -1.651687 0.853474 -0.773350 0.000081 -0.000039 0.000065
N -3.198689 3.624697 4.355146 0.000027 -0.000092 -0.000069
N -3.193209 3.616903 -5.863279 0.000014 -0.000027 -0.000001
N -3.233933 3.599016 -0.735954 0.000037 -0.000004 -0.000091
N -0.018230 -1.871547 4.289008 -0.000013 -0.000032 0.000023
N 0.020633 -1.892860 -5.892071 0.000041 0.000004 -0.000004
N -0.015502 -1.865360 -0.772751 -0.000014 -0.000047 0.000020
N 0.022596 1.817830 1.819933 -0.000174 0.000163 -0.000065
N 0.026975 1.813731 6.891283 0.000039 -0.000141 -0.000029
N -0.019656 1.787846 -3.255890 0.000084 -0.000004 0.000018
N 3.196845 -3.676691 1.837689 0.000108 -0.000052 0.000039
N 3.142824 -3.697373 6.971823 -0.000078 -0.000087 0.000061
N 3.190562 -3.724480 -3.368474 0.000034 0.000040 0.000128
N 1.559078 -0.946452 1.785179 -0.000008 -0.000006 0.000025
N 1.559649 -0.952680 6.963033 0.000121 0.000048 0.000063
N 1.516772 -0.928515 -3.357717 0.000066 -0.000007 -0.000126
N 3.144829 1.739073 1.764812 0.000023 -0.000041 0.000025
N 3.144749 1.787059 6.905661 -0.000048 -0.000019 0.000065
N 3.145517 1.742599 -3.353387 -0.000055 0.000080 -0.000169
N 6.272076 -3.680488 1.777268 -0.000029 -0.000005 -0.000147
N 6.317856 -3.700451 6.908982 0.000036 -0.000008 0.000029
N 6.280688 -3.723364 -3.316647 -0.000009 -0.000014 -0.000081
N 4.732771 -0.948982 1.852801 0.000038 0.000011 -0.000019
N 4.726489 -0.951525 6.965407 -0.000034 0.000144 0.000110
N 4.735290 -0.907751 -3.304136 0.000011 -0.000031 0.000015
N -3.238687 1.760569 1.752601 -0.000053 -0.000069 -0.000016
N -3.240018 1.818362 6.960834 0.000066 0.000131 0.000024
N -3.194882 1.739971 -3.344738 0.000070 0.000041 0.000002
N -0.029727 -3.650451 1.750500 -0.000001 0.000025 -0.000072
N -0.021392 -3.696937 6.981350 -0.000071 -0.000012 -0.000002
N -0.027000 -3.648624 -3.360780 -0.000057 0.000004 0.000066
N -1.607631 -1.000228 1.769184 0.000044 0.000074 -0.000083
N -1.601469 -1.006322 6.948397 -0.000039 0.000031 0.000007
N -1.563959 -0.932838 -3.277632 -0.000053 0.000022 -0.000036
