108
Energy=-573990.761317 Lattice="9.412648 0.000000 0.000000 -4.706701 8.151811 0.000000 0.000102 0.000208 15.096443" Stress="0.000000 -0.000000 -0.000000 -0.000000 -0.000000 0.000000 -0.000000 0.000000 -0.000000" Properties=species:S:1:pos:R:3:forces:R:3
Al 1.546797 0.867343 2.371628 -0.000012 -0.000002 -0.000027
Al 1.546278 0.874593 7.379265 -0.000004 -0.000003 -0.000023
Al 1.550016 0.882825 -2.649814 -0.000006 -0.000030 -0.000024
Al -0.021738 3.584637 2.367201 0.000004 -0.000008 -0.000028
Al -0.027860 3.581107 7.383944 -0.000002 -0.000010 -0.000027
Al -0.029588 3.580004 -2.651582 0.000010 -0.000007 -0.000009
Al 3.115970 -1.850354 2.371580 -0.000001 -0.000003 -0.000014
Al 3.121916 -1.854278 7.379120 0.000002 -0.000006 -0.000016
Al 3.131096 -1.855382 -2.649729 -0.000039 0.000026 -0.000035
Al -4.727243 0.867850 2.368198 -0.000007 -0.000004 -0.000010
Al -4.730046 0.866300 7.392933 0.000001 -0.000009 -0.000011
Al -4.729447 0.866621 -2.666319 -0.000005 -0.000018 -0.000016
Al -6.299883 3.583272 2.371787 -0.000005 -0.000013 -0.000014
Al -6.293633 3.580302 7.378811 0.000007 -0.000008 -0.000011
Al -6.294641 3.572990 -2.649467 0.000007 -0.000013 -0.000016
Al -3.161725 -1.851982 2.371755 0.000001 -0.000012 -0.000017
Al -3.161178 -1.845002 7.378840 0.000004 -0.000005 -0.000016
Al -3.168089 -1.842351 -2.649502 0.000001 -0.000006 -0.000018
Al -1.593825 0.869781 2.372335 0.000005 0.000008 -0.000016
Al -1.590244 0.867918 7.389341 0.000001 -0.000002 -0.000024
Al -1.595872 0.873713 -2.663869 -0.000001 -0.000008 -0.000028
Al -3.159002 3.580752 2.372367 0.000011 -0.000000 -0.000007
Al -3.158857 3.584864 7.389256 0.000004 -0.000004 -0.000016
Al -3.156606 3.577283 -2.663911 -0.000002 -0.000004 -0.000017
Al -0.021163 -1.849784 2.368274 0.000002 0.000008 0.000001
Al -0.027654 -1.853428 7.381166 0.000008 -0.000004 -0.000007
Ga -0.031180 -1.855469 -2.645048 0.000014 -0.000002 -0.000016
Al -0.023830 1.773129 4.875102 0.000002 -0.000003 -0.000032
Al -0.030812 1.772300 -5.184021 -0.000001 -0.000002 -0.000037
Al -0.024305 1.771823 -0.140641 -0.000001 0.000004 -0.000024
Al 3.115118 -3.663348 4.875076 -0.000000 -0.000005 -0.000013
Al 3.110866 -3.668839 -5.184183 0.000003 -0.000004 -0.000028
Al 3.113896 -3.663291 -0.140590 -0.000017 -0.000009 -0.000042
Al 1.546477 -0.944818 4.880900 0.000003 0.000004 -0.000018
Ga 1.551671 -0.942090 -5.191100 0.000002 -0.000001 -0.000009
Al 1.554019 -0.940552 -0.134568 0.000002 0.000000 -0.000012
Al 3.116896 1.771465 4.875051 -0.000003 -0.000001 -0.000018
Al 3.122392 1.773393 -5.183794 -0.000005 0.000008 -0.000027
Al 3.116945 1.772383 -0.140479 -0.000013 -0.000006 -0.000010
Al 6.251728 -3.662608 4.880585 -0.000006 0.000001 -0.000012
Ga 6.253568 -3.661652 -5.181262 0.000002 0.000009 -0.000019
Al 6.253296 -3.661797 -0.148328 -0.000009 -0.000000 0.000008
Al 4.683914 -0.942428 4.875032 0.000003 0.000010 -0.000012
Al 4.688225 -0.938729 -5.183792 0.000002 0.000005 -0.000024
Al 4.684806 -0.942914 -0.140467 -0.000005 -0.000003 -0.000023
Al -3.161039 1.772334 4.883284 0.000002 -0.000003 -0.000019
Al -3.159823 1.772994 -5.188667 0.000008 0.000004 -0.000016
Al -3.160315 1.772691 -0.149206 -0.000008 -0.000008 -0.000035
Al -0.021013 -3.662476 4.874326 -0.000003 0.000001 -0.000014
Al -0.018471 -3.674606 -5.194676 0.000007 -0.000006 0.000000
Al -0.020790 -3.671073 -0.126335 -0.000009 -0.000017 -0.000042
Al -1.591010 -0.943231 4.874276 0.000004 0.000009 -0.000016
Al -1.600209 -0.934972 -5.194482 -0.000006 0.000013 -0.000003
Al -1.598271 -0.938888 -0.126498 -0.000014 -0.000000 -0.000015
N 1.546300 0.866648 4.285852 0.000001 -0.000015 0.000029
N 1.546016 0.919711 -5.805492 0.000010 -0.000016 0.000024
N 1.546571 0.871419 -0.734418 0.000009 -0.000019 0.000025
N -0.021705 3.584584 4.281847 0.000004 -0.000004 0.000025
N -0.063998 3.560186 -5.800370 -0.000000 -0.000005 0.000029
N -0.026408 3.581743 -0.735960 0.000008 -0.000008 0.000013
N 3.115100 -1.850472 4.285864 0.000000 -0.000007 0.000017
N 3.160669 -1.877037 -5.805479 0.000002 0.000001 0.000021
N 3.119468 -1.852791 -0.734344 0.000002 0.000002 -0.000002
N -4.726896 0.868156 4.281138 0.000003 -0.000014 0.000019
N -4.729636 0.866496 -5.781224 -0.000003 -0.000017 0.000015
N -4.729455 0.866604 -0.745669 0.000007 -0.000016 0.000009
N -6.299436 3.584124 4.285813 0.000009 -0.000004 0.000017
N -6.259024 3.558744 -5.808129 0.000009 -0.000013 0.000017
N -6.292945 3.582124 -0.734365 0.000010 -0.000007 0.000011
N -3.160720 -1.852009 4.285800 0.000006 -0.000009 0.000017
N -3.162467 -1.804425 -5.808101 -0.000001 -0.000004 0.000020
N -3.159141 -1.845605 -0.734396 0.000004 -0.000005 0.000007
N -1.593770 0.869174 4.284601 0.000006 -0.000010 0.000024
N -1.591046 0.869669 -5.787703 0.000006 -0.000011 0.000024
N -1.591172 0.866068 -0.744251 -0.000000 -0.000015 0.000027
N -3.159588 3.581201 4.284653 0.000010 0.000003 0.000015
N -3.157732 3.583209 -5.787827 0.000006 0.000006 0.000016
N -3.160875 3.584846 -0.744289 0.000013 -0.000004 0.000009
N -0.021339 -1.849968 4.284397 0.000009 -0.000001 0.000018
N -0.065172 -1.875218 -5.799860 0.000005 0.000006 -0.000018
N -0.025677 -1.852525 -0.672412 -0.000006 0.000012 0.000063
N -0.023271 1.772126 1.776319 -0.000011 -0.000007 0.000020
N -0.024902 1.772630 6.786584 -0.000010 0.000004 0.000027
N -0.022520 1.772473 -3.260701 -0.000015 0.000005 0.000023
N 3.114356 -3.662302 1.776263 -0.000000 0.000009 0.000046
N 3.114062 -3.663864 6.786590 -0.000009 0.000005 0.000022
N 3.115286 -3.661892 -3.260763 -0.000017 0.000007 0.000014
N 1.550552 -0.942504 1.780742 -0.000010 0.000002 0.000004
N 1.546771 -0.944630 6.800273 -0.000011 0.000004 0.000020
N 1.588361 -0.920696 -3.219827 0.000046 -0.000005 0.000040
N 3.115529 1.772471 1.776299 0.000006 0.000021 0.000008
N 3.118456 1.770524 6.786229 -0.000007 0.000013 0.000013
N 3.114537 1.773047 -3.262328 -0.000003 0.000012 0.000023
N 6.253164 -3.661847 1.771384 -0.000002 0.000022 -0.000001
N 6.251722 -3.662619 6.798188 -0.000005 0.000011 0.000018
N 6.253433 -3.661776 -3.199708 -0.000011 0.000014 0.000010
N 4.684040 -0.944207 1.776279 0.000007 0.000024 0.000019
N 4.683801 -0.940613 6.786264 -0.000003 0.000013 0.000015
N 4.684084 -0.945253 -3.262286 -0.000003 0.000022 0.000020
N -3.160219 1.772867 1.768833 0.000005 0.000020 0.000035
N -3.161164 1.772288 6.799801 -0.000008 0.000012 0.000015
N -3.160774 1.772634 -3.265407 -0.000005 0.000014 0.000013
N -0.021647 -3.666914 1.786345 0.000006 0.000031 0.000014
N -0.019596 -3.663247 6.787597 -0.000009 0.000011 0.000009
N -0.023159 -3.710494 -3.281044 -0.000011 0.000009 0.000021
N -1.595189 -0.941734 1.786351 0.000023 0.000013 -0.000005
N -1.591057 -0.941647 6.787575 -0.000005 0.000011 0.000017
N -1.633787 -0.921163 -3.280799 -0.000005 0.000021 0.000020
