108
Energy=-1489500.274219 Lattice="9.522673 0.000000 0.000000 -4.764752 8.247181 0.000000 -0.002241 0.002544 15.371033" Stress="-0.000000 -0.000001 0.000000 -0.000001 0.000001 0.000001 0.000000 0.000001 -0.000001" Properties=species:S:1:pos:R:3:forces:R:3
Al 1.566201 0.880905 2.393843 0.000487 -0.000886 -0.000336
Al 1.559075 0.859722 7.524034 -0.000066 -0.000140 0.000259
Al 1.552837 0.860456 -2.688184 0.000055 0.000119 0.000364
Al -0.032754 3.613138 2.392355 -0.000073 -0.000106 0.000206
Al -0.024360 3.623767 7.545711 -0.000156 -0.000071 0.000568
Al -0.037183 3.625199 -2.702887 -0.000331 -0.000663 0.000490
Al 3.145998 -1.867055 2.412081 -0.000820 -0.000426 0.000144
Al 3.138158 -1.857667 7.530586 -0.000159 -0.000318 -0.000043
Al 3.131275 -1.883628 -2.709342 0.000197 0.000043 -0.000038
Al -4.802166 0.881690 2.419813 0.000300 0.000059 -0.000236
Al -4.787729 0.872021 7.523689 0.000038 -0.000048 0.000217
Ga -4.792094 0.874815 -2.696039 0.000080 0.000001 0.000219
Al -6.364291 3.606873 2.391089 0.000055 0.000270 -0.000111
Ga -6.382942 3.620151 7.549591 0.000065 0.000051 0.000136
Ga -6.386038 3.619089 -2.691645 0.000141 -0.000001 0.000106
Ga -3.209133 -1.869880 2.416903 0.000310 0.000010 0.000139
Ga -3.208448 -1.871321 7.551765 0.000106 -0.000015 0.000092
Ga -3.187534 -1.874516 -2.716892 -0.000002 0.000032 -0.000117
Ga -1.598100 0.898066 2.417515 0.000337 -0.000291 0.000284
Ga -1.607727 0.890347 7.538210 0.000267 -0.000093 0.000344
Al -1.593318 0.871163 -2.708933 -0.000083 0.000290 -0.000079
Al -3.197331 3.631876 2.397974 0.000053 0.000171 -0.000221
Ga -3.188340 3.624422 7.552032 0.000314 -0.000396 0.000262
Ga -3.173348 3.637058 -2.704899 -0.000031 -0.000116 0.000297
Ga 0.000407 -1.873990 2.384495 0.000311 0.000111 0.000579
Al 0.003153 -1.851573 7.550378 0.000159 0.000014 0.000568
Al -0.010095 -1.847654 -2.692620 0.000058 -0.000138 0.000389
Al -0.016821 1.792662 4.973559 0.000168 0.000049 0.000377
Ga -0.022489 1.795114 -5.254546 -0.000327 0.000031 0.000533
Al -0.017240 1.786719 -0.171804 0.000008 0.000034 -0.000493
Ga 3.158777 -3.703957 4.960640 -0.000085 0.000151 0.000478
Al 3.165707 -3.698197 -5.276344 0.000072 0.000055 -0.000173
Al 3.148078 -3.698077 -0.136042 0.000371 0.000054 0.000279
Al 1.573937 -0.944191 4.971730 -0.000111 0.000062 0.000171
Al 1.561029 -0.961353 -5.264453 0.000039 -0.000420 0.000393
Al 1.564795 -0.954377 -0.161839 -0.000196 0.000089 -0.000052
Ga 3.147219 1.771687 4.960406 -0.000024 -0.000101 0.000460
Ga 3.145146 1.778725 -5.282729 -0.000019 -0.000158 0.000465
Al 3.132532 1.786377 -0.119140 -0.000042 0.000010 0.000091
Ga 6.313021 -3.716219 4.957522 0.000120 -0.000200 0.000293
Al 6.309921 -3.705887 -5.257321 -0.000058 -0.000242 0.000182
Ga 6.320991 -3.719717 -0.132886 -0.000063 -0.000041 -0.000025
Al 4.721431 -0.941222 4.976803 -0.000109 -0.000034 -0.000056
Ga 4.730906 -0.962556 -5.276381 -0.000363 0.000119 0.000188
Ga 4.716366 -0.960971 -0.139491 -0.000110 -0.000094 -0.000033
Al -3.202931 1.791108 4.951223 -0.000358 0.000102 0.000331
Al -3.190043 1.785370 -5.258964 -0.000061 -0.000023 0.000524
Ga -3.189305 1.798188 -0.134380 -0.000174 -0.000036 0.000618
Ga -0.009044 -3.702636 4.970499 -0.000143 -0.000242 0.000604
Ga -0.014251 -3.683214 -5.260764 -0.000079 0.000098 0.000097
Al -0.016405 -3.694678 -0.146015 0.000065 0.000072 -0.000091
Ga -1.599913 -0.941745 4.988204 -0.000258 -0.000166 0.000166
Al -1.593167 -0.954811 -5.262007 -0.000012 0.000012 -0.000042
Al -1.586217 -0.949221 -0.164586 -0.000171 0.000054 0.000356
N 1.516309 0.850695 4.323855 -0.000303 -0.000008 -0.000019
N 1.554375 0.820781 -5.929558 0.000053 0.000112 -0.000285
N 1.566672 0.873124 -0.760998 0.000253 0.000057 -0.000432
N -0.031320 3.569700 4.302995 -0.000050 -0.000025 -0.000408
N -0.023911 3.665548 -5.904210 -0.000060 0.000305 -0.000380
N -0.074324 3.607675 -0.780367 -0.000339 0.000022 0.000220
N 3.147472 -1.823172 4.337141 -0.000060 0.000121 -0.000000
N 3.102169 -1.893103 -5.915267 -0.000066 -0.000008 0.000235
N 3.105094 -1.903256 -0.789427 -0.000214 -0.000227 -0.000036
N -4.747333 0.851959 4.335653 0.000077 0.000011 0.000013
N -4.738014 0.899243 -5.928347 0.000461 0.000059 -0.000548
N -4.828899 0.904261 -0.732830 0.000119 0.000163 0.000088
N -6.366332 3.621461 4.303215 0.000009 0.000076 -0.000562
N -6.413982 3.650294 -5.852992 -0.000046 0.000265 -0.000211
N -6.334674 3.597052 -0.713726 0.000254 -0.000132 0.000066
N -3.237648 -1.842145 4.389205 -0.000028 0.000236 -0.000221
N -3.152877 -1.895715 -5.835511 0.000193 0.000032 0.000018
N -3.156703 -1.851537 -0.743377 0.000184 0.000199 0.000233
N -1.604624 0.928812 4.397304 0.000602 -0.000300 -0.000318
N -1.648270 0.856843 -5.850500 0.000387 -0.000102 -0.000461
N -1.573441 0.855231 -0.787270 0.000358 -0.000185 -0.000014
N -3.195992 3.585358 4.314349 0.000066 -0.000026 -0.000151
N -3.154310 3.597808 -5.836181 0.000269 -0.000107 -0.000179
N -3.192682 3.674287 -0.725661 -0.000189 0.000010 -0.000169
N 0.023741 -1.844776 4.357320 0.000221 0.000196 -0.000457
N -0.013482 -1.817923 -5.901806 -0.000033 0.000077 -0.000306
N -0.017744 -1.868432 -0.761349 0.000203 -0.000188 -0.000457
N 0.021035 1.813462 1.748890 -0.000428 0.000422 0.000185
N 0.022081 1.822304 6.903706 -0.000107 0.000172 -0.000313
N -0.016566 1.794755 -3.263380 0.000044 -0.000173 -0.000159
N 3.155998 -3.696608 1.797626 -0.000055 -0.000207 -0.000101
N 3.196985 -3.678747 6.946720 -0.000025 0.000177 -0.000292
N 3.202508 -3.679179 -3.355960 -0.000479 0.000512 -0.000064
N 1.615107 -0.930146 1.754723 -0.000331 0.000796 0.000399
N 1.566795 -0.954448 6.901381 -0.000156 0.000135 -0.000584
N 1.565080 -0.955165 -3.323159 -0.000120 0.000187 -0.000732
N 3.146448 1.786515 1.805639 -0.000037 -0.000293 -0.000124
N 3.146573 1.744040 6.947449 -0.000027 -0.000042 -0.000342
N 3.102347 1.761581 -3.312507 -0.000405 -0.000229 -0.000286
N 6.324483 -3.752976 1.839366 0.000027 0.000048 -0.000266
N 6.283895 -3.728893 6.927895 -0.000171 -0.000143 -0.000321
N 6.278421 -3.736696 -3.344233 0.000627 0.000353 -0.000286
N 4.690033 -0.933015 1.832079 0.000624 0.000605 -0.000397
N 4.692227 -0.932048 6.907259 -0.000070 0.000084 -0.000117
N 4.690570 -0.981517 -3.304362 -0.000265 -0.000002 -0.000082
N -3.237420 1.813095 1.838951 -0.000299 0.000071 -0.000435
N -3.241166 1.775106 6.869616 -0.000288 0.000147 -0.000214
N -3.157865 1.767287 -3.342226 0.000169 -0.000233 -0.000124
N -0.018994 -3.748811 1.771111 0.000108 -0.000216 0.000001
N -0.018504 -3.655624 6.950857 -0.000052 0.000288 -0.000328
N -0.021916 -3.650734 -3.288314 0.000064 0.000169 0.000024
N -1.606942 -0.948068 1.744346 -0.000250 0.000163 -0.000409
N -1.565897 -0.978225 6.953625 -0.000173 -0.000020 -0.000109
N -1.557851 -0.932732 -3.339264 0.000062 -0.000096 0.000095
