108
Energy=-1.535276e+06 Lattice="9.527527e+00 0.000000e+00 0.000000e+00 -4.766076e+00 8.250283e+00 0.000000e+00 -3.673493e-03 9.423358e-03 1.538789e+01" Stress="-1.087440e-04 6.018290e-06 -2.635968e-06 5.648794e-06 -9.773362e-05 5.437277e-04 -4.220450e-06 5.305258e-04 -2.190147e-04" Properties=species:S:1:pos:R:3:forces:R:3 Config_type=AlGaN_super3_24_1_24.xyz
Al 1.554311e+00 8.829994e-01 2.390508e+00 -6.413014e-04 -8.531131e-05 5.069601e-04
Al 1.552760e+00 8.779368e-01 7.541682e+00 -3.358384e-05 -1.110426e-04 2.013991e-04
Al 1.546852e+00 8.580690e-01 -2.689620e+00 -3.563135e-04 -6.439172e-05 4.036734e-04
Al -2.274254e-02 3.610148e+00 2.408777e+00 -6.626842e-04 7.560214e-05 2.772832e-04
Al -1.755888e-02 3.630221e+00 7.537467e+00 -4.198944e-04 5.849591e-06 1.166936e-04
Al -3.369115e-02 3.622349e+00 -2.704292e+00 2.132942e-04 2.251339e-05 -1.836191e-04
Al 3.159954e+00 -1.860640e+00 2.386714e+00 2.497285e-04 -2.020745e-04 -1.358236e-05
Al 3.150882e+00 -1.867743e+00 7.555918e+00 -8.308629e-05 -4.125737e-05 1.970731e-04
Al 3.137971e+00 -1.883171e+00 -2.697456e+00 6.367884e-04 1.000218e-03 -8.510191e-06
Al -4.797545e+00 8.629853e-01 2.412094e+00 -8.332367e-05 1.680590e-04 5.795258e-06
Ga -4.805508e+00 8.672390e-01 7.534049e+00 1.672639e-04 -3.003494e-05 6.508045e-05
Ga -4.794801e+00 8.659138e-01 -2.685040e+00 6.828520e-05 -1.529484e-04 -3.395483e-05
Al -6.378203e+00 3.624307e+00 2.424964e+00 -1.147461e-04 9.054120e-05 -1.942789e-04
Ga -6.394261e+00 3.635151e+00 7.546932e+00 1.272242e-04 4.121964e-05 1.244485e-04
Ga -6.385189e+00 3.632503e+00 -2.712822e+00 -5.027812e-05 3.907357e-05 -6.864502e-05
Ga -3.210200e+00 -1.861757e+00 2.417454e+00 2.094192e-04 7.008964e-05 1.861535e-04
Ga -3.208006e+00 -1.880691e+00 7.530610e+00 8.104042e-05 2.194144e-04 3.732813e-04
Ga -3.193021e+00 -1.875322e+00 -2.697870e+00 -2.047369e-05 5.919748e-05 8.198249e-05
Al -1.588576e+00 8.812062e-01 2.407984e+00 5.191543e-04 1.116546e-04 9.089569e-04
Ga -1.591545e+00 8.820498e-01 7.540021e+00 2.868199e-04 -5.303121e-05 5.731418e-05
Al -1.584800e+00 8.681919e-01 -2.692417e+00 -2.903615e-05 7.543088e-05 -3.073079e-05
Ga -3.197114e+00 3.635617e+00 2.399904e+00 2.426180e-04 4.103619e-04 6.299577e-05
Ga -3.192143e+00 3.649255e+00 7.558827e+00 1.723152e-04 1.021548e-04 6.118478e-05
Ga -3.180981e+00 3.648866e+00 -2.696452e+00 -1.008047e-04 -1.000312e-04 7.534970e-05
Ga -1.977949e-02 -1.864363e+00 2.401521e+00 1.802897e-04 9.350113e-05 3.345569e-04
Ga -1.538450e-02 -1.859801e+00 7.558958e+00 2.183159e-04 5.087302e-05 4.543713e-04
Al -1.098468e-02 -1.857993e+00 -2.706787e+00 -6.966117e-05 4.041641e-04 1.244150e-04
Al -1.865351e-02 1.797796e+00 4.964773e+00 -3.537628e-05 -1.155638e-04 2.521207e-05
Ga -1.415175e-02 1.794681e+00 -5.259687e+00 -1.865447e-04 1.349529e-04 3.256425e-04
Al -2.910501e-02 1.788618e+00 -1.575524e-01 -1.247430e-04 -4.811713e-04 3.323761e-04
Ga 3.175400e+00 -3.696516e+00 4.973980e+00 -1.242766e-04 7.161028e-05 1.699772e-04
Al 3.164304e+00 -3.694464e+00 -5.275446e+00 2.015573e-04 4.517386e-06 -2.285237e-04
Al 3.165478e+00 -3.692476e+00 -1.445368e-01 -4.987144e-04 1.443069e-04 3.689576e-04
Ga 1.566720e+00 -9.521458e-01 4.969220e+00 -2.063383e-04 2.035377e-04 1.070657e-04
Al 1.564175e+00 -9.722522e-01 -5.260781e+00 -2.189005e-04 2.066372e-04 6.625157e-05
Al 1.565504e+00 -9.654725e-01 -1.601964e-01 -3.015104e-04 1.121641e-04 -1.415300e-04
Ga 3.136789e+00 1.801619e+00 4.948912e+00 1.149783e-04 1.009048e-04 2.669183e-04
Ga 3.134598e+00 1.791490e+00 -5.269025e+00 3.352471e-06 -5.228010e-06 1.854017e-05
Ga 3.139292e+00 1.787730e+00 -1.177056e-01 2.704887e-05 -2.305706e-05 1.663239e-04
Al 6.327268e+00 -3.704414e+00 4.954752e+00 -2.041355e-06 -2.133191e-04 -2.678955e-04
Al 6.322946e+00 -3.706780e+00 -5.271792e+00 -9.206217e-05 -1.346644e-05 2.653345e-04
Ga 6.317274e+00 -3.706573e+00 -1.280127e-01 1.121411e-04 3.205866e-05 -1.335413e-04
Al 4.740179e+00 -9.655567e-01 4.967653e+00 -1.035322e-04 4.057519e-07 -1.853310e-05
Ga 4.735123e+00 -9.862718e-01 -5.266753e+00 -1.907024e-04 1.458696e-04 2.755031e-04
Al 4.727497e+00 -9.676465e-01 -1.403892e-01 -2.335287e-04 -2.908210e-04 2.377465e-04
Ga -3.192419e+00 1.783964e+00 4.948093e+00 1.609786e-04 1.240151e-04 1.803990e-04
Ga -3.187680e+00 1.796933e+00 -5.253328e+00 -9.111487e-05 3.642010e-05 1.150799e-04
Ga -3.178423e+00 1.785816e+00 -1.267853e-01 -7.738845e-05 -9.815482e-05 -2.608030e-04
Al -4.117257e-02 -3.694537e+00 4.970801e+00 9.893453e-05 9.614521e-05 3.906086e-04
Al -2.062936e-02 -3.686350e+00 -5.257292e+00 -1.362558e-05 7.269435e-05 1.451713e-04
Al -1.903723e-02 -3.683475e+00 -1.502485e-01 7.744642e-05 1.108129e-04 2.761618e-04
Al -1.613025e+00 -9.551492e-01 4.959455e+00 -8.053863e-05 2.999362e-04 1.621163e-04
Al -1.594502e+00 -9.739665e-01 -5.249906e+00 -1.119836e-04 1.081146e-04 2.977473e-04
Al -1.593332e+00 -9.497903e-01 -1.544207e-01 -1.277797e-04 -2.301995e-04 -6.157152e-05
N 1.514026e+00 8.966566e-01 4.303249e+00 -2.052564e-04 1.723826e-04 -1.434865e-04
N 1.557279e+00 8.201539e-01 -5.927722e+00 6.997034e-05 -1.675535e-04 -1.190351e-04
N 1.522093e+00 8.500305e-01 -7.682555e-01 2.151662e-04 1.162778e-05 -3.741237e-04
N 1.336393e-02 3.599191e+00 4.329841e+00 -4.187191e-05 -2.021094e-04 -4.603737e-04
N -2.131474e-02 3.666989e+00 -5.920264e+00 2.004544e-04 2.744517e-04 6.213375e-05
N -6.740543e-02 3.603929e+00 -7.826573e-01 5.332377e-05 1.305946e-04 -1.133880e-04
N 3.191505e+00 -1.848460e+00 4.301171e+00 2.088247e-04 2.788731e-04 -3.817271e-04
N 3.108668e+00 -1.897157e+00 -5.910683e+00 -6.844430e-07 -3.228931e-04 -1.660100e-04
N 3.150639e+00 -1.876411e+00 -7.683554e-01 6.992762e-05 -1.774923e-04 -1.616278e-04
N -4.792382e+00 8.249359e-01 4.324884e+00 5.599389e-06 -2.541272e-04 -2.647533e-04
N -4.786054e+00 8.701017e-01 -5.886188e+00 1.440951e-04 -6.349295e-05 -9.253541e-05
N -4.788750e+00 8.327734e-01 -7.217386e-01 3.863464e-05 2.704207e-04 -1.963862e-05
N -6.374843e+00 3.681875e+00 4.339424e+00 6.422693e-05 4.037918e-06 -2.050128e-05
N -6.374128e+00 3.676469e+00 -5.853275e+00 2.888515e-05 1.567869e-04 -2.991509e-05
N -6.338834e+00 3.651350e+00 -7.457570e-01 5.434404e-05 -4.985501e-05 7.366156e-05
N -3.201087e+00 -1.867385e+00 4.405235e+00 -6.766453e-05 5.149798e-05 -5.986399e-05
N -3.149881e+00 -1.899130e+00 -5.863105e+00 1.938180e-04 -1.407544e-04 -2.753899e-04
N -3.197090e+00 -1.826504e+00 -7.171239e-01 4.496347e-04 -9.067597e-05 -2.888274e-05
N -1.559148e+00 8.550051e-01 4.332710e+00 3.859362e-04 -1.206704e-04 -4.313785e-04
N -1.603952e+00 8.227128e-01 -5.873164e+00 3.124963e-04 -2.876760e-04 -1.689225e-04
N -1.566338e+00 8.505530e-01 -7.804765e-01 1.130605e-04 2.968783e-04 1.212882e-04
N -3.238499e+00 3.664600e+00 4.372813e+00 -1.177270e-04 -1.009141e-04 -1.578527e-04
N -3.199066e+00 3.677147e+00 -5.842033e+00 -8.995841e-05 2.148405e-05 -3.611376e-05
N -3.194412e+00 3.678712e+00 -7.121026e-01 1.358806e-04 4.903244e-05 1.390535e-04
N -6.106892e-02 -1.890684e+00 4.379154e+00 2.494444e-05 -2.550547e-04 -3.177370e-04
N -1.995897e-02 -1.871894e+00 -5.838273e+00 4.340404e-05 -1.692156e-04 -2.268243e-04
N -1.970855e-02 -1.869954e+00 -7.720831e-01 4.328016e-05 -1.816484e-04 -2.050561e-04
N -2.478273e-02 1.797644e+00 1.771240e+00 -1.741107e-04 -5.186573e-05 -1.287367e-04
N 1.839562e-02 1.825245e+00 6.899279e+00 2.148461e-04 -4.092394e-04 -5.344803e-04
N -1.807522e-02 1.795171e+00 -3.271591e+00 1.277221e-04 -1.062428e-04 -1.048377e-04
N 3.204850e+00 -3.678990e+00 1.777077e+00 3.311603e-04 -2.308415e-05 -1.835087e-04
N 3.201394e+00 -3.675579e+00 6.958017e+00 -5.275492e-04 1.845975e-04 5.856969e-05
N 3.203593e+00 -3.678899e+00 -3.348670e+00 -2.014673e-04 -2.673734e-04 -4.697330e-05
N 1.605319e+00 -9.321173e-01 1.763013e+00 3.509726e-04 -1.055185e-04 -1.058002e-04
N 1.608613e+00 -9.300623e-01 6.952409e+00 -1.286503e-04 6.524247e-05 -2.032204e-04
N 1.570346e+00 -9.583928e-01 -3.319993e+00 -1.588622e-05 -6.513850e-06 -2.610009e-04
N 3.148732e+00 1.796520e+00 1.865970e+00 4.036513e-04 3.109974e-04 -1.950742e-04
N 3.102331e+00 1.777678e+00 6.929943e+00 -2.014924e-04 -1.680206e-04 -1.694593e-04
N 3.101494e+00 1.763105e+00 -3.297305e+00 -6.310097e-05 -8.411069e-05 -7.607436e-05
N 6.325322e+00 -3.753258e+00 1.843759e+00 6.390283e-04 1.640016e-04 1.696948e-04
N 6.284467e+00 -3.730259e+00 6.872695e+00 3.051204e-04 1.482934e-04 -3.230351e-06
N 6.279810e+00 -3.731314e+00 -3.355818e+00 -8.847766e-05 -8.681589e-05 -3.721182e-05
N 4.701503e+00 -9.328037e-01 1.769209e+00 -6.877517e-04 -5.532913e-04 1.494957e-04
N 4.693230e+00 -9.829729e-01 6.886558e+00 -2.616049e-04 -2.348558e-05 -7.412252e-05
N 4.696784e+00 -9.877822e-01 -3.300781e+00 -6.904486e-04 -3.341977e-04 1.773635e-04
N -3.192800e+00 1.742732e+00 1.851024e+00 -2.876868e-04 1.460201e-04 3.543039e-05
N -3.198672e+00 1.800122e+00 6.921896e+00 -8.817708e-05 -5.992367e-05 -2.007697e-04
N -3.153770e+00 1.770648e+00 -3.278730e+00 1.079686e-04 2.107955e-05 -3.421937e-05
N -6.808852e-02 -3.723949e+00 1.756583e+00 -1.159540e-04 -9.264392e-05 -3.064748e-04
N -2.680871e-02 -3.699223e+00 6.881491e+00 -5.653592e-05 -4.465609e-06 -3.519700e-04
N -1.964792e-02 -3.655152e+00 -3.346089e+00 5.034495e-05 -7.315713e-05 -1.911339e-04
N -1.609809e+00 -9.058780e-01 1.757890e+00 -3.039272e-05 -6.860524e-05 -3.184528e-04
N -1.608961e+00 -9.532274e-01 6.867795e+00 -1.940087e-04 8.182454e-05 -2.884731e-04
N -1.566724e+00 -9.337020e-01 -3.328804e+00 2.666307e-04 -4.713547e-04 -8.271162e-05
