108
Energy=-2405010.395371 Lattice="9.640149 0.000000 0.000000 -4.822329 8.344326 0.000000 -0.004882 0.000035 15.634258" Stress="0.000001 -0.000000 -0.000002 -0.000000 -0.000000 0.000000 -0.000002 0.000000 0.000000" Properties=species:S:1:pos:R:3:forces:R:3
Al 1.578638 0.886862 2.440614 0.000400 -0.000317 0.000098
Al 1.583811 0.897396 7.672334 0.000332 -0.000063 0.000108
Ga 1.586634 0.890769 -2.738799 0.000408 -0.000092 0.000038
Al -0.030649 3.665685 2.462470 0.000200 -0.000163 0.000140
Ga -0.014512 3.669104 7.653952 0.000275 -0.000007 0.000255
Al -0.025937 3.670232 -2.744817 0.000299 -0.000003 -0.000036
Ga 3.183554 -1.906163 2.443545 0.000344 -0.000178 0.000145
Ga 3.195958 -1.897183 7.658557 0.000366 0.000072 0.000179
Ga 3.194155 -1.897508 -2.727939 0.000260 0.000030 -0.000116
Ga -4.859898 0.888095 2.470747 0.000364 -0.000162 -0.000010
Ga -4.858377 0.886302 7.666800 0.000413 -0.000054 0.000063
Al -4.847577 0.887538 -2.757392 0.000411 -0.000017 0.000052
Ga -6.470075 3.657068 2.458293 0.000224 -0.000240 0.000045
Al -6.459238 3.671187 7.679564 0.000204 0.000029 0.000001
Ga -6.452065 3.664239 -2.763911 0.000309 0.000083 0.000095
Ga -3.241440 -1.905508 2.455580 0.000212 -0.000176 0.000020
Al -3.234350 -1.904124 7.674341 0.000205 0.000050 0.000012
Ga -3.245509 -1.898032 -2.752024 0.000361 0.000100 0.000018
Ga -1.619513 0.894237 2.457661 0.000233 -0.000302 -0.000055
Ga -1.624224 0.883814 7.672125 0.000389 -0.000101 -0.000077
Ga -1.632682 0.898285 -2.749963 0.000448 -0.000150 0.000047
Ga -3.218298 3.673802 2.453866 0.000236 -0.000314 0.000075
Ga -3.243594 3.677250 7.675737 0.000297 -0.000135 0.000096
Ga -3.237332 3.669479 -2.751017 0.000367 -0.000145 0.000238
Ga -0.012997 -1.882510 2.459574 0.000235 -0.000342 0.000097
Ga -0.031010 -1.898938 7.676565 0.000319 -0.000118 -0.000108
Ga -0.016686 -1.898445 -2.755933 0.000380 -0.000075 0.000271
Ga -0.016362 1.820890 5.046715 0.000063 0.000253 0.000157
Ga -0.014409 1.817653 -5.352813 0.000050 0.000277 0.000100
Ga -0.016682 1.830846 -0.133492 -0.000075 -0.000322 -0.000020
Al 3.195267 -3.752225 5.051968 0.000211 0.000149 0.000072
Ga 3.189117 -3.751168 -5.343954 0.000129 0.000306 0.000132
Al 3.200784 -3.747339 -0.152054 -0.000215 -0.000138 0.000212
Ga 1.590826 -0.962576 5.065052 0.000059 0.000321 0.000083
Ga 1.584240 -0.969835 -5.369422 -0.000054 0.000244 0.000012
Al 1.590228 -0.970919 -0.135795 -0.000208 -0.000034 0.000052
Ga 3.170374 1.813587 5.079668 0.000214 0.000164 0.000102
Ga 3.189608 1.822302 -5.367268 0.000244 0.000158 0.000085
Ga 3.189557 1.804458 -0.148787 0.000027 -0.000338 -0.000008
Ga 6.392895 -3.749286 5.076828 0.000229 0.000134 0.000101
Ga 6.413511 -3.749235 -5.371203 0.000257 0.000204 0.000048
Ga 6.384475 -3.754037 -0.145720 0.000194 -0.000234 0.000063
Ga 4.794448 -0.980608 5.071036 0.000067 0.000084 -0.000137
Ga 4.801764 -0.969622 -5.354137 0.000079 0.000193 0.000105
Ga 4.783100 -0.963144 -0.152813 0.000066 -0.000227 -0.000067
Ga -3.233905 1.827485 5.068416 0.000219 0.000104 -0.000021
Ga -3.245515 1.823320 -5.348052 0.000163 0.000119 0.000001
Ga -3.242519 1.822939 -0.155368 0.000019 -0.000234 -0.000264
Ga -0.016389 -3.752472 5.071415 0.000232 0.000143 0.000080
Al -0.026554 -3.751600 -5.368487 0.000177 0.000181 0.000023
Ga -0.006932 -3.736577 -0.142965 0.000091 -0.000229 -0.000121
Ga -1.633574 -0.969723 5.081294 -0.000013 0.000158 -0.000048
Ga -1.628273 -0.978480 -5.366387 0.000049 0.000142 -0.000074
Ga -1.615386 -0.965939 -0.148605 -0.000073 -0.000301 -0.000302
N 1.584570 0.884353 4.362260 0.000013 -0.000245 -0.000031
N 1.582628 0.889910 -6.042763 0.000049 -0.000154 0.000048
N 1.580389 0.838796 -0.756667 -0.000039 0.000095 -0.000102
N -0.065793 3.696553 4.395826 -0.000146 -0.000210 -0.000093
N -0.026218 3.670678 -6.004865 -0.000126 -0.000186 -0.000159
N -0.065527 3.692573 -0.822060 -0.000057 -0.000035 0.000028
N 3.187277 -1.943609 4.437735 -0.000139 -0.000196 -0.000080
N 3.195668 -1.899613 -5.996911 -0.000093 -0.000287 -0.000109
N 3.146518 -1.919509 -0.733950 -0.000086 0.000029 -0.000174
N -4.850917 0.889225 4.449995 -0.000143 -0.000066 -0.000007
N -4.843734 0.886275 -5.995449 -0.000121 -0.000049 -0.000119
N -4.845703 0.889848 -0.839560 -0.000046 0.000096 0.000041
N -6.455238 3.668618 4.434828 -0.000281 -0.000195 -0.000099
N -6.407607 3.693357 -6.025561 -0.000372 -0.000279 0.000030
N -6.448541 3.672887 -0.780444 -0.000155 0.000143 -0.000089
N -3.234695 -1.896328 4.428260 -0.000230 -0.000266 0.000016
N -3.237272 -1.894555 -6.041081 -0.000140 -0.000263 0.000106
N -3.235328 -1.893513 -0.776990 -0.000086 0.000036 0.000013
N -1.630964 0.886653 4.435104 -0.000076 -0.000170 -0.000072
N -1.628539 0.892647 -5.981991 -0.000001 -0.000217 -0.000015
N -1.624420 0.894952 -0.773285 0.000031 0.000048 -0.000022
N -3.193474 3.697939 4.439989 -0.000277 -0.000283 -0.000076
N -3.273636 3.697613 -5.971038 -0.000100 -0.000329 -0.000086
N -3.194412 3.699266 -0.765889 -0.000119 -0.000035 -0.000105
N -0.020074 -1.890206 4.438823 -0.000145 -0.000409 0.000047
N -0.019628 -1.942896 -5.976379 -0.000032 -0.000228 -0.000019
N 0.026160 -1.868627 -0.769213 -0.000067 -0.000062 -0.000062
N 0.019478 1.843020 1.862066 -0.000213 0.000641 -0.000095
N 0.021840 1.788914 7.035513 -0.000346 0.000284 -0.000175
N -0.016346 1.863156 -3.365259 -0.000298 0.000134 -0.000047
N 3.240578 -3.780415 1.776100 -0.000159 0.000483 -0.000110
N 3.191632 -3.753493 6.972961 -0.000303 0.000094 -0.000036
N 3.235390 -3.771618 -3.362969 -0.000372 0.000244 -0.000138
N 1.585557 -0.922968 1.790399 -0.000214 0.000443 -0.000149
N 1.584551 -0.915419 7.054135 -0.000378 0.000030 -0.000043
N 1.591366 -0.965468 -3.392566 -0.000367 0.000142 -0.000031
N 3.148653 1.785565 1.832644 -0.000147 0.000476 0.000101
N 3.139849 1.842336 7.074896 -0.000188 -0.000079 -0.000187
N 3.227341 1.789480 -3.378731 -0.000447 0.000113 -0.000128
N 6.354645 -3.780299 1.838426 -0.000095 0.000346 0.000010
N 6.447634 -3.725510 7.071471 -0.000317 -0.000099 -0.000199
N 6.362829 -3.774456 -3.380083 -0.000175 -0.000031 -0.000109
N 4.794685 -0.965498 1.823006 -0.000331 0.000295 0.000116
N 4.842314 -0.994178 7.052257 -0.000493 0.000010 -0.000134
N 4.795161 -0.923317 -3.365496 -0.000374 -0.000065 -0.000003
N -3.244362 1.809993 1.823853 -0.000153 0.000438 0.000256
N -3.237044 1.817315 7.042176 -0.000411 0.000104 0.000070
N -3.280019 1.792667 -3.363941 -0.000277 0.000153 -0.000099
N -0.023450 -3.751912 1.833665 -0.000156 0.000465 0.000013
N -0.065850 -3.775737 7.052430 -0.000202 0.000118 0.000001
N -0.022343 -3.749974 -3.444148 -0.000293 0.000025 0.000021
N -1.628989 -0.970076 1.823939 -0.000244 0.000426 0.000138
N -1.671198 -0.992415 7.062488 -0.000293 0.000013 0.000101
N -1.629141 -0.968270 -3.387228 -0.000461 0.000031 -0.000016
