108
Energy=-2130351.155283 Lattice="9.482227 0.000000 0.000000 -4.742049 8.216434 0.000000 0.001079 0.001567 15.270644" Stress="-0.000356 0.000037 -0.000002 0.000037 -0.000310 -0.000002 -0.000002 -0.000002 -0.000358" Properties=species:S:1:pos:R:3:forces:R:3
Al 1.564490 0.904041 2.483776 -0.000922 -0.014940 -0.011802
Al 1.565496 0.904771 7.498082 -0.001231 -0.014565 -0.004137
Ga 1.564205 0.903230 -2.758380 -0.001558 -0.017641 -0.006267
Al -0.000111 3.616599 2.480195 -0.003514 -0.001509 -0.009467
Al -0.000170 3.617170 7.497576 -0.003264 -0.001163 -0.003068
Ga -0.000594 3.615678 -2.755895 -0.002754 -0.001459 -0.002429
Ga 3.176408 -1.885502 2.483712 -0.003962 0.001207 -0.011966
Al 3.176059 -1.885738 7.497462 -0.003516 0.001159 -0.004652
Al 3.175516 -1.886426 -2.757618 -0.002659 0.001720 -0.003416
Ga -4.785184 0.903442 2.480008 -0.000028 -0.016587 -0.012123
Ga -4.786174 0.904485 7.498157 -0.000021 -0.017102 -0.004218
Al -4.786275 0.902797 -2.755922 0.001024 -0.013119 -0.003648
Ga -6.351694 3.617980 2.479631 -0.000850 -0.000836 -0.009287
Al -6.351703 3.617131 7.497617 -0.000428 -0.000019 -0.001925
Al -6.352199 3.616771 -2.755825 -0.000244 -0.000351 -0.001793
Ga -3.176335 -1.886263 2.479864 -0.000042 0.002850 -0.010309
Ga -3.175319 -1.885904 7.498097 -0.000961 0.002567 -0.002490
Ga -3.176696 -1.887262 -2.755292 -0.001254 0.002684 -0.002068
Ga -1.654316 0.905225 2.479948 0.016543 -0.009306 -0.014756
Ga -1.654126 0.904732 7.498075 0.016328 -0.009043 -0.007616
Ga -1.655508 0.903711 -2.755500 0.015931 -0.008627 -0.007539
Ga -3.220994 3.617125 2.480199 0.015558 0.007911 -0.011339
Ga -3.220164 3.617700 7.497317 0.015133 0.008264 -0.005309
Ga -3.221972 3.616015 -2.755057 0.014560 0.007520 -0.003958
Ga -0.043799 -1.886449 2.483863 0.015111 0.011270 -0.013407
Ga -0.043972 -1.885537 7.497586 0.015181 0.010593 -0.006472
Ga -0.044791 -1.887467 -2.757271 0.014927 0.010127 -0.005070
Ga -0.000299 1.808897 4.989225 -0.014735 -0.010479 -0.005752
Al -0.001172 1.807269 -5.265157 -0.011290 -0.008287 -0.005461
Ga -0.000508 1.806605 -0.243435 -0.014135 -0.010253 0.039806
Al 3.176201 -3.694773 4.989182 -0.012291 -0.005354 -0.003680
Ga 3.175185 -3.696103 -5.264906 -0.014622 -0.008071 -0.005554
Al 3.174986 -3.695254 -0.255473 -0.011853 -0.005185 0.033845
Ga 1.610475 -0.981637 4.990466 -0.016043 0.008647 -0.008132
Ga 1.609577 -0.982590 -5.265472 -0.015952 0.009973 -0.008719
Al 1.609506 -0.982032 -0.257183 -0.013682 0.008067 0.031967
Ga 3.130963 1.809004 4.988959 0.000331 -0.003128 -0.002668
Al 3.129979 1.807565 -5.264781 -0.000428 -0.003306 -0.003322
Al 3.129772 1.806913 -0.256087 0.000146 -0.003002 0.034423
Ga 6.307095 -3.694617 4.989172 0.000009 -0.000313 -0.000661
Ga 6.306398 -3.696410 -5.264598 -0.000046 -0.000699 -0.001724
Ga 6.306498 -3.695811 -0.242773 0.000060 -0.000329 0.043495
Ga 4.741539 -0.981488 4.990055 -0.001043 0.016841 -0.003925
Ga 4.740207 -0.982385 -5.264376 -0.000785 0.017002 -0.004533
Ga 4.739434 -0.982249 -0.244281 -0.001145 0.016502 0.040116
Ga -3.220039 1.809036 4.989041 0.003029 -0.001142 -0.003308
Ga -3.221073 1.807535 -5.263982 0.003205 -0.002157 -0.003204
Ga -3.221072 1.807405 -0.242671 0.003073 -0.001660 0.041522
Al -0.043923 -3.694645 4.989690 0.003369 0.001204 -0.002133
Ga -0.044937 -3.696098 -5.264621 0.002790 0.001087 -0.002265
Ga -0.044266 -3.694679 -0.243690 0.002833 0.001595 0.042373
Ga -1.609779 -0.981312 4.989259 0.002323 0.018045 -0.005977
Ga -1.610374 -0.982189 -5.264208 0.001886 0.018530 -0.005908
Al -1.609517 -0.981745 -0.255035 0.001427 0.014285 0.033505
N 1.564697 0.904334 4.395079 -0.001240 -0.017519 -0.015678
N 1.564371 0.903687 -5.859394 -0.000925 0.003859 -0.001625
N 1.564345 0.902784 -0.845484 0.017163 -0.023756 0.021604
N -0.000492 3.617311 4.393739 -0.020249 0.010748 -0.013032
N -0.001454 3.615122 -5.859785 -0.002318 -0.021015 -0.013413
N -0.001259 3.615760 -0.841164 -0.020256 0.010102 0.011991
N 3.176483 -1.886279 4.396703 -0.002526 -0.019311 0.009942
N 3.174953 -1.887309 -5.860284 -0.002854 0.001374 -0.020952
N 3.174711 -1.886635 -0.846478 -0.020387 -0.009376 -0.003696
N -4.785151 0.903715 4.394611 0.000630 -0.017682 0.006191
N -4.787421 0.903340 -5.858314 -0.017922 -0.006559 0.014323
N -4.786717 0.903108 -0.842788 -0.017409 -0.006421 -0.007284
N -6.350824 3.618509 4.394519 0.018159 0.011356 0.010278
N -6.352313 3.615177 -5.859827 -0.000138 -0.021097 -0.013078
N -6.352060 3.616351 -0.842369 -0.000629 -0.020870 -0.010468
N -3.175954 -1.886184 4.394662 -0.001181 0.002112 0.001719
N -3.176142 -1.887065 -5.858487 -0.001034 0.001945 0.002442
N -3.176123 -1.886679 -0.840717 0.017177 0.012376 0.012118
N -1.654504 0.905071 4.394447 0.016153 -0.009807 0.010046
N -1.654796 0.903483 -5.858332 0.031105 -0.001034 0.015588
N -1.655218 0.903173 -0.840956 0.016557 -0.026459 0.017581
N -3.220983 3.618043 4.395148 0.011659 0.027234 0.019464
N -3.221233 3.616186 -5.858869 0.015160 0.008360 0.005714
N -3.220988 3.616448 -0.840566 0.030234 0.016110 0.014307
N -0.044007 -1.887235 4.396896 0.014169 -0.011491 0.013694
N -0.045053 -1.887047 -5.858912 0.014657 0.009477 0.005804
N -0.044441 -1.886351 -0.844612 0.011337 0.028167 0.021448
N 0.000883 1.808380 1.883606 0.003756 0.001108 -0.020446
N 0.000571 1.809072 6.903839 0.003967 0.000870 0.021131
N -0.001254 1.807469 -3.352099 -0.014605 -0.009934 -0.017285
N 3.176316 -3.695013 1.893489 0.003587 -0.019016 -0.041294
N 3.176939 -3.694404 6.902629 0.003806 0.002442 -0.001905
N 3.175360 -3.695266 -3.350243 -0.015406 0.013399 0.013795
N 1.610088 -0.980661 1.894944 -0.016515 0.027152 -0.039502
N 1.611106 -0.980712 6.904441 0.001778 0.016788 0.023359
N 1.610245 -0.983016 -3.351532 0.001803 -0.001393 0.018053
N 3.129702 1.807412 1.893078 -0.017275 -0.012359 -0.046613
N 3.130224 1.809213 6.903740 -0.017193 0.009005 0.017058
N 3.130842 1.808168 -3.351239 0.019881 0.009408 -0.005863
N 6.306018 -3.695062 1.882162 -0.017974 -0.010785 -0.031254
N 6.307159 -3.695357 6.903927 0.000776 -0.021741 0.017133
N 6.307109 -3.696233 -3.349900 0.019515 -0.010415 0.009319
N 4.740836 -0.981507 1.882351 -0.000391 0.017510 -0.035476
N 4.740859 -0.981457 6.904109 -0.018529 0.007120 0.013342
N 4.739963 -0.982087 -3.349985 -0.019048 0.023845 0.019201
N -3.220088 1.808720 1.881501 0.002856 -0.001855 -0.039644
N -3.219999 1.808842 6.903380 0.002781 -0.002037 0.001510
N -3.221656 1.807163 -3.349495 -0.015308 -0.011988 0.008792
N -0.043618 -3.693968 1.882267 0.002264 -0.000015 -0.038813
N -0.044532 -3.694878 6.902627 -0.016528 -0.010853 -0.013624
N -0.045603 -3.696273 -3.350168 -0.016059 -0.010209 0.008953
N -1.609210 -0.981232 1.893239 0.000993 0.017714 -0.049946
N -1.609633 -0.980901 6.903482 0.000997 0.017894 0.005468
N -1.610660 -0.982320 -3.350067 0.001459 0.017511 0.005926
