108
Energy=-6.655417e+05 Lattice="9.423335e+00 0.000000e+00 0.000000e+00 -4.711591e+00 8.160871e+00 0.000000e+00 -5.536003e-04 2.931037e-04 1.512588e+01" Stress="5.871753e-05 -6.937647e-06 2.758144e-06 -7.280493e-06 3.628422e-06 6.940419e-05 3.718127e-06 6.962999e-05 -7.083243e-05" Properties=species:S:1:pos:R:3:forces:R:3 Config_type=AlGaN_super3_5_1_18.xyz
Al 1.549397e+00 8.704465e-01 2.367937e+00 -5.989759e-06 -2.632704e-05 -1.969557e-05
Al 1.547746e+00 8.784600e-01 7.386346e+00 4.101987e-06 -1.885868e-04 -4.795041e-04
Al 1.541009e+00 8.726164e-01 -2.637128e+00 5.589704e-05 -5.741498e-05 1.825458e-05
Al -2.156040e-02 3.589560e+00 2.378048e+00 1.577746e-05 -2.912545e-05 -2.952156e-05
Al -2.068792e-02 3.586711e+00 7.400083e+00 1.345324e-06 -9.348334e-06 -7.585596e-05
Al -1.400831e-02 3.587593e+00 -2.667512e+00 9.534915e-06 5.694321e-05 -4.165711e-05
Al 3.120594e+00 -1.853095e+00 2.373022e+00 -1.690807e-05 3.820110e-06 -3.222971e-05
Al 3.132034e+00 -1.852543e+00 7.391070e+00 -1.636905e-05 2.758883e-05 -1.948476e-05
Al 3.131696e+00 -1.850530e+00 -2.648919e+00 3.456942e-05 2.296388e-05 -4.069129e-05
Al -4.735654e+00 8.685226e-01 2.376306e+00 -4.085874e-05 -6.082546e-05 9.804579e-06
Al -4.730528e+00 8.640674e-01 7.388688e+00 1.576450e-05 -3.730829e-05 -4.753150e-05
Al -4.731274e+00 8.557143e-01 -2.653031e+00 3.483699e-05 -4.322729e-05 -1.922579e-05
Al -6.308570e+00 3.586456e+00 2.373170e+00 2.055816e-05 9.099389e-06 -5.457017e-05
Al -6.309424e+00 3.586673e+00 7.391642e+00 5.395364e-05 -3.428453e-05 -5.122929e-05
Al -6.314626e+00 3.594499e+00 -2.648574e+00 2.901269e-05 2.392522e-05 -9.217175e-05
Al -3.163940e+00 -1.853237e+00 2.369214e+00 2.232186e-05 -8.042370e-06 -5.603065e-05
Al -3.177396e+00 -1.854882e+00 7.395300e+00 -3.191444e-05 2.172966e-05 -3.446754e-05
Al -3.172390e+00 -1.857768e+00 -2.651044e+00 1.184234e-05 1.837118e-05 -6.417639e-05
Al -1.593057e+00 8.684186e-01 2.373065e+00 6.387152e-05 -6.120956e-05 -7.148963e-05
Al -1.595884e+00 8.812729e-01 7.391772e+00 5.886303e-05 -9.263208e-06 4.837402e-05
Al -1.589870e+00 8.697852e-01 -2.648802e+00 -9.675516e-06 -8.417261e-05 4.001047e-05
Al -3.160550e+00 3.587730e+00 2.370040e+00 -2.533456e-05 6.149815e-05 3.552166e-05
Al -3.161142e+00 3.581460e+00 7.403750e+00 2.295592e-05 -3.932412e-06 -5.615298e-05
Ga -3.162372e+00 3.586055e+00 -2.657509e+00 7.040191e-05 -4.487106e-05 -8.565824e-05
Al -2.363407e-02 -1.849585e+00 2.374365e+00 -5.601863e-06 -4.039730e-06 -4.681471e-05
Ga -2.250469e-02 -1.855875e+00 7.386942e+00 6.098700e-05 2.625469e-05 -1.235170e-04
Al -2.684713e-02 -1.854944e+00 -2.637916e+00 4.037458e-06 5.869360e-05 -3.886475e-05
Al -2.266668e-02 1.776219e+00 4.878409e+00 4.790349e-05 -3.286784e-05 -6.197719e-05
Al -3.079879e-02 1.789385e+00 -5.191848e+00 1.545310e-04 -1.400638e-04 -1.770259e-04
Al -2.479860e-02 1.778673e+00 -1.359198e-01 -7.481341e-05 -6.571094e-05 -6.751161e-05
Al 3.118016e+00 -3.667292e+00 4.885480e+00 1.861771e-05 1.571704e-05 -4.276392e-05
Al 3.127284e+00 -3.670213e+00 -5.207119e+00 3.397232e-05 -5.344106e-06 -5.808683e-05
Al 3.126922e+00 -3.665169e+00 -1.301331e-01 2.727113e-05 -2.393215e-05 -1.820306e-04
Al 1.554622e+00 -9.422525e-01 4.870966e+00 -7.059959e-05 1.017711e-04 -2.628048e-05
Ga 1.561548e+00 -9.489874e-01 -5.172764e+00 7.384580e-06 -1.878107e-05 -4.616884e-05
Al 1.549167e+00 -9.482925e-01 -1.401442e-01 -1.464488e-05 6.494024e-05 -2.230846e-05
Al 3.118332e+00 1.775807e+00 4.885223e+00 -8.762956e-06 -1.813200e-05 -3.096209e-05
Ga 3.124103e+00 1.782195e+00 -5.189088e+00 6.053857e-05 9.034724e-05 -6.119788e-05
Al 3.120278e+00 1.774838e+00 -1.440273e-01 2.004506e-05 5.712533e-05 4.150571e-05
Al 6.258729e+00 -3.665482e+00 4.881726e+00 9.798319e-06 1.100518e-05 -2.236843e-05
Al 6.251828e+00 -3.666685e+00 -5.194391e+00 3.239176e-06 1.795909e-05 -9.091110e-05
Al 6.256469e+00 -3.667876e+00 -1.398731e-01 -1.208961e-05 6.074282e-05 5.359007e-06
Al 4.689964e+00 -9.464282e-01 4.878405e+00 2.743753e-06 3.525312e-05 -3.225704e-05
Al 4.692861e+00 -9.533299e-01 -5.192575e+00 2.370458e-05 1.487441e-05 -9.901817e-05
Al 4.689503e+00 -9.469237e-01 -1.356802e-01 2.111156e-05 7.511091e-05 1.635404e-05
Al -3.163414e+00 1.777402e+00 4.882336e+00 3.573789e-05 -1.586820e-05 -5.555039e-05
Al -3.160090e+00 1.776374e+00 -5.204364e+00 1.370956e-04 -5.297262e-05 -7.977884e-05
Al -3.164799e+00 1.767099e+00 -1.251891e-01 1.949312e-04 -1.552234e-04 -4.282230e-04
Al -2.133353e-02 -3.673214e+00 4.867803e+00 1.602737e-05 4.617123e-06 -7.036685e-05
Al -2.413266e-02 -3.678942e+00 -5.187693e+00 1.891962e-05 -2.149901e-04 9.302402e-06
Al -2.877447e-02 -3.665202e+00 -1.231601e-01 1.413276e-04 3.632670e-05 2.508459e-04
Al -1.599846e+00 -9.419990e-01 4.874615e+00 2.070119e-05 2.546654e-05 -4.612269e-05
Ga -1.609393e+00 -9.403329e-01 -5.175110e+00 1.055350e-05 6.096863e-05 -6.840674e-05
Al -1.595205e+00 -9.463757e-01 -1.441405e-01 3.351856e-05 1.714127e-04 3.050785e-05
N 1.549283e+00 8.721466e-01 4.282722e+00 -2.313961e-05 -5.077030e-05 -1.255330e-05
N 1.507371e+00 8.912523e-01 -5.830713e+00 -2.965966e-04 1.541268e-04 6.029288e-04
N 1.543756e+00 8.702424e-01 -7.249314e-01 -3.168636e-05 -2.031317e-05 7.655323e-06
N -2.268999e-02 3.589794e+00 4.290265e+00 -3.256206e-05 -2.600723e-05 4.817920e-05
N -1.914795e-02 3.586599e+00 -5.801719e+00 2.210809e-05 -6.918455e-05 6.183708e-05
N -2.284047e-02 3.587429e+00 -7.469456e-01 6.550309e-05 1.498877e-05 7.906232e-05
N 3.121487e+00 -1.855574e+00 4.284983e+00 -7.388945e-06 -1.619186e-05 1.121023e-05
N 3.160511e+00 -1.873803e+00 -5.819534e+00 9.584360e-06 2.604815e-05 6.449295e-05
N 3.123303e+00 -1.856161e+00 -7.330514e-01 1.306661e-05 -2.395216e-05 -8.575506e-06
N -4.734997e+00 8.693454e-01 4.291179e+00 1.097281e-06 -3.252251e-05 3.425069e-05
N -4.694440e+00 8.412700e-01 -5.818844e+00 -1.380802e-05 -8.920460e-05 4.146253e-05
N -4.730493e+00 8.645631e-01 -7.361470e-01 4.099142e-05 -2.310215e-05 -3.891569e-06
N -6.309202e+00 3.586196e+00 4.284898e+00 9.367823e-06 -2.873570e-05 5.712789e-05
N -6.307247e+00 3.636403e+00 -5.819109e+00 -2.613354e-05 -7.425106e-05 9.870795e-05
N -6.305478e+00 3.591729e+00 -7.331651e-01 5.628024e-05 -4.249663e-06 4.328243e-05
N -3.165077e+00 -1.854474e+00 4.281477e+00 9.087543e-06 2.239505e-06 3.627333e-05
N -3.204754e+00 -1.877233e+00 -5.814576e+00 3.259972e-05 2.963500e-06 9.887967e-05
N -3.168751e+00 -1.856167e+00 -7.346004e-01 -1.133617e-06 3.400095e-06 3.406191e-05
N -1.593586e+00 8.707686e-01 4.284917e+00 -1.069847e-05 -1.446565e-05 6.575360e-05
N -1.589677e+00 9.149838e-01 -5.818290e+00 -1.187524e-04 6.048283e-05 -1.904526e-05
N -1.594119e+00 8.729426e-01 -7.327908e-01 5.117080e-05 -7.600121e-05 -8.864318e-06
N -3.159082e+00 3.587219e+00 4.281936e+00 7.264599e-06 -1.676268e-05 5.593426e-05
N -3.164974e+00 3.588993e+00 -5.793023e+00 1.309370e-05 -3.743856e-05 5.652427e-05
N -3.162937e+00 3.585683e+00 -6.808453e-01 -3.483908e-04 4.799712e-04 1.269539e-04
N -2.347336e-02 -1.850666e+00 4.291624e+00 2.866221e-05 2.073769e-05 1.643339e-05
N -2.341967e-02 -1.896446e+00 -5.776330e+00 -2.159710e-05 2.156122e-04 2.341963e-05
N -2.283020e-02 -1.858590e+00 -7.247906e-01 4.956869e-05 -2.458802e-05 2.726151e-05
N -2.332199e-02 1.778053e+00 1.779610e+00 -3.370836e-05 2.292203e-05 3.828354e-05
N -2.339380e-02 1.778248e+00 6.792245e+00 -5.315856e-05 -8.651935e-06 2.043341e-05
N -2.263646e-02 1.773523e+00 -3.265172e+00 -7.788219e-06 -2.092583e-05 7.882045e-06
N 3.123940e+00 -3.664850e+00 1.781788e+00 -5.430013e-05 -6.303123e-05 1.690994e-04
N 3.118042e+00 -3.668560e+00 6.806138e+00 -4.405967e-05 -1.837899e-05 6.635884e-05
N 3.160904e+00 -3.641529e+00 -3.288533e+00 -7.701889e-05 2.311116e-06 3.908620e-05
N 1.549406e+00 -9.459844e-01 1.779009e+00 -3.629020e-05 -3.766947e-05 5.473361e-05
N 1.593172e+00 -9.209624e-01 6.779364e+00 4.629147e-05 4.516429e-05 1.348506e-04
N 1.551272e+00 -9.454852e-01 -3.193099e+00 -5.555461e-05 4.346049e-05 -1.338970e-05
N 3.120606e+00 1.775536e+00 1.773963e+00 -3.115328e-05 -7.486678e-05 -5.509066e-06
N 3.120675e+00 1.775962e+00 6.803440e+00 -2.463353e-05 1.295594e-05 1.265055e-05
N 3.118514e+00 1.774362e+00 -3.204534e+00 -7.282907e-05 -2.824539e-05 -1.636986e-05
N 6.257850e+00 -3.666883e+00 1.776108e+00 -2.902586e-05 -4.732851e-05 8.949130e-06
N 6.257718e+00 -3.666102e+00 6.797773e+00 -3.673677e-05 3.067185e-05 2.774847e-05
N 6.260381e+00 -3.665906e+00 -3.268308e+00 -2.858445e-05 -1.428352e-05 7.450151e-05
N 4.689267e+00 -9.442251e-01 1.779541e+00 -4.224085e-05 -1.117751e-05 -7.788744e-06
N 4.690070e+00 -9.456195e-01 6.790020e+00 -3.117777e-07 2.797271e-05 4.353690e-05
N 4.689547e+00 -9.470905e-01 -3.267329e+00 -5.432279e-05 3.577623e-05 9.114129e-05
N -3.164710e+00 1.771296e+00 1.784870e+00 -6.598657e-05 -4.611908e-05 3.652920e-04
N -3.164237e+00 1.778118e+00 6.798356e+00 -3.624222e-06 8.467242e-06 9.582561e-05
N -3.163420e+00 1.724908e+00 -3.287033e+00 -5.027714e-05 4.173013e-05 1.436817e-05
N -2.581026e-02 -3.664742e+00 1.790950e+00 2.443867e-05 -8.613049e-05 -2.555672e-04
N -2.007495e-02 -3.718567e+00 6.774333e+00 -4.217888e-05 9.532795e-05 8.175915e-05
N -6.511383e-02 -3.646131e+00 -3.275168e+00 1.935012e-05 -5.141399e-05 8.902298e-05
N -1.593867e+00 -9.446690e-01 1.775843e+00 -2.282213e-05 -4.110870e-05 -2.570026e-05
N -1.638957e+00 -9.197211e-01 6.785446e+00 9.191666e-06 2.875121e-05 5.620471e-05
N -1.596717e+00 -9.455472e-01 -3.195897e+00 -6.969178e-06 7.232983e-05 3.785108e-05
