108
Energy=-1352173.741634 Lattice="9.503692 0.000000 0.000000 -4.757849 8.230950 0.000000 0.012721 0.024353 15.331517" Stress="-0.000003 -0.000002 0.000002 -0.000002 -0.000005 0.000005 0.000002 0.000005 -0.000002" Properties=species:S:1:pos:R:3:forces:R:3
Al 1.567347 0.874596 2.395653 -0.000113 0.000844 0.000097
Al 1.573204 0.891816 7.475492 0.003142 -0.000519 0.004280
Al 1.559576 0.873660 -2.670536 0.000220 0.000159 -0.000040
Al -0.011656 3.623400 2.391071 -0.002183 0.000919 -0.000244
Al -0.012743 3.633648 7.508714 0.000260 0.002171 0.002198
Al -0.031810 3.607228 -2.687337 0.000140 0.000193 0.000716
Al 3.147250 -1.850892 2.392929 0.001962 0.001313 -0.001582
Al 3.156716 -1.855047 7.512686 0.001406 0.000024 0.001363
Ga 3.146107 -1.879149 -2.691319 -0.000391 -0.000031 0.001383
Al -4.787239 0.871316 2.390605 0.000050 0.001155 -0.000104
Al -4.790221 0.882925 7.497947 -0.000020 0.000318 0.000576
Al -4.780388 0.874673 -2.675716 -0.000269 0.000322 -0.000179
Ga -6.378646 3.608522 2.406369 0.000411 0.000357 -0.000126
Al -6.368248 3.616692 7.493445 -0.000040 -0.000167 0.000309
Al -6.376120 3.597146 -2.678305 -0.000025 0.000337 0.000063
Ga -3.211997 -1.869305 2.405166 0.000121 0.000161 0.000188
Al -3.196442 -1.863707 7.498811 -0.000968 -0.000689 0.001341
Al -3.196467 -1.874267 -2.686543 0.000795 -0.000329 0.000053
Ga -1.593436 0.901298 2.395864 -0.000541 0.000254 -0.000397
Ga -1.597062 0.898718 7.522889 -0.000157 -0.000068 0.000676
Al -1.616682 0.874989 -2.688090 0.000939 -0.000316 -0.000199
Ga -3.179884 3.628140 2.385593 0.000030 -0.000864 -0.000433
Al -3.181530 3.633885 7.530558 0.000124 0.000005 0.000306
Al -3.183188 3.598159 -2.684741 0.000236 0.000796 0.000105
Al 0.006299 -1.848803 2.412103 -0.000245 -0.000495 -0.000503
Ga 0.000012 -1.852747 7.539205 0.000022 -0.000150 0.000543
Ga -0.025756 -1.862085 -2.712207 0.000268 0.000053 -0.000235
Al 0.012419 1.810825 4.954883 -0.000212 0.000160 -0.000400
Ga -0.018787 1.771357 -5.236850 0.000345 0.000086 0.000021
Al -0.014000 1.799463 -0.157957 0.000251 0.000261 -0.002850
Ga 3.178032 -3.674572 4.963648 -0.000100 -0.000206 0.000461
Al 3.141036 -3.706609 -5.266022 0.000270 0.000390 0.000351
Al 3.164693 -3.700097 -0.144750 0.000084 -0.000005 -0.000115
Al 1.582441 -0.927952 4.944636 0.001510 0.000743 0.000359
Al 1.565599 -0.960635 -5.265246 0.000006 0.000826 -0.000041
Al 1.576764 -0.942512 -0.123334 -0.000278 0.000021 0.000001
Al 3.134372 1.784447 4.954602 0.000460 -0.000765 0.000529
Ga 3.126296 1.766692 -5.251557 -0.000305 -0.000283 0.000614
Al 3.137627 1.771417 -0.152067 0.000421 0.000396 -0.001132
Al 6.306841 -3.698062 4.977143 0.000259 0.000040 0.000469
Ga 6.304398 -3.701389 -5.252845 0.000331 -0.000351 0.000283
Al 6.294725 -3.708764 -0.171793 0.000307 -0.000194 0.000034
Al 4.715364 -0.942842 4.965329 0.000403 0.000662 0.000133
Ga 4.725025 -0.971362 -5.261945 -0.000432 -0.000006 0.000443
Al 4.722074 -0.948549 -0.154695 -0.000368 0.000017 0.000514
Ga -3.203350 1.791634 4.974662 -0.000360 -0.000428 0.000060
Ga -3.200336 1.781217 -5.238277 -0.000347 0.000131 0.000121
Al -3.194283 1.781958 -0.187118 -0.001062 -0.000014 0.004734
Ga -0.023097 -3.683106 4.976036 0.000162 0.000015 0.000007
Ga -0.020569 -3.709416 -5.245182 -0.000073 -0.000242 -0.000248
Ga -0.017518 -3.708256 -0.160511 -0.000273 0.000066 0.001160
Ga -1.594385 -0.948065 4.955217 -0.000799 0.000231 -0.000384
Al -1.616754 -0.965676 -5.239737 -0.000389 -0.000294 -0.000002
Ga -1.613706 -0.950006 -0.148848 0.000159 0.000120 0.000827
N 1.565376 0.886380 4.329709 -0.000308 -0.000289 0.000017
N 1.552433 0.817337 -5.927884 -0.000216 0.000336 -0.001991
N 1.559472 0.864415 -0.750641 0.000125 0.000182 -0.000233
N 0.023880 3.606620 4.316773 0.000001 0.000126 -0.000473
N -0.068377 3.623855 -5.900543 0.000032 -0.000016 -0.001261
N -0.033280 3.617087 -0.769341 -0.000111 -0.000026 -0.000843
N 3.152502 -1.812881 4.317500 0.000438 0.000183 -0.000566
N 3.101730 -1.903213 -5.888305 0.000008 -0.000323 -0.000675
N 3.139872 -1.872283 -0.704302 0.000299 0.000225 -0.001008
N -4.815789 0.857741 4.321246 0.000097 0.000209 -0.000266
N -4.787938 0.864237 -5.924709 0.000549 0.000126 -0.000541
N -4.781303 0.870818 -0.763221 -0.000016 0.000285 -0.000205
N -6.404114 3.600806 4.389906 -0.000087 0.000902 -0.000527
N -6.372564 3.600557 -5.923404 -0.000115 0.000467 -0.000682
N -6.406767 3.585735 -0.766338 -0.000243 -0.000057 0.000079
N -3.235166 -1.885707 4.385400 0.000017 -0.000590 0.000257
N -3.155574 -1.859314 -5.912326 0.000274 0.000401 -0.000756
N -3.233963 -1.892561 -0.772523 0.000094 0.000137 0.000046
N -1.559533 0.922229 4.368629 0.000500 -0.000307 0.000136
N -1.612103 0.821726 -5.838021 0.000302 -0.000056 -0.000552
N -1.601877 0.918274 -0.771087 -0.000118 -0.000082 -0.001099
N -3.182795 3.630355 4.345313 0.000070 -0.000025 -0.000108
N -3.159005 3.629091 -5.891992 -0.000102 -0.000330 -0.000312
N -3.143166 3.595315 -0.766967 0.000173 0.000972 -0.001672
N 0.037032 -1.832193 4.321539 -0.001394 -0.001016 -0.000110
N -0.026210 -1.830161 -5.811957 -0.000281 -0.000223 -0.000042
N 0.024219 -1.839165 -0.748698 0.000553 -0.000092 -0.000134
N 0.026307 1.827172 1.755411 0.000939 -0.001835 0.002524
N 0.029476 1.836308 6.878493 -0.001226 -0.002095 -0.001617
N -0.020207 1.780284 -3.249081 -0.000163 0.000202 -0.000019
N 3.196441 -3.662915 1.772250 0.002043 -0.001117 0.002042
N 3.158965 -3.684401 6.948601 0.000013 0.000049 -0.000460
N 3.147075 -3.752704 -3.336176 -0.000056 0.000031 -0.000752
N 1.568014 -0.944796 1.798730 -0.000173 0.000757 -0.000089
N 1.619845 -0.923491 6.871224 -0.002642 0.000946 -0.001755
N 1.571470 -0.904015 -3.355765 -0.000096 -0.000044 0.000122
N 3.145951 1.744714 1.764764 -0.000921 -0.000181 0.001471
N 3.147152 1.797635 6.878548 0.000021 -0.000218 -0.000206
N 3.137214 1.778418 -3.259688 -0.000020 -0.000156 -0.000254
N 6.276695 -3.714779 1.739777 0.000653 0.000544 -0.000240
N 6.316331 -3.686927 6.900863 -0.000207 0.000003 -0.000222
N 6.310834 -3.704432 -3.260455 -0.000079 -0.000246 -0.000322
N 4.698114 -0.913107 1.761042 -0.002435 -0.003971 0.001013
N 4.730347 -0.942326 6.897695 -0.000089 -0.000504 -0.000577
N 4.767042 -0.934718 -3.278710 -0.000456 0.000034 -0.000836
N -3.235263 1.768719 1.741626 0.000426 0.000077 -0.000613
N -3.230189 1.825571 6.945196 -0.000237 -0.000142 -0.000288
N -3.202238 1.781700 -3.252252 0.000053 -0.000194 0.000305
N -0.025399 -3.645476 1.815581 -0.000584 -0.000154 -0.001277
N -0.011644 -3.727505 6.950895 -0.000211 0.000098 -0.000107
N -0.023469 -3.760338 -3.262426 -0.000235 -0.000252 0.000096
N -1.565598 -0.970367 1.825851 -0.000399 -0.000550 -0.000462
N -1.632896 -0.966877 6.917388 0.000637 0.000471 -0.000133
N -1.659412 -0.936666 -3.318837 -0.000243 0.000203 0.000073
