108
Energy=-1.123296e+06 Lattice="9.475861e+00 0.000000e+00 0.000000e+00 -4.747700e+00 8.201439e+00 0.000000e+00 -2.953727e-03 -7.270896e-02 1.528902e+01" Stress="-9.110050e-04 1.831771e-04 -2.373377e-04 1.804348e-04 -1.976369e-03 -3.517236e-03 -2.443871e-04 -3.528603e-03 3.951690e-03" Properties=species:S:1:pos:R:3:forces:R:3 Config_type=AlGaN_super3_15_1_6.xyz
Al 1.548874e+00 8.517565e-01 2.402861e+00 -6.992968e-04 5.988930e-03 -4.033819e-04
Al 1.561380e+00 8.178494e-01 7.464094e+00 4.261454e-04 2.213691e-03 3.010889e-03
Al 1.549346e+00 8.881315e-01 -2.697563e+00 9.716981e-04 -1.018698e-04 3.231403e-03
Al -3.872760e-02 3.579558e+00 2.401720e+00 1.170210e-05 -5.503275e-04 -8.612833e-05
Al -1.034174e-02 3.556070e+00 7.481612e+00 -3.426627e-03 -3.042485e-03 6.010921e-04
Al -1.926901e-02 3.610839e+00 -2.684314e+00 -2.118185e-03 3.647259e-03 1.580121e-03
Al 3.125683e+00 -1.902126e+00 2.428196e+00 -1.751797e-04 1.026436e-02 -2.093193e-02
Al 3.122158e+00 -1.900016e+00 7.511426e+00 1.578479e-02 -7.975984e-03 -1.047247e-04
Ga 3.154552e+00 -1.839134e+00 -2.695666e+00 3.985420e-04 5.113464e-05 2.798532e-03
Al -4.775698e+00 8.733584e-01 2.429511e+00 -2.720004e-03 1.072636e-02 2.421132e-03
Al -4.760271e+00 8.283680e-01 7.490255e+00 -9.875601e-04 -1.612707e-03 -1.272063e-03
Al -4.772857e+00 8.944246e-01 -2.704233e+00 3.542421e-03 -1.722644e-04 1.780007e-03
Ga -6.344080e+00 3.598911e+00 2.377361e+00 3.585384e-06 -1.781561e-03 1.243815e-03
Al -6.342802e+00 3.560781e+00 7.498856e+00 1.315177e-03 -1.311274e-03 1.112734e-03
Ga -6.350307e+00 3.624161e+00 -2.701557e+00 8.697294e-04 9.448382e-04 2.550319e-03
Al -3.177027e+00 -1.868715e+00 2.392672e+00 1.111751e-03 4.646603e-03 5.330569e-03
Ga -3.172537e+00 -1.910374e+00 7.508660e+00 -1.337738e-03 1.244197e-03 -3.829971e-04
Al -3.189655e+00 -1.843055e+00 -2.711040e+00 3.252094e-03 8.277154e-04 2.329541e-03
Al -1.613397e+00 8.542348e-01 2.427849e+00 2.583052e-03 2.002097e-04 -2.170934e-03
Al -1.607264e+00 8.323161e-01 7.476454e+00 1.934949e-03 8.618389e-04 3.340855e-04
Ga -1.624165e+00 9.035905e-01 -2.689156e+00 7.487665e-04 -1.144718e-03 1.589401e-03
Al -3.184623e+00 3.609666e+00 2.430979e+00 1.967929e-04 -4.229557e-03 3.130388e-04
Ga -3.190455e+00 3.566349e+00 7.483220e+00 3.404187e-03 -9.841496e-05 -7.512971e-04
Al -3.193949e+00 3.631905e+00 -2.707641e+00 8.640394e-04 -2.703628e-03 3.236744e-03
Al -2.941835e-02 -1.865705e+00 2.392701e+00 -7.178903e-04 1.490318e-03 8.589439e-04
Al -1.276689e-02 -1.895454e+00 7.495894e+00 2.363620e-03 9.993535e-04 8.047815e-04
Ga -2.415142e-02 -1.831392e+00 -2.714311e+00 7.102643e-04 -7.078721e-04 4.588560e-03
Al -3.081263e-02 1.744329e+00 4.952326e+00 -7.130837e-04 1.067430e-03 -1.418624e-04
Ga -2.190523e-02 1.798903e+00 -5.273087e+00 -1.917411e-03 3.763974e-04 2.040365e-03
Al -1.647142e-02 1.796681e+00 -1.394799e-01 -1.062216e-03 -1.530960e-03 3.462363e-03
Al 3.143409e+00 -3.724671e+00 4.938659e+00 1.022543e-03 -4.611462e-03 3.567900e-03
Ga 3.149828e+00 -3.659857e+00 -5.250516e+00 -2.763460e-04 -4.265849e-05 1.733881e-03
Al 3.137666e+00 -3.681700e+00 -1.372437e-01 -3.921909e-04 -4.541257e-04 7.816528e-04
Ga 1.577986e+00 -1.007257e+00 4.932699e+00 -4.780927e-03 3.879462e-03 1.698457e-03
Al 1.564973e+00 -9.288665e-01 -5.268163e+00 -2.790127e-03 -9.117388e-04 1.826654e-03
Al 1.550459e+00 -9.319123e-01 -1.333524e-01 -1.654959e-03 1.288820e-03 2.000247e-03
Al 3.137814e+00 1.752924e+00 4.966329e+00 1.678662e-04 -8.807075e-04 3.064617e-04
Ga 3.140589e+00 1.803782e+00 -5.269881e+00 -1.359046e-03 1.281469e-03 2.318235e-03
Al 3.111049e+00 1.790920e+00 -1.662424e-01 5.338058e-04 1.048244e-04 1.712169e-03
Ga 6.311068e+00 -3.733459e+00 4.951875e+00 -1.538642e-03 1.793762e-03 -4.007223e-04
Al 6.302925e+00 -3.652760e+00 -5.244625e+00 6.505646e-04 3.094009e-04 2.514846e-04
Al 6.292750e+00 -3.671775e+00 -1.509012e-01 -4.407468e-04 4.856981e-04 -6.541096e-04
Ga 4.730090e+00 -9.862587e-01 4.921845e+00 1.313297e-04 2.678789e-03 3.676558e-03
Al 4.732014e+00 -9.169289e-01 -5.254986e+00 -1.156810e-03 -1.062166e-03 3.288271e-03
Ga 4.724110e+00 -9.348966e-01 -9.887465e-02 -1.022677e-03 1.853135e-03 9.492506e-04
Al -3.184932e+00 1.756155e+00 4.947023e+00 1.860851e-04 1.021206e-03 -1.731370e-03
Al -3.194069e+00 1.801356e+00 -5.254188e+00 7.180299e-04 4.839708e-04 2.780843e-03
Ga -3.198164e+00 1.814905e+00 -1.127792e-01 3.034139e-04 -5.570316e-04 5.677132e-04
Al -1.813849e-02 -3.714661e+00 4.952416e+00 1.004230e-03 4.010749e-04 5.527413e-04
Al -1.541168e-02 -3.649524e+00 -5.265921e+00 -2.692837e-03 2.426370e-03 1.826501e-03
Al -1.561524e-02 -3.656184e+00 -1.444441e-01 1.663019e-04 -1.024779e-03 -1.185275e-03
Al -1.585763e+00 -9.729448e-01 4.951257e+00 4.126910e-05 6.224467e-04 -8.155910e-05
Al -1.605482e+00 -9.256163e-01 -5.267930e+00 8.234199e-04 4.650682e-04 1.529313e-03
Al -1.593332e+00 -9.437618e-01 -1.321781e-01 -1.097804e-03 3.684146e-05 1.717997e-03
N 1.555672e+00 8.786467e-01 4.335335e+00 2.305902e-03 1.119389e-03 -1.192319e-03
N 1.554230e+00 8.484091e-01 -5.906830e+00 1.548260e-03 1.624397e-04 -5.104716e-03
N 1.541119e+00 8.830292e-01 -7.668039e-01 8.854599e-04 -1.251924e-03 -7.042490e-04
N -5.897915e-02 3.548348e+00 4.327552e+00 -9.991530e-04 -1.143152e-03 -3.611695e-03
N 1.664880e-02 3.652806e+00 -5.901230e+00 9.488810e-04 -3.042179e-04 -7.609279e-04
N -2.608851e-02 3.618281e+00 -7.539834e-01 -1.277331e-03 -1.086593e-03 5.910295e-04
N 3.150821e+00 -1.955011e+00 4.274612e+00 -1.540209e-03 3.007651e-05 1.268909e-02
N 3.145261e+00 -1.796626e+00 -5.862805e+00 1.005369e-03 1.390488e-03 -8.172168e-04
N 3.108807e+00 -1.864011e+00 -7.101042e-01 -2.268112e-03 -1.482625e-03 2.684074e-03
N -4.769053e+00 8.904079e-01 4.338346e+00 -1.322631e-03 2.338638e-03 7.943835e-04
N -4.727149e+00 8.789247e-01 -5.879515e+00 2.948870e-03 -1.573622e-03 -3.067847e-03
N -4.801689e+00 9.085067e-01 -7.875919e-01 -1.073758e-03 -3.285598e-04 -1.454591e-03
N -6.299305e+00 3.545958e+00 4.360424e+00 1.056074e-03 -1.834712e-04 -1.244719e-03
N -6.340216e+00 3.683532e+00 -5.867948e+00 -9.902123e-04 -1.275160e-03 -1.703150e-03
N -6.347676e+00 3.626162e+00 -7.144457e-01 6.452148e-04 1.412991e-04 2.642931e-03
N -3.120280e+00 -1.876305e+00 4.314280e+00 -8.338226e-06 -1.428578e-03 -2.100573e-03
N -3.179094e+00 -1.840642e+00 -5.810759e+00 2.882924e-04 1.187235e-03 1.288024e-03
N -3.146208e+00 -1.861647e+00 -7.723192e-01 1.761058e-03 -1.639246e-03 -1.301254e-03
N -1.607073e+00 8.446524e-01 4.354505e+00 1.299259e-03 -9.497491e-04 -1.178376e-03
N -1.650218e+00 8.839677e-01 -5.894709e+00 -7.010055e-04 -1.617958e-03 2.271365e-03
N -1.582350e+00 8.681363e-01 -7.077870e-01 2.315103e-03 1.528597e-04 -8.767359e-04
N -3.186276e+00 3.586363e+00 4.363430e+00 -7.325451e-04 3.364743e-04 -2.043107e-03
N -3.225931e+00 3.614355e+00 -5.833576e+00 1.381514e-03 -2.464159e-03 -1.692382e-03
N -3.194187e+00 3.667138e+00 -7.764579e-01 1.043189e-03 1.376553e-03 -1.808763e-03
N -5.794030e-02 -1.912574e+00 4.325255e+00 1.070201e-03 -1.372192e-03 -3.801493e-03
N -2.206478e-02 -1.830007e+00 -5.861935e+00 1.931702e-03 9.226871e-05 -2.459994e-03
N -2.412239e-02 -1.836621e+00 -7.206242e-01 9.644193e-04 -1.705978e-03 3.712037e-04
N -3.433709e-02 1.760633e+00 1.803360e+00 1.002981e-03 3.330988e-03 -2.130190e-03
N -2.047910e-02 1.735398e+00 6.884169e+00 -1.076847e-04 -1.275066e-03 -2.525386e-03
N 8.732701e-03 1.820265e+00 -3.292629e+00 1.022543e-03 -5.918745e-05 1.720922e-03
N 3.137340e+00 -3.710106e+00 1.804009e+00 1.730608e-04 2.271734e-03 -4.443711e-03
N 3.198955e+00 -3.716829e+00 6.863136e+00 -4.315000e-03 6.252893e-03 3.493583e-04
N 3.143775e+00 -3.711769e+00 -3.279355e+00 2.764304e-03 -1.413480e-03 2.158069e-03
N 1.525837e+00 -9.329352e-01 1.795096e+00 1.059472e-02 -1.132474e-02 3.130861e-03
N 1.613580e+00 -1.010579e+00 6.915732e+00 -2.044103e-02 3.403483e-03 -1.110307e-03
N 1.571012e+00 -8.920787e-01 -3.346942e+00 -1.681007e-03 2.730547e-03 -3.510676e-03
N 3.120299e+00 1.734283e+00 1.747575e+00 9.514088e-04 -2.186797e-03 4.418839e-03
N 3.139513e+00 1.741750e+00 6.895224e+00 1.801726e-04 7.060487e-04 -9.712356e-04
N 3.124795e+00 1.760539e+00 -3.291179e+00 -7.311614e-04 -1.566326e-03 8.004904e-04
N 6.245779e+00 -3.659124e+00 1.769552e+00 -1.142603e-03 -2.476441e-03 8.591929e-04
N 6.304193e+00 -3.778468e+00 6.919107e+00 2.750807e-03 1.827855e-03 -2.019000e-03
N 6.257002e+00 -3.648119e+00 -3.320759e+00 -1.875471e-03 5.793438e-04 -1.474064e-03
N 4.722160e+00 -9.004812e-01 1.916107e+00 -4.877702e-03 -2.382238e-02 -1.419958e-02
N 4.680584e+00 -9.852181e-01 6.900791e+00 -5.946442e-04 2.622442e-03 2.114315e-03
N 4.765046e+00 -9.018716e-01 -3.320728e+00 -2.769922e-03 3.094888e-04 -4.069356e-03
N -3.195732e+00 1.771626e+00 1.880736e+00 1.339589e-03 6.036585e-03 -2.196434e-03
N -3.185586e+00 1.705435e+00 6.864569e+00 -4.589396e-04 -3.513171e-03 -3.009088e-03
N -3.230485e+00 1.831900e+00 -3.321231e+00 -1.346559e-03 1.987274e-04 -3.700061e-03
N 3.004052e-02 -3.666900e+00 1.767673e+00 -2.048217e-04 6.033353e-04 2.798601e-03
N -5.457611e-02 -3.698226e+00 6.874697e+00 -2.052649e-03 2.321911e-03 -2.525383e-03
N 1.629128e-02 -3.678348e+00 -3.354746e+00 -4.872963e-04 -2.404274e-04 1.368704e-04
N -1.606453e+00 -9.556678e-01 1.796283e+00 -9.804242e-04 -1.357475e-03 -8.820823e-04
N -1.557395e+00 -9.707763e-01 6.874813e+00 2.217745e-03 1.628136e-04 -2.725303e-03
N -1.637257e+00 -9.432304e-01 -3.352080e+00 -2.579746e-03 -8.179276e-04 -1.410070e-03
