108
Energy=-2.221908e+06 Lattice="9.644157e+00 0.000000e+00 0.000000e+00 -4.836444e+00 8.335864e+00 0.000000e+00 5.812714e-02 -1.142229e-01 1.565125e+01" Stress="9.029440e-03 -1.171647e-03 2.108435e-03 -1.167357e-03 7.664238e-03 -4.460456e-03 2.107035e-03 -4.456960e-03 1.178893e-02" Properties=species:S:1:pos:R:3:forces:R:3 Config_type=AlGaN_super3_39_1_5.xyz
Al 1.592011e+00 8.582936e-01 2.488322e+00 9.475991e-04 2.047691e-03 -3.473885e-04
Al 1.599180e+00 8.289294e-01 7.650877e+00 1.005558e-03 4.404508e-03 4.090644e-05
Ga 1.565794e+00 9.185938e-01 -2.754543e+00 1.083831e-03 1.427590e-03 -4.281222e-04
Al -1.931440e-03 3.614170e+00 2.452736e+00 3.738655e-04 4.523893e-04 2.762097e-03
Al -6.358535e-03 3.582266e+00 7.666920e+00 1.355877e-03 -2.464674e-04 6.702936e-04
Ga -6.255132e-02 3.709710e+00 -2.761949e+00 9.732716e-04 -1.004373e-04 4.018918e-04
Ga 3.212897e+00 -1.931930e+00 2.471609e+00 1.262146e-03 1.017646e-03 1.341120e-03
Ga 3.234332e+00 -1.942575e+00 7.660805e+00 8.645742e-04 -5.930083e-04 5.291469e-04
Al 3.168102e+00 -1.874574e+00 -2.762401e+00 1.372592e-03 -6.234098e-04 1.742680e-03
Ga -4.833661e+00 8.525756e-01 2.507067e+00 1.585671e-03 1.728940e-03 -1.507727e-03
Al -4.813330e+00 8.155019e-01 7.644596e+00 6.380881e-04 4.342391e-03 -2.242668e-04
Ga -4.887544e+00 9.250427e-01 -2.758418e+00 1.163923e-03 1.159316e-03 -2.011411e-03
Al -6.447749e+00 3.623095e+00 2.478896e+00 6.910758e-04 6.340663e-04 -2.796992e-04
Ga -6.438566e+00 3.587863e+00 7.664593e+00 2.231797e-04 5.180781e-04 -7.506704e-04
Al -6.482886e+00 3.694495e+00 -2.757070e+00 2.079966e-04 2.119131e-04 -3.662989e-04
Ga -3.202618e+00 -1.941419e+00 2.493472e+00 1.585814e-05 4.206360e-04 -7.996854e-04
Ga -3.214897e+00 -1.935822e+00 7.660770e+00 5.724980e-04 -1.186104e-03 -6.025426e-04
Ga -3.256398e+00 -1.861201e+00 -2.755440e+00 4.728595e-04 -9.009898e-04 -1.699740e-03
Ga -1.582312e+00 8.613314e-01 2.522132e+00 -1.429921e-03 5.110356e-04 -1.905017e-03
Al -1.591162e+00 8.420296e-01 7.634358e+00 -1.407322e-03 2.543612e-03 -5.465209e-04
Ga -1.651286e+00 9.235930e-01 -2.759457e+00 -1.114164e-03 6.636997e-04 -7.389729e-04
Ga -3.214786e+00 3.639457e+00 2.469963e+00 -1.756244e-03 -2.212863e-03 3.654332e-04
Ga -3.194902e+00 3.592376e+00 7.671472e+00 -1.858514e-03 -9.020744e-04 -2.401336e-04
Ga -3.254891e+00 3.720688e+00 -2.753130e+00 -7.113362e-04 -1.393722e-03 -4.851728e-04
Al 1.128124e-02 -1.920057e+00 2.477838e+00 -1.853701e-03 -2.709731e-03 -6.799162e-04
Ga 1.822854e-02 -1.925580e+00 7.677587e+00 -1.313275e-03 -2.813219e-03 2.831235e-05
Ga -3.401257e-02 -1.852904e+00 -2.746518e+00 -9.222255e-04 -2.210730e-03 -9.247213e-04
Al -5.590908e-03 1.765718e+00 5.075848e+00 3.362450e-03 3.288774e-03 7.877525e-04
Ga -6.110024e-02 1.858232e+00 -5.417073e+00 1.392641e-03 2.392763e-03 1.480494e-03
Ga -5.325908e-02 1.834080e+00 -1.256121e-01 3.685058e-03 1.736253e-03 4.116174e-03
Ga 3.244091e+00 -3.815871e+00 5.065338e+00 1.105538e-03 2.126461e-03 9.330127e-04
Al 3.176360e+00 -3.700010e+00 -5.385318e+00 3.685976e-03 2.014862e-03 9.724342e-04
Al 3.188439e+00 -3.729840e+00 -1.212467e-01 1.755136e-03 3.655043e-03 -7.397380e-03
Ga 1.616471e+00 -9.999312e-01 5.060888e+00 -1.116794e-04 -1.908544e-04 1.627821e-04
Ga 1.576236e+00 -9.257859e-01 -5.368218e+00 9.545989e-04 1.359425e-03 -2.974524e-04
Ga 1.578517e+00 -9.576730e-01 -1.201883e-01 2.203909e-03 -3.329839e-04 3.006463e-04
Ga 3.212647e+00 1.744858e+00 5.070938e+00 -6.231903e-04 1.885710e-03 3.786212e-04
Ga 3.161158e+00 1.849701e+00 -5.396152e+00 -3.594820e-04 7.854949e-04 4.752599e-04
Ga 3.163545e+00 1.839615e+00 -1.079881e-01 2.938697e-04 2.342320e-04 -2.676635e-03
Ga 6.418266e+00 -3.808441e+00 5.060550e+00 4.535110e-04 6.622935e-04 -2.100763e-04
Ga 6.373047e+00 -3.707172e+00 -5.373270e+00 -1.172079e-04 3.138686e-04 -4.484313e-04
Ga 6.390310e+00 -3.731820e+00 -1.233990e-01 1.305162e-03 -1.382796e-03 -1.792730e-03
Al 4.833877e+00 -9.962927e-01 5.088250e+00 -6.232016e-04 -3.377017e-03 -1.060360e-03
Ga 4.764995e+00 -9.222274e-01 -5.368299e+00 -2.963848e-04 -4.241858e-04 -5.168308e-04
Ga 4.769698e+00 -9.532441e-01 -1.658744e-01 6.043987e-04 -2.781915e-03 5.501448e-03
Al -3.203565e+00 1.751252e+00 5.100312e+00 -1.704424e-03 9.720175e-04 -1.579731e-03
Ga -3.257364e+00 1.858098e+00 -5.405025e+00 -1.414392e-03 6.885943e-04 7.331447e-04
Ga -3.251251e+00 1.838500e+00 -1.522306e-01 -5.323444e-04 1.526902e-04 6.959981e-03
Ga 1.743766e-02 -3.797162e+00 5.049912e+00 -1.542996e-03 8.587407e-04 1.625133e-04
Ga -3.049199e-02 -3.699639e+00 -5.353730e+00 -9.726938e-04 -4.721739e-05 -3.714130e-04
Ga -3.249917e-02 -3.721597e+00 -1.235408e-01 -1.214601e-04 -1.503578e-03 -1.455788e-03
Ga -1.596199e+00 -9.915689e-01 5.078333e+00 -1.107854e-03 -2.567216e-03 -5.789803e-04
Ga -1.648210e+00 -9.015404e-01 -5.388000e+00 -1.604964e-03 -1.296380e-03 -4.417161e-04
Ga -1.639434e+00 -9.332533e-01 -1.122362e-01 -2.228600e-04 -3.630939e-03 2.153526e-03
N 1.553558e+00 8.659254e-01 4.405548e+00 2.620613e-03 7.368018e-04 2.584525e-03
N 1.549302e+00 9.273821e-01 -6.080876e+00 1.151536e-03 4.861857e-04 3.340830e-03
N 1.558170e+00 9.049787e-01 -7.686866e-01 1.516415e-03 7.692338e-04 3.059914e-04
N -8.484660e-03 3.558708e+00 4.379983e+00 1.096474e-04 1.495399e-03 1.176760e-03
N -1.052122e-01 3.736978e+00 -6.055715e+00 2.180859e-03 -1.143295e-03 1.856143e-03
N -9.908720e-02 3.712859e+00 -7.611228e-01 3.544639e-03 -2.289917e-03 -1.389941e-03
N 3.269091e+00 -1.915209e+00 4.463908e+00 -8.584330e-04 -1.819514e-03 -3.460560e-04
N 3.169959e+00 -1.894245e+00 -6.004448e+00 8.383891e-04 1.092326e-03 -3.162661e-04
N 3.167390e+00 -1.928569e+00 -8.171035e-01 1.123918e-03 -1.503905e-04 1.161085e-03
N -4.772672e+00 8.081447e-01 4.494568e+00 -5.555696e-04 5.063108e-03 -1.452569e-03
N -4.873838e+00 9.275641e-01 -6.082507e+00 8.839836e-04 7.553515e-04 2.924255e-03
N -4.876660e+00 9.140917e-01 -7.810536e-01 1.377975e-03 1.379810e-03 1.833699e-03
N -6.436037e+00 3.612877e+00 4.388832e+00 3.213282e-04 -4.839801e-04 3.187210e-03
N -6.482734e+00 3.715985e+00 -6.013881e+00 3.663175e-04 1.162565e-04 8.076378e-04
N -6.478893e+00 3.687494e+00 -8.320441e-01 8.543943e-04 -7.599077e-04 3.676908e-03
N -3.253033e+00 -1.908164e+00 4.476482e+00 2.578110e-03 -2.035598e-03 2.320020e-04
N -3.264491e+00 -1.838900e+00 -6.008798e+00 4.822993e-04 -1.049097e-03 7.822686e-04
N -3.245882e+00 -1.865580e+00 -7.738021e-01 8.733589e-04 -1.247099e-03 2.023190e-03
N -1.596396e+00 9.018130e-01 4.505211e+00 -3.050348e-03 -2.093189e-03 -9.889721e-04
N -1.658042e+00 9.398518e-01 -6.100865e+00 -7.713947e-04 -2.678544e-04 2.496324e-03
N -1.646952e+00 9.098973e-01 -7.817732e-01 -8.506269e-04 -2.045437e-04 1.007801e-03
N -3.206780e+00 3.565089e+00 4.461425e+00 -1.446486e-03 -1.647706e-04 -1.266515e-03
N -3.216210e+00 3.748167e+00 -5.987451e+00 -5.427131e-03 -3.758011e-03 -1.647290e-03
N -3.205775e+00 3.728428e+00 -7.483613e-01 -5.064596e-03 -4.126553e-03 -2.254838e-03
N 1.048039e-02 -1.927509e+00 4.384361e+00 -6.681726e-04 -2.394965e-03 3.785939e-03
N -3.702046e-02 -1.836079e+00 -5.997391e+00 -1.166273e-03 -2.880627e-03 3.231130e-04
N -3.599375e-02 -1.855789e+00 -7.660280e-01 -8.895496e-04 -3.248713e-03 2.290651e-04
N 4.184924e-02 1.792996e+00 1.886913e+00 -2.955505e-03 2.703331e-03 -7.228338e-03
N 6.295317e-03 1.752348e+00 7.025513e+00 1.675162e-03 2.162865e-03 -2.462469e-04
N -5.135675e-02 1.841583e+00 -3.420146e+00 2.066426e-03 2.489123e-03 -2.891709e-04
N 3.262221e+00 -3.801213e+00 1.776389e+00 3.622411e-04 1.722621e-03 1.037663e-02
N 3.278957e+00 -3.835656e+00 7.047440e+00 -5.078528e-04 2.821734e-03 -9.882328e-04
N 3.177309e+00 -3.660553e+00 -3.452316e+00 9.734547e-04 -7.423711e-04 1.078465e-03
N 1.563961e+00 -9.695911e-01 1.893122e+00 3.380376e-03 -8.390744e-04 -4.608238e-03
N 1.617203e+00 -9.675886e-01 7.049162e+00 1.361541e-03 -3.979260e-03 -2.430624e-03
N 1.613455e+00 -9.556594e-01 -3.373956e+00 -8.193415e-04 7.975642e-04 -1.073629e-03
N 3.166930e+00 1.796685e+00 1.887799e+00 -3.232878e-05 8.635832e-04 3.824006e-04
N 3.215816e+00 1.694222e+00 7.064547e+00 -4.367213e-04 1.908770e-03 -9.613833e-04
N 3.162174e+00 1.895152e+00 -3.397008e+00 -4.821922e-04 -1.400237e-03 -1.038252e-03
N 6.438227e+00 -3.837518e+00 1.876577e+00 -1.714637e-03 3.874658e-03 -1.924509e-03
N 6.390738e+00 -3.834144e+00 7.051274e+00 1.672573e-03 1.161723e-03 -8.661385e-04
N 6.432043e+00 -3.738747e+00 -3.378884e+00 -1.813833e-03 8.173262e-04 -5.123069e-04
N 4.829298e+00 -9.960998e-01 1.843972e+00 -2.506527e-03 -1.246480e-03 -6.193730e-03
N 4.831627e+00 -9.657445e-01 6.999023e+00 -7.210590e-04 -5.625760e-03 1.581318e-03
N 4.730766e+00 -9.530008e-01 -3.373080e+00 1.094697e-03 -4.785169e-04 -4.899511e-05
N -3.208211e+00 1.767101e+00 1.860711e+00 -2.457241e-03 2.597370e-03 -6.395649e-03
N -3.207432e+00 1.703389e+00 7.021753e+00 -1.342894e-03 1.868134e-03 2.285827e-03
N -3.261203e+00 1.848003e+00 -3.410512e+00 -1.514420e-03 8.357803e-04 1.060676e-03
N -4.105041e-02 -3.755014e+00 1.881767e+00 4.100330e-05 7.275450e-04 -1.454424e-03
N 1.845808e-02 -3.798200e+00 7.032651e+00 -4.790915e-04 1.815959e-05 3.157151e-04
N -8.037897e-02 -3.733052e+00 -3.364408e+00 1.127307e-03 8.195428e-04 9.379151e-05
N -1.551444e+00 -1.014376e+00 1.888880e+00 -5.463531e-03 9.450900e-04 -3.969383e-03
N -1.588856e+00 -9.648798e-01 7.056671e+00 -1.290460e-03 -5.380433e-03 -7.354261e-04
N -1.644196e+00 -9.189633e-01 -3.405515e+00 -1.183224e-03 -3.002129e-03 8.341624e-05
