108
Energy=-1855702.872044 Lattice="9.551197 0.000000 0.000000 -4.793782 8.265726 0.000000 -0.135424 0.132270 15.358054" Stress="-0.000082 0.000007 -0.000029 0.000007 -0.000072 0.000029 -0.000030 0.000029 -0.000103" Properties=species:S:1:pos:R:3:forces:R:3
Al 1.503451 0.952016 2.447517 0.001234 -0.006816 -0.004042
Al 1.485126 0.960718 7.538072 0.001455 -0.006868 -0.001936
Al 1.612279 0.833080 -2.744368 0.000285 -0.007101 -0.000742
Al -0.084108 3.689665 2.430132 -0.000308 -0.000175 -0.000821
Al -0.094403 3.698147 7.537036 -0.000732 -0.000292 -0.000466
Ga 0.032193 3.577000 -2.737440 -0.002758 -0.001507 0.000419
Al 3.122636 -1.817301 2.445353 -0.000832 -0.001904 -0.003234
Al 3.109047 -1.817147 7.531314 -0.000172 0.000687 0.000051
Ga 3.226641 -1.938379 -2.737610 -0.002040 0.000348 -0.000532
Al -4.871704 0.945136 2.438636 0.002583 -0.004231 -0.001979
Ga -4.891645 0.963738 7.527945 0.001371 -0.007954 -0.002202
Ga -4.769505 0.846135 -2.721159 0.000398 -0.007646 -0.001728
Ga -6.456146 3.686969 2.448404 0.001609 -0.000712 -0.004232
Al -6.475571 3.710081 7.531002 0.000921 -0.000150 -0.000316
Ga -6.353904 3.589389 -2.721702 0.002339 -0.000827 0.002572
Ga -3.259853 -1.827764 2.422020 0.001380 -0.000499 0.001933
Ga -3.269544 -1.814762 7.526928 0.000045 0.001422 -0.001330
Ga -3.139580 -1.935789 -2.724454 -0.000359 0.001620 -0.000873
Al -1.702142 0.950434 2.429578 0.008368 -0.005796 -0.003773
Al -1.706346 0.971544 7.535041 0.006197 -0.004702 -0.001889
Ga -1.591288 0.845450 -2.721341 0.009013 -0.003877 -0.001775
Al -3.288655 3.690297 2.433058 0.007228 -0.000216 -0.000450
Ga -3.307206 3.718419 7.532573 0.006599 0.002409 -0.001640
Ga -3.187593 3.594973 -2.734799 0.006986 0.004275 -0.001787
Ga -0.079998 -1.825518 2.448885 0.009216 0.002574 -0.005578
Al -0.095352 -1.809834 7.531381 0.005755 0.002034 -0.001434
Al 0.024449 -1.925287 -2.733366 0.007650 0.001715 0.001545
Ga -0.083550 1.868761 4.981161 -0.007342 -0.004048 0.000581
Al 0.039846 1.743088 -5.292420 -0.005255 -0.001858 -0.000315
Ga 0.036096 1.754973 -0.162823 -0.010986 -0.001893 0.013055
Ga 3.127184 -3.645627 4.976792 -0.008041 -0.004479 -0.000367
Al 3.240870 -3.773267 -5.291346 -0.004028 -0.001946 -0.001394
Ga 3.238768 -3.772325 -0.162546 -0.011432 0.000638 0.015147
Ga 1.540857 -0.913059 4.993448 -0.007592 0.004532 -0.002086
Al 1.651873 -1.036903 -5.291056 -0.005627 0.004655 -0.001608
Ga 1.648744 -1.021419 -0.170697 -0.013062 0.007276 0.013821
Ga 3.085406 1.870009 4.987204 0.001413 -0.002189 0.000527
Ga 3.200037 1.749843 -5.285098 -0.000451 -0.000541 -0.000088
Ga 3.191123 1.757086 -0.165644 -0.003716 0.003830 0.016076
Ga 6.290406 -3.650469 4.988539 -0.000087 0.000214 0.001400
Ga 6.413055 -3.776688 -5.289517 -0.000327 -0.001435 -0.000144
Al 6.384925 -3.741480 -0.180302 0.002441 -0.001915 0.017834
Al 4.698650 -0.907846 4.978203 -0.000059 0.006388 0.000395
Ga 4.818787 -1.033936 -5.279636 -0.001378 0.007143 -0.001473
Ga 4.822055 -1.019400 -0.164302 -0.006738 0.012311 0.013015
Ga -3.297220 1.870862 4.969800 0.000715 0.000388 0.000711
Ga -3.165836 1.760862 -5.284151 0.001263 -0.001279 -0.001028
Al -3.203058 1.780808 -0.182101 0.002514 -0.001715 0.018513
Al -0.092487 -3.646471 4.987771 0.003160 -0.001128 0.000825
Al 0.038256 -3.758411 -5.285175 -0.000345 -0.000782 0.000732
Ga 0.017124 -3.749662 -0.166931 -0.003301 0.004867 0.013009
Ga -1.677650 -0.905132 4.988546 -0.000836 0.008075 -0.000762
Ga -1.538711 -1.026099 -5.283899 -0.000682 0.008676 -0.001325
Al -1.586687 -0.991920 -0.186420 0.003348 0.005334 0.016157
N 1.498997 0.955773 4.362075 0.000424 -0.008610 -0.009595
N 1.604495 0.821697 -5.898181 -0.009078 -0.012628 -0.001826
N 1.613402 0.839622 -0.816023 -0.001252 -0.005878 -0.010096
N -0.083711 3.697256 4.352903 -0.000768 0.000014 -0.012489
N 0.019180 3.564577 -5.896741 -0.011068 -0.005452 -0.003319
N 0.039623 3.595176 -0.781439 0.008563 0.006185 0.003986
N 3.137170 -1.809871 4.362710 0.008326 0.006102 -0.008039
N 3.224946 -1.954379 -5.897229 -0.011248 -0.004881 -0.004395
N 3.232522 -1.939972 -0.786727 -0.001201 0.001617 0.000131
N -4.881328 0.933012 4.365143 0.000103 -0.017192 -0.007209
N -4.757043 0.836151 -5.886710 0.001081 -0.007337 0.001813
N -4.757511 0.861701 -0.773457 0.009984 -0.002042 0.006308
N -6.449843 3.711232 4.391344 0.009818 0.006013 0.004825
N -6.324292 3.590574 -5.902382 0.010742 0.006272 -0.008139
N -6.378295 3.604198 -0.760952 -0.012305 0.006721 0.001114
N -3.279392 -1.812210 4.383733 -0.010189 0.006530 0.003221
N -3.137892 -1.939986 -5.887292 0.000319 0.001808 0.000223
N -3.140606 -1.932241 -0.774161 0.009528 -0.004798 0.009585
N -1.710856 0.958577 4.350128 0.008654 -0.005188 -0.008954
N -1.567679 0.852509 -5.900783 0.015360 -0.000483 -0.005530
N -1.625287 0.851657 -0.763506 -0.002973 -0.006428 0.009524
N -3.317920 3.713581 4.361814 -0.002924 0.009461 -0.005794
N -3.176607 3.607034 -5.874005 0.005090 0.013712 0.008978
N -3.193483 3.580208 -0.784676 0.006739 -0.006370 0.007381
N -0.094924 -1.839645 4.392200 0.007570 -0.007343 0.006312
N 0.049335 -1.949916 -5.899566 0.015088 -0.003042 -0.003768
N -0.002222 -1.911038 -0.793003 -0.005345 0.010890 -0.008934
N -0.078064 1.861525 1.851137 -0.001092 -0.006371 -0.001806
N -0.088468 1.872696 6.941316 -0.005272 -0.002049 0.012068
N 0.054110 1.739456 -3.358036 0.001721 -0.008806 -0.007513
N 3.125577 -3.650322 1.858166 -0.001633 -0.006700 -0.002117
N 3.137399 -3.637160 6.933181 0.003251 0.002380 0.009574
N 3.243155 -3.770665 -3.367192 -0.006857 -0.003366 -0.010652
N 1.558999 -0.897469 1.852486 0.005092 0.005042 -0.005291
N 1.532172 -0.905619 6.946627 -0.007321 0.004875 0.014680
N 1.635323 -1.018744 -3.355495 -0.017052 0.009938 -0.002862
N 3.091242 1.843098 1.854269 0.003991 -0.016805 -0.007364
N 3.060130 1.885218 6.940634 -0.010818 0.005318 0.007956
N 3.183660 1.746188 -3.331129 -0.009850 -0.005629 0.003294
N 6.294812 -3.682969 1.825986 -0.011794 -0.003904 -0.024534
N 6.283629 -3.667109 6.942228 -0.000402 -0.012050 0.007811
N 6.409684 -3.767813 -3.340036 -0.000455 0.001129 -0.000972
N 4.685113 -0.900325 1.836828 -0.005068 0.007108 -0.004078
N 4.678652 -0.914274 6.906096 -0.010988 0.001935 -0.007394
N 4.821530 -1.025146 -3.334192 -0.000202 0.008162 0.002220
N -3.273394 1.848479 1.840540 -0.001880 0.001330 -0.016262
N -3.281541 1.870414 6.927226 0.010882 -0.005965 0.003508
N -3.178119 1.757525 -3.337708 0.001064 -0.001003 -0.000207
N -0.062668 -3.666472 1.832280 0.014283 -0.009138 -0.007869
N -0.111336 -3.632482 6.915242 -0.009934 0.006114 -0.003813
N 0.024134 -3.741151 -3.351189 -0.000169 0.011980 -0.009155
N -1.653224 -0.909936 1.823345 -0.003106 0.018503 -0.023597
N -1.663124 -0.885964 6.941836 0.009357 0.012345 0.009232
N -1.538876 -1.030703 -3.329905 0.008220 0.003042 0.004860
