108
Energy=-1581051.275653 Lattice="9.533396 0.000000 0.000000 -4.767232 8.254069 0.000000 -0.000703 0.008681 15.403116" Stress="0.000001 -0.000000 0.000000 -0.000001 -0.000001 0.000002 0.000000 0.000002 -0.000002" Properties=species:S:1:pos:R:3:forces:R:3
Al 1.559794 0.885904 2.403353 -0.000161 0.000211 0.000015
Al 1.562878 0.899202 7.562172 -0.000018 -0.000017 0.000060
Al 1.557319 0.877989 -2.710682 -0.000085 0.000070 -0.000133
Al -0.026067 3.616121 2.420604 -0.000319 0.000042 -0.000035
Al -0.027668 3.617868 7.551693 -0.000111 0.000023 -0.000064
Ga -0.043715 3.614342 -2.715617 -0.000016 0.000012 0.000020
Al 3.163739 -1.873541 2.421960 0.000063 -0.000019 0.000010
Ga 3.153172 -1.874743 7.564906 -0.000009 -0.000033 0.000028
Al 3.147271 -1.887585 -2.727700 0.000005 -0.000010 -0.000027
Al -4.784288 0.877246 2.409250 0.000154 -0.000090 0.000015
Al -4.786763 0.901390 7.565329 0.000021 -0.000020 -0.000025
Ga -4.790460 0.879645 -2.717590 -0.000032 -0.000026 0.000033
Ga -6.372895 3.626527 2.423141 0.000011 0.000010 0.000024
Ga -6.380379 3.621619 7.540443 0.000001 -0.000019 0.000018
Ga -6.370094 3.617843 -2.699748 -0.000007 -0.000027 0.000011
Al -3.215299 -1.869415 2.430777 -0.000019 0.000030 0.000004
Ga -3.204448 -1.872109 7.557644 -0.000066 0.000048 0.000019
Al -3.191565 -1.862728 -2.718881 0.000004 0.000011 0.000003
Al -1.608389 0.900965 2.430363 -0.000151 -0.000000 -0.000338
Ga -1.613919 0.906879 7.561507 0.000005 0.000017 0.000074
Al -1.601643 0.874978 -2.740138 0.000016 0.000012 0.000014
Al -3.199083 3.621817 2.429445 -0.000023 -0.000035 0.000089
Al -3.196408 3.615991 7.549691 0.000064 0.000055 0.000082
Al -3.190703 3.632074 -2.723361 0.000053 0.000049 -0.000055
Ga -0.012893 -1.878637 2.412025 -0.000025 -0.000005 0.000005
Ga -0.018231 -1.869278 7.563554 0.000060 -0.000002 0.000008
Al -0.026056 -1.868275 -2.709174 0.000018 0.000005 0.000010
Al -0.020846 1.808361 4.976954 -0.000240 0.000023 0.000054
Al -0.024826 1.790273 -5.284086 -0.000014 -0.000129 -0.000172
Al -0.018435 1.785637 -0.142368 0.000488 0.000071 0.000055
Ga 3.154726 -3.730855 4.971232 0.000005 -0.000021 0.000042
Al 3.150421 -3.737633 -5.287742 -0.000038 0.000028 -0.000048
Ga 3.142000 -3.717208 -0.123909 0.000036 0.000045 0.000044
Ga 1.560840 -0.941835 4.981449 -0.000013 -0.000005 0.000054
Ga 1.559843 -0.938438 -5.250797 -0.000023 0.000052 -0.000018
Ga 1.567620 -0.944559 -0.165170 -0.000028 0.000055 -0.000025
Ga 3.153498 1.796591 4.981148 0.000073 -0.000009 0.000029
Al 3.149407 1.783653 -5.295409 -0.000030 0.000002 0.000006
Al 3.143312 1.794979 -0.127755 -0.000035 0.000020 -0.000006
Al 6.324178 -3.714284 4.973057 0.000029 0.000028 0.000024
Ga 6.322882 -3.722230 -5.271709 -0.000007 -0.000001 -0.000010
Ga 6.337711 -3.715856 -0.138566 -0.000039 0.000001 -0.000007
Ga 4.751503 -0.944197 4.977931 0.000007 0.000041 0.000037
Ga 4.750548 -0.946677 -5.270080 -0.000053 -0.000033 -0.000019
Ga 4.740564 -0.957849 -0.136666 -0.000037 0.000026 0.000038
Al -3.203037 1.808622 4.971529 -0.000205 -0.000001 -0.000138
Al -3.192170 1.798852 -5.279110 0.000195 0.000165 -0.000337
Ga -3.192848 1.806585 -0.141688 -0.000047 -0.000030 0.000097
Al -0.015702 -3.719988 4.994356 0.000010 -0.000004 -0.000008
Ga -0.006579 -3.722740 -5.269294 0.000055 -0.000015 -0.000025
Al -0.013551 -3.718579 -0.163275 -0.000009 0.000031 0.000022
Ga -1.616030 -0.946039 4.960457 0.000029 -0.000030 -0.000002
Al -1.610830 -0.941802 -5.248276 0.000010 0.000039 -0.000017
Ga -1.607734 -0.946652 -0.146675 -0.000043 0.000001 0.000026
N 1.520683 0.909473 4.315868 0.000081 -0.000072 0.000086
N 1.560347 0.923882 -5.922256 -0.000048 0.000015 0.000038
N 1.566191 0.936092 -0.786379 -0.000207 0.000082 0.000244
N 0.018493 3.601244 4.338800 0.000069 -0.000076 0.000005
N -0.063797 3.596353 -5.921730 0.000047 -0.000027 0.000148
N -0.031147 3.578228 -0.741657 0.000028 -0.000013 0.000028
N 3.154156 -1.873819 4.327768 -0.000036 0.000012 -0.000051
N 3.150828 -1.924328 -5.865089 0.000027 -0.000011 0.000021
N 3.158169 -1.885342 -0.817325 0.000028 -0.000035 -0.000007
N -4.749730 0.908281 4.320798 0.000119 0.000061 -0.000000
N -4.782218 0.928428 -5.910036 -0.000055 -0.000058 -0.000010
N -4.830974 0.906019 -0.741497 0.000073 -0.000024 -0.000059
N -6.375401 3.678578 4.407986 -0.000022 -0.000010 -0.000013
N -6.376613 3.582906 -5.887231 -0.000034 -0.000009 -0.000004
N -6.337291 3.597367 -0.718770 -0.000018 -0.000014 0.000005
N -3.204512 -1.920450 4.337265 0.000020 -0.000037 -0.000023
N -3.153215 -1.854073 -5.875206 -0.000001 -0.000002 -0.000001
N -3.197909 -1.871379 -0.812995 0.000039 0.000009 -0.000004
N -1.609537 0.941718 4.352938 0.000315 0.000035 0.000252
N -1.612458 0.876396 -5.846622 -0.000016 0.000046 0.000056
N -1.567692 0.905918 -0.814893 -0.000183 -0.000121 -0.000159
N -3.248284 3.608126 4.344819 -0.000062 -0.000038 -0.000006
N -3.161091 3.595936 -5.931009 0.000003 -0.000105 0.000060
N -3.232811 3.648374 -0.812128 -0.000025 -0.000002 0.000035
N -0.020186 -1.926372 4.381606 -0.000023 0.000011 -0.000006
N -0.064738 -1.851656 -5.865301 0.000004 -0.000024 -0.000023
N -0.027205 -1.918607 -0.791610 -0.000022 -0.000023 -0.000009
N -0.025674 1.791089 1.786156 0.000019 0.000009 -0.000003
N 0.018239 1.821323 6.907639 0.000070 -0.000037 -0.000081
N -0.016937 1.743769 -3.366901 0.000054 -0.000008 0.000071
N 3.152087 -3.711643 1.865463 0.000086 0.000002 -0.000028
N 3.155212 -3.756823 6.957239 0.000073 -0.000049 -0.000066
N 3.113541 -3.694316 -3.366512 -0.000020 0.000006 -0.000017
N 1.611610 -0.930211 1.818685 0.000068 -0.000122 -0.000044
N 1.567942 -0.897438 6.956168 -0.000093 0.000001 -0.000037
N 1.563251 -0.950983 -3.263412 -0.000014 -0.000050 -0.000006
N 3.152983 1.747738 1.791182 -0.000098 0.000031 -0.000049
N 3.154348 1.743225 6.961177 0.000004 0.000007 -0.000011
N 3.109640 1.764533 -3.380152 0.000010 0.000018 -0.000061
N 6.291131 -3.682625 1.837772 0.000125 0.000022 0.000003
N 6.283386 -3.727662 6.897533 0.000016 0.000008 -0.000028
N 6.330014 -3.669887 -3.301639 0.000006 0.000026 -0.000025
N 4.744293 -0.957708 1.849202 0.000025 0.000023 -0.000008
N 4.742037 -0.897496 6.956177 0.000036 -0.000043 0.000014
N 4.743412 -1.002326 -3.296700 -0.000012 0.000011 0.000019
N -3.194018 1.798349 1.844079 -0.000034 -0.000013 -0.000045
N -3.243903 1.820529 6.903713 0.000013 0.000019 0.000084
N -3.160521 1.819686 -3.354761 0.000007 -0.000056 0.000204
N 0.025811 -3.735424 1.750189 0.000084 -0.000018 0.000014
N 0.025114 -3.728002 6.910467 -0.000036 0.000020 -0.000016
N 0.020161 -3.687858 -3.295194 -0.000010 0.000043 0.000009
N -1.654559 -0.923729 1.842247 0.000058 -0.000090 -0.000024
N -1.612533 -0.942442 6.924009 -0.000016 0.000006 -0.000034
N -1.610206 -0.956191 -3.323524 -0.000031 0.000022 0.000001
