108
Energy=-1.626827e+06 Lattice="9.549572e+00 0.000000e+00 0.000000e+00 -4.793073e+00 8.263773e+00 0.000000e+00 -7.388628e-02 8.516273e-03 1.539766e+01" Stress="1.407957e-03 -1.072635e-03 -3.096837e-03 -1.064024e-03 5.525363e-04 3.907799e-04 -3.101901e-03 3.865186e-04 -8.353293e-04" Properties=species:S:1:pos:R:3:forces:R:3 Config_type=AlGaN_super3_26_0_11.xyz
Al 1.558185e+00 8.708647e-01 2.434869e+00 1.116028e-04 -9.568551e-04 5.863944e-05
Al 1.520397e+00 8.900727e-01 7.542562e+00 1.471826e-03 -3.675141e-03 -1.002367e-03
Al 1.587384e+00 8.627728e-01 -2.724880e+00 8.830269e-04 9.320411e-04 1.792068e-03
Al -2.840092e-02 3.637616e+00 2.431172e+00 -3.081407e-03 4.752670e-03 -1.230784e-03
Al -4.963406e-02 3.631351e+00 7.504059e+00 2.718520e-04 1.508745e-03 1.809762e-03
Ga -5.033234e-03 3.624418e+00 -2.684576e+00 3.610048e-04 -4.001335e-04 1.316510e-03
Al 3.164722e+00 -1.865237e+00 2.412185e+00 -6.695861e-04 1.282316e-04 -4.451633e-03
Ga 3.129191e+00 -1.869942e+00 7.534789e+00 -5.097589e-04 -6.709353e-06 2.451334e-03
Ga 3.193541e+00 -1.858968e+00 -2.702717e+00 4.383754e-04 1.940416e-04 2.330288e-03
Al -4.821278e+00 8.648929e-01 2.396044e+00 7.632564e-04 2.303026e-04 4.846986e-04
Ga -4.859863e+00 8.769279e-01 7.567264e+00 7.718923e-04 -1.850392e-04 1.247276e-03
Al -4.788142e+00 8.602439e-01 -2.711457e+00 7.757369e-04 3.364269e-04 -3.240620e-04
Ga -6.439562e+00 3.642527e+00 2.436937e+00 9.740708e-04 -3.340576e-04 -4.915323e-04
Al -6.448736e+00 3.647499e+00 7.533782e+00 -2.609883e-04 -3.129161e-04 -9.923373e-04
Ga -6.394700e+00 3.618258e+00 -2.710159e+00 -4.469335e-05 -6.913787e-04 2.935069e-04
Al -3.224953e+00 -1.874532e+00 2.394444e+00 -1.183686e-03 -8.184052e-04 -5.444577e-04
Al -3.237586e+00 -1.886730e+00 7.541572e+00 3.697627e-04 -4.609949e-04 1.318598e-03
Al -3.189073e+00 -1.861909e+00 -2.695720e+00 -4.083468e-04 2.796694e-05 2.172562e-03
Ga -1.635787e+00 8.793901e-01 2.405691e+00 1.591473e-03 1.844333e-05 1.649118e-03
Ga -1.639017e+00 8.812279e-01 7.535290e+00 3.850450e-04 -8.076339e-04 4.917574e-04
Al -1.610996e+00 8.673225e-01 -2.684976e+00 9.242375e-04 4.145350e-04 6.608981e-04
Ga -3.216158e+00 3.639502e+00 2.420523e+00 1.121981e-03 -1.629584e-04 8.830331e-04
Ga -3.256824e+00 3.650601e+00 7.526699e+00 7.955401e-04 4.402376e-04 1.535724e-04
Ga -3.191953e+00 3.617639e+00 -2.681046e+00 5.457868e-04 -3.386284e-04 1.632185e-04
Ga -2.041354e-02 -1.854325e+00 2.416012e+00 7.810662e-04 5.387791e-04 1.116087e-03
Al -5.475796e-02 -1.867157e+00 7.533447e+00 1.294476e-03 -6.438339e-04 4.661931e-04
Ga -2.837876e-03 -1.846029e+00 -2.698927e+00 1.196762e-03 -3.883463e-04 8.546055e-04
Al -4.548815e-02 1.814370e+00 4.991922e+00 1.812209e-03 -2.097666e-03 -8.706597e-03
Ga 2.255968e-02 1.780709e+00 -5.278567e+00 -6.810643e-04 9.262903e-04 2.013702e-03
Ga -1.894038e-02 1.785946e+00 -1.367136e-01 -6.260634e-04 7.115283e-04 -7.797008e-05
Al 3.156827e+00 -3.689135e+00 4.960768e+00 -2.175030e-03 -5.470173e-03 -1.063665e-04
Ga 3.208881e+00 -3.708380e+00 -5.290024e+00 -3.289100e-04 2.609880e-04 1.229904e-03
Al 3.186148e+00 -3.704013e+00 -1.153273e-01 -5.282191e-04 4.570834e-04 3.067331e-05
Al 1.546224e+00 -9.602575e-01 4.974684e+00 -6.890176e-04 1.769961e-03 1.206963e-03
Al 1.614402e+00 -9.513504e-01 -5.299406e+00 -1.099644e-03 -1.845516e-04 1.319946e-03
Al 1.590501e+00 -9.556628e-01 -1.346489e-01 1.566155e-04 -8.600840e-05 6.157939e-04
Ga 3.107979e+00 1.801813e+00 4.978525e+00 2.754092e-04 -6.373003e-04 7.997203e-04
Al 3.174179e+00 1.773999e+00 -5.289027e+00 4.127867e-05 9.965534e-04 1.063257e-03
Ga 3.160500e+00 1.772885e+00 -1.394925e-01 6.558380e-05 2.092657e-04 1.316538e-03
Al 6.317903e+00 -3.706318e+00 4.987098e+00 -1.190482e-03 2.068175e-04 9.653086e-04
Ga 6.375382e+00 -3.711645e+00 -5.308037e+00 3.703264e-04 2.437846e-05 2.029256e-03
Al 6.342155e+00 -3.691636e+00 -1.345823e-01 -4.199222e-05 -5.251272e-05 1.382193e-03
Ga 4.728339e+00 -9.733470e-01 4.947112e+00 2.340302e-04 1.425778e-03 2.019335e-03
Al 4.780874e+00 -9.581102e-01 -5.270937e+00 -2.484825e-05 -7.902385e-04 1.985356e-03
Al 4.768547e+00 -9.687532e-01 -1.347545e-01 -7.607241e-04 1.411323e-03 -4.937271e-04
Ga -3.240335e+00 1.809029e+00 4.970267e+00 -4.210626e-04 1.556266e-04 7.698193e-04
Ga -3.198094e+00 1.783485e+00 -5.255807e+00 -2.672724e-04 1.714164e-04 1.226147e-03
Al -3.211535e+00 1.780193e+00 -1.515019e-01 -1.587305e-04 1.211278e-04 -5.461168e-04
Al -4.266211e-02 -3.693709e+00 4.998378e+00 1.714432e-04 -7.189877e-04 -4.878294e-04
Ga 8.573782e-03 -3.708891e+00 -5.296449e+00 -6.980109e-04 3.264353e-04 1.422113e-03
Ga -6.582466e-03 -3.702589e+00 -1.434338e-01 -1.139349e-04 -3.569132e-04 1.816543e-03
Ga -1.629528e+00 -9.759432e-01 4.986956e+00 -1.101031e-03 1.383544e-03 4.332835e-04
Ga -1.586157e+00 -9.644793e-01 -5.283384e+00 -5.813597e-04 -8.214182e-04 1.752679e-03
Al -1.622502e+00 -9.571031e-01 -1.531811e-01 -8.947932e-04 -2.145106e-04 2.238189e-04
N 1.498029e+00 8.483724e-01 4.349548e+00 -2.013683e-03 1.359001e-03 7.586655e-04
N 1.631039e+00 8.478898e-01 -5.930650e+00 6.445763e-04 4.425503e-04 -9.412200e-04
N 1.572937e+00 8.254941e-01 -8.053080e-01 2.386283e-04 -4.218179e-04 -1.653339e-03
N -5.185036e-02 3.643018e+00 4.366946e+00 3.467237e-04 -6.576887e-04 -2.920886e-04
N -1.958882e-03 3.618893e+00 -5.969466e+00 3.476148e-05 -5.588106e-04 -2.870902e-03
N -2.580335e-02 3.674470e+00 -7.101576e-01 8.234473e-05 6.910977e-04 -8.077504e-04
N 3.096142e+00 -1.891451e+00 4.330508e+00 -5.256173e-04 6.192880e-04 7.783697e-04
N 3.198053e+00 -1.834146e+00 -5.871028e+00 4.288703e-04 9.699309e-04 -1.052939e-03
N 3.172244e+00 -1.875848e+00 -7.031176e-01 5.585377e-04 5.403850e-05 -8.833943e-04
N -4.834363e+00 8.809845e-01 4.306098e+00 2.053923e-04 1.422720e-04 -1.599952e-03
N -4.816767e+00 8.474984e-01 -5.850846e+00 -2.407402e-04 1.756311e-04 -4.673396e-04
N -4.763055e+00 8.476471e-01 -7.858394e-01 5.768013e-04 -1.283797e-03 1.211151e-03
N -6.432177e+00 3.691817e+00 4.416862e+00 1.299651e-03 -2.900237e-04 -2.930936e-04
N -6.371627e+00 3.581470e+00 -5.939285e+00 1.774376e-05 -1.262502e-03 -3.764016e-04
N -6.438338e+00 3.647989e+00 -7.351526e-01 -1.352573e-03 7.944813e-04 4.906312e-05
N -3.222668e+00 -1.922515e+00 4.307225e+00 4.357988e-04 -9.086000e-04 1.032720e-03
N -3.215662e+00 -1.853926e+00 -5.938273e+00 -9.846749e-04 8.486843e-04 -1.575307e-03
N -3.200894e+00 -1.876272e+00 -7.580918e-01 2.640083e-05 -2.822546e-04 -1.310605e-03
N -1.608546e+00 8.991460e-01 4.382933e+00 2.542438e-03 7.111504e-04 1.092428e-03
N -1.591325e+00 8.820061e-01 -5.896143e+00 1.170571e-03 -1.110131e-04 -1.057412e-03
N -1.653648e+00 8.568982e-01 -7.612895e-01 8.100754e-04 -5.796454e-04 -7.295246e-04
N -3.244825e+00 3.687295e+00 4.402023e+00 1.838639e-03 2.364128e-03 8.254912e-04
N -3.186202e+00 3.629102e+00 -5.901267e+00 5.454986e-04 -4.876343e-04 -1.492627e-03
N -3.162826e+00 3.611733e+00 -7.055920e-01 6.645134e-04 -5.054637e-04 4.164674e-04
N -2.121419e-03 -1.889779e+00 4.396522e+00 1.036707e-03 -1.267329e-03 -5.873221e-04
N 5.210254e-02 -1.849326e+00 -5.937034e+00 1.007892e-03 1.630364e-04 -1.587356e-03
N -6.604687e-03 -1.818890e+00 -7.184733e-01 -6.313553e-04 5.909198e-04 -3.475287e-04
N 1.107723e-02 1.822143e+00 1.846190e+00 -1.613624e-04 -1.048203e-03 -1.164533e-03
N -1.213712e-02 1.819011e+00 6.891531e+00 -1.265011e-03 1.173358e-03 4.301904e-03
N -7.870114e-03 1.743439e+00 -3.284390e+00 -6.619328e-04 -1.868270e-04 -4.277789e-04
N 3.202481e+00 -3.683716e+00 1.798259e+00 2.510377e-03 -1.554573e-03 3.242371e-03
N 3.179794e+00 -3.729470e+00 6.881368e+00 4.638077e-04 4.367841e-04 -1.381509e-03
N 3.195622e+00 -3.717667e+00 -3.320000e+00 -7.436406e-04 7.075283e-04 -1.502602e-03
N 1.608674e+00 -9.258008e-01 1.779490e+00 5.787291e-04 2.092257e-04 2.394106e-03
N 1.503348e+00 -9.328582e-01 6.901723e+00 -8.854270e-04 2.236238e-03 1.701538e-04
N 1.598616e+00 -9.192125e-01 -3.375463e+00 -1.219961e-03 2.487985e-04 -2.527906e-03
N 3.138827e+00 1.755665e+00 1.847575e+00 -1.477098e-04 -4.833229e-04 -1.259238e-03
N 3.074462e+00 1.820951e+00 6.960835e+00 2.792202e-04 9.570445e-04 -3.348777e-04
N 3.171794e+00 1.745238e+00 -3.350778e+00 -1.544567e-04 -5.332106e-04 -1.147782e-03
N 6.295185e+00 -3.682271e+00 1.783776e+00 4.651113e-04 -7.121695e-04 -7.256843e-05
N 6.315964e+00 -3.702490e+00 6.922100e+00 -2.992667e-05 1.751981e-04 -1.019074e-03
N 6.367212e+00 -3.663763e+00 -3.322185e+00 2.963084e-05 1.104501e-03 -1.669407e-03
N 4.749707e+00 -9.546121e-01 1.798721e+00 -6.335710e-04 -2.854216e-04 -8.515523e-04
N 4.762719e+00 -9.758107e-01 6.927182e+00 3.590672e-04 -3.176642e-04 -2.012487e-03
N 4.820496e+00 -9.413944e-01 -3.338249e+00 9.582664e-06 -2.095788e-04 -2.067442e-03
N -3.262573e+00 1.776957e+00 1.765377e+00 -1.553079e-03 -3.502237e-04 -7.708536e-04
N -3.256310e+00 1.794059e+00 6.932509e+00 -1.947189e-04 -1.430095e-04 -5.653824e-04
N -3.192488e+00 1.747213e+00 -3.275875e+00 -8.216530e-04 -7.148322e-04 -2.722648e-04
N -2.939188e-02 -3.707229e+00 1.819065e+00 -1.100605e-03 -4.718898e-04 -1.898811e-03
N -9.337891e-02 -3.681624e+00 6.919460e+00 -9.575848e-04 6.690515e-04 -1.344294e-04
N 4.827649e-03 -3.707955e+00 -3.317543e+00 -3.292958e-04 7.796073e-05 -7.259656e-04
N -1.660973e+00 -9.790571e-01 1.765261e+00 -5.460496e-04 -3.139393e-04 -1.166202e-03
N -1.648927e+00 -1.004563e+00 6.965150e+00 -8.073643e-04 -3.666096e-04 -5.735274e-05
N -1.633410e+00 -9.371226e-01 -3.290780e+00 -1.661113e-03 -8.106948e-05 -1.197066e-03
