108
Energy=-8.028674e+05 Lattice="9.451843e+00 0.000000e+00 0.000000e+00 -4.741285e+00 8.178900e+00 0.000000e+00 1.438267e-03 -2.134616e-02 1.522663e+01" Stress="4.593345e-03 -2.401913e-04 -5.378969e-04 -2.433142e-04 3.933611e-03 -1.910293e-03 -5.406907e-04 -1.918451e-03 7.767879e-03" Properties=species:S:1:pos:R:3:forces:R:3 Config_type=AlGaN_super3_8_0_6.xyz
Al 1.540912e+00 8.664041e-01 2.394909e+00 3.372982e-03 8.087903e-04 7.274061e-04
Al 1.538138e+00 8.602059e-01 7.448765e+00 2.335015e-03 -1.257857e-03 1.331485e-03
Al 1.551504e+00 8.520504e-01 -2.706672e+00 3.038741e-03 9.146564e-04 -1.468580e-04
Al -4.477454e-02 3.581298e+00 2.395451e+00 4.851326e-03 2.488818e-03 -3.755023e-03
Al -2.624032e-02 3.585439e+00 7.462124e+00 -1.438830e-03 -1.325086e-04 1.013670e-03
Al -3.302332e-02 3.567566e+00 -2.687895e+00 1.307784e-03 -3.847765e-04 2.348222e-03
Al 3.132302e+00 -1.863044e+00 2.399099e+00 -2.944460e-03 -4.334997e-03 3.126735e-03
Al 3.134169e+00 -1.862068e+00 7.434363e+00 -2.219398e-04 -1.168542e-04 8.047648e-03
Al 3.144459e+00 -1.869240e+00 -2.660116e+00 1.799291e-03 -9.085015e-05 -7.773951e-04
Al -4.758777e+00 8.691061e-01 2.408754e+00 -3.895678e-04 2.391518e-03 -3.440034e-03
Al -4.762990e+00 8.773847e-01 7.451955e+00 1.867633e-03 -1.260100e-03 5.711929e-04
Al -4.750113e+00 8.652765e-01 -2.704491e+00 -3.879562e-04 1.961404e-02 1.516662e-02
Al -6.321700e+00 3.589123e+00 2.403548e+00 -6.331187e-04 2.500351e-04 -4.752904e-03
Al -6.341556e+00 3.590350e+00 7.463643e+00 2.648434e-03 -2.823197e-04 -7.060140e-04
Al -6.333384e+00 3.574111e+00 -2.695412e+00 -9.598551e-04 4.616605e-04 2.625166e-03
Al -3.167001e+00 -1.846414e+00 2.391039e+00 3.528780e-03 -1.810239e-03 3.212664e-03
Al -3.166777e+00 -1.848711e+00 7.452394e+00 -3.544770e-04 -2.704672e-03 5.398117e-03
Al -3.214631e+00 -1.885440e+00 -2.609018e+00 1.313997e-02 1.184344e-02 -4.014660e-02
Al -1.616092e+00 8.824512e-01 2.396789e+00 1.905138e-03 -2.189975e-03 -2.014804e-03
Al -1.618254e+00 8.892263e-01 7.447124e+00 2.105347e-03 -1.766171e-03 -1.061143e-04
Al -1.605931e+00 8.707411e-01 -2.703475e+00 1.031503e-03 1.291989e-02 6.136404e-03
Al -3.188693e+00 3.606150e+00 2.397150e+00 6.891439e-04 -1.985911e-03 -1.163051e-03
Al -3.188911e+00 3.599428e+00 7.444908e+00 1.559794e-03 -1.659205e-03 -5.443112e-03
Al -3.178839e+00 3.584041e+00 -2.669844e+00 4.454053e-04 -1.283592e-03 8.307530e-04
Al -2.081782e-02 -1.846051e+00 2.388841e+00 -8.572500e-05 -2.418313e-03 -1.023657e-03
Al -1.775158e-02 -1.845986e+00 7.443380e+00 3.345609e-03 -2.245934e-03 -3.998324e-03
Ga 5.168106e-03 -1.840494e+00 -2.659424e+00 2.703601e-04 8.528151e-05 -1.424168e-03
Al -3.586941e-02 1.762031e+00 4.928393e+00 4.516506e-04 4.855282e-04 1.614209e-03
Al -2.146669e-02 1.788112e+00 -5.247953e+00 -1.651336e-03 1.345480e-03 2.887718e-03
Al -2.750735e-02 1.745755e+00 -1.446775e-01 -6.546340e-04 2.977255e-03 -4.428530e-03
Al 3.131383e+00 -3.687726e+00 4.932283e+00 -1.126335e-03 3.140445e-03 7.027329e-04
Ga 3.136125e+00 -3.676180e+00 -5.232212e+00 -1.622056e-03 4.912565e-03 1.139992e-03
Al 3.131325e+00 -3.712121e+00 -1.291557e-01 1.125567e-03 3.466015e-03 -6.379911e-03
Al 1.565860e+00 -9.567427e-01 4.921928e+00 -2.656400e-03 1.731434e-03 1.708666e-05
Al 1.506091e+00 -9.310219e-01 -5.236736e+00 2.766645e-02 7.382735e-03 -1.219737e-03
Al 1.575171e+00 -9.592053e-01 -1.386261e-01 9.485376e-04 2.430643e-03 7.366131e-03
Al 3.122641e+00 1.769285e+00 4.930826e+00 -3.006439e-03 -1.499110e-05 9.894291e-04
Al 3.105349e+00 1.785041e+00 -5.246818e+00 -1.148850e-03 -1.135687e-03 2.901189e-03
Al 3.134247e+00 1.746479e+00 -1.597411e-01 -5.874566e-03 8.276603e-03 7.541590e-03
Ga 6.284510e+00 -3.679787e+00 4.931970e+00 -2.925637e-04 6.290700e-04 6.969762e-04
Al 6.283966e+00 -3.670805e+00 -5.222212e+00 -1.121273e-04 -3.004233e-03 3.761653e-03
Ga 6.306186e+00 -3.697173e+00 -1.272368e-01 -1.527989e-03 -4.634672e-03 -1.475132e-02
Al 4.711650e+00 -9.413100e-01 4.930471e+00 -2.387459e-03 -9.672136e-04 3.488684e-04
Ga 4.695275e+00 -9.277433e-01 -5.209309e+00 -2.426867e-03 -7.109530e-04 4.484755e-04
Ga 4.738952e+00 -9.538354e-01 -9.823904e-02 -7.071102e-03 3.040250e-03 -1.577236e-02
Al -3.188133e+00 1.783247e+00 4.925653e+00 -4.691552e-04 8.656861e-04 9.437764e-04
Al -3.187255e+00 1.800303e+00 -5.236345e+00 -1.077520e-03 -2.887229e-03 1.055159e-03
Al -3.172718e+00 1.764318e+00 -1.489045e-01 6.571273e-03 7.683974e-03 4.475647e-03
Al -1.187281e-02 -3.671440e+00 4.930165e+00 -1.094285e-03 2.218552e-03 1.598724e-03
Ga -1.118186e-02 -3.673257e+00 -5.248469e+00 -1.250121e-03 1.573697e-03 4.278095e-03
Al -4.284316e-04 -3.704429e+00 -1.338317e-01 -1.916616e-03 3.935199e-03 -3.372576e-03
Al -1.589025e+00 -9.352692e-01 4.927793e+00 -1.055141e-03 -6.979972e-04 7.595937e-04
Ga -1.570324e+00 -9.166160e-01 -5.247620e+00 -6.317206e-03 -1.192757e-03 5.886246e-03
Al -1.570616e+00 -9.465299e-01 -1.540305e-01 -3.079921e-03 3.937173e-03 7.791160e-04
N 1.539323e+00 8.671776e-01 4.328649e+00 1.834357e-03 3.716617e-05 -2.183747e-03
N 1.532123e+00 8.777410e-01 -5.851077e+00 8.064627e-04 1.035367e-03 -1.141132e-04
N 1.549560e+00 8.531968e-01 -7.614855e-01 2.607832e-03 -2.808424e-03 -2.155255e-03
N -6.733719e-02 3.566763e+00 4.317213e+00 -1.915737e-03 -1.871757e-03 -5.677420e-03
N 1.694831e-03 3.593837e+00 -5.845741e+00 3.813890e-03 -3.996472e-03 -2.206355e-03
N -5.146535e-02 3.553634e+00 -7.588256e-01 -4.003931e-03 -7.987138e-04 -2.102470e-03
N 3.137789e+00 -1.864283e+00 4.332151e+00 1.499978e-03 -9.867984e-04 -1.649412e-03
N 3.076158e+00 -1.817647e+00 -5.849399e+00 2.571792e-03 -1.339447e-03 -1.072309e-02
N 3.122297e+00 -1.888800e+00 -7.344909e-01 -3.542533e-03 -2.599382e-03 -4.391519e-03
N -4.763022e+00 8.737692e-01 4.335396e+00 2.395571e-03 -1.852241e-03 -3.382058e-03
N -4.765131e+00 9.245257e-01 -5.852859e+00 2.626698e-03 2.797810e-03 -1.886661e-03
N -4.734371e+00 9.256853e-01 -6.963330e-01 -3.085710e-03 -1.115894e-02 -2.395821e-02
N -6.297729e+00 3.574482e+00 4.321426e+00 3.002059e-03 -1.816322e-03 -4.538391e-03
N -6.367507e+00 3.593349e+00 -5.848719e+00 -3.324902e-03 -2.917921e-03 -1.196771e-03
N -6.290908e+00 3.553456e+00 -7.698947e-01 3.811773e-03 -1.281385e-04 -2.416600e-03
N -3.165185e+00 -1.820026e+00 4.317045e+00 3.641357e-04 4.308747e-03 -4.254142e-03
N -3.168272e+00 -1.894641e+00 -5.831219e+00 7.273797e-04 5.101239e-03 -1.048015e-02
N -3.123569e+00 -1.857203e+00 -8.059381e-01 4.629771e-03 3.758009e-03 2.734215e-02
N -1.617883e+00 8.773663e-01 4.327975e+00 1.965120e-03 -1.138390e-03 -3.053613e-03
N -1.617258e+00 9.397825e-01 -5.864355e+00 2.575843e-03 1.591167e-03 -1.974964e-03
N -1.605321e+00 8.649531e-01 -7.714977e-01 9.959636e-04 -9.398377e-04 3.257527e-03
N -3.189619e+00 3.605595e+00 4.329149e+00 1.355917e-03 -1.899455e-03 -2.884770e-03
N -3.184810e+00 3.566249e+00 -5.899563e+00 1.027010e-03 -1.997703e-03 5.340020e-03
N -3.179991e+00 3.581486e+00 -7.490762e-01 1.904258e-03 -1.668331e-05 9.701108e-04
N -2.554500e-02 -1.848955e+00 4.326042e+00 1.098300e-03 -1.906070e-03 -2.521170e-03
N 4.868270e-02 -1.812551e+00 -5.881324e+00 -1.851810e-02 -8.512798e-03 -4.225560e-03
N 1.086467e-03 -1.846914e+00 -6.731697e-01 -3.473488e-06 -8.803250e-03 -3.638283e-03
N -2.883441e-02 1.769833e+00 1.771383e+00 -8.776875e-04 -3.645550e-04 5.463168e-03
N -2.806740e-02 1.769543e+00 6.852839e+00 -1.105168e-03 1.782193e-03 -2.074373e-03
N -2.342379e-02 1.762146e+00 -3.312184e+00 1.075308e-03 4.479413e-04 -5.961496e-04
N 3.137943e+00 -3.681477e+00 1.778359e+00 -1.632254e-03 -7.718464e-05 6.480947e-03
N 3.140627e+00 -3.687238e+00 6.855485e+00 1.879457e-04 1.083150e-03 -1.900575e-03
N 3.137725e+00 -3.688464e+00 -3.253904e+00 9.125682e-04 1.524032e-03 4.461771e-03
N 1.570151e+00 -9.537103e-01 1.811223e+00 -2.221512e-03 1.944862e-03 -4.154503e-03
N 1.565655e+00 -9.576615e-01 6.843939e+00 -2.256988e-03 2.352870e-03 -3.822559e-03
N 1.651046e+00 -9.588578e-01 -3.355485e+00 -1.556933e-02 8.389012e-03 1.452185e-02
N 3.119640e+00 1.776149e+00 1.788566e+00 -1.464916e-03 -1.815155e-03 4.744737e-04
N 3.114226e+00 1.775032e+00 6.855508e+00 -7.625987e-04 5.451067e-04 -1.337564e-03
N 3.122188e+00 1.768273e+00 -3.315255e+00 -3.342564e-04 1.258033e-03 1.827997e-03
N 6.295747e+00 -3.662624e+00 1.780199e+00 -3.612241e-03 -3.925054e-03 3.007483e-02
N 6.284098e+00 -3.676741e+00 6.896380e+00 -3.269996e-04 1.452096e-03 2.092438e-03
N 6.278479e+00 -3.686982e+00 -3.280810e+00 -3.914343e-04 3.824629e-03 -1.529127e-03
N 4.692817e+00 -9.684013e-01 1.819987e+00 6.842013e-03 6.053844e-03 1.758686e-02
N 4.713347e+00 -9.469736e-01 6.854088e+00 -6.506756e-04 7.816249e-04 -8.142826e-04
N 4.686641e+00 -8.878962e-01 -3.217459e+00 7.911824e-03 -2.976672e-02 -1.379448e-03
N -3.184362e+00 1.786044e+00 1.786436e+00 4.362996e-04 -1.819720e-03 4.168927e-03
N -3.188117e+00 1.784272e+00 6.845460e+00 -1.197645e-03 -8.995589e-04 -3.211965e-03
N -3.176741e+00 1.778943e+00 -3.305695e+00 -1.429450e-03 2.142784e-03 -3.807403e-04
N -1.742250e-02 -3.671188e+00 1.775273e+00 1.718078e-04 -3.492918e-04 7.557655e-03
N -2.179575e-02 -3.671396e+00 6.858612e+00 -2.170971e-03 3.879021e-04 -1.829482e-03
N -1.433311e-02 -3.708316e+00 -3.267595e+00 7.965782e-04 -1.757639e-03 7.816211e-04
N -1.593779e+00 -9.367663e-01 1.768798e+00 -3.400101e-03 2.333765e-04 4.629860e-03
N -1.589738e+00 -9.396788e-01 6.855153e+00 -2.704467e-03 6.511322e-04 -4.268954e-05
N -1.591553e+00 -8.764119e-01 -3.270398e+00 -1.421649e-02 -2.586091e-02 1.750000e-03
