108
Energy=-757092.560038 Lattice="9.438156 0.000000 0.000000 -4.727924 8.168129 0.000000 0.000297 -0.006771 15.153478" Stress="0.000001 -0.000001 0.000000 -0.000001 -0.000001 -0.000001 0.000000 -0.000001 0.000001" Properties=species:S:1:pos:R:3:forces:R:3
Al 1.549836 0.872064 2.370192 -0.000013 -0.000388 0.000022
Al 1.546374 0.870856 7.431995 0.000789 0.000439 0.000505
Al 1.552790 0.877135 -2.681965 0.000312 0.000118 0.000805
Al -0.032618 3.584339 2.390935 0.000519 -0.000277 0.000445
Al -0.024564 3.580636 7.400994 -0.000062 -0.000222 0.000763
Al -0.028379 3.583775 -2.662063 -0.001236 -0.001268 -0.000456
Al 3.133439 -1.863187 2.369718 0.000221 0.000559 0.000046
Al 3.136611 -1.857464 7.423678 0.000536 -0.000651 0.000122
Al 3.137832 -1.846038 -2.669689 -0.000143 -0.000314 0.000314
Al -4.745268 0.865612 2.379983 0.000479 -0.000445 -0.000643
Al -4.747009 0.864249 7.419832 0.000674 0.000207 0.000675
Al -4.745580 0.872890 -2.682543 0.000509 0.000329 -0.000315
Al -6.320840 3.578928 2.409645 0.002190 -0.000868 0.001177
Al -6.314465 3.584023 7.410749 -0.000251 0.000196 -0.000179
Al -6.317527 3.580596 -2.687750 -0.000160 -0.000439 -0.000343
Al -3.169794 -1.853545 2.412926 -0.000880 0.000220 -0.000503
Al -3.165824 -1.850928 7.410664 0.000092 -0.000488 -0.000154
Al -3.178347 -1.841853 -2.686861 0.000226 0.000454 0.000066
Al -1.598429 0.874717 2.395578 0.000118 0.000111 0.000376
Al -1.599895 0.871028 7.417980 0.000494 -0.000309 0.000520
Al -1.607257 0.887043 -2.690131 0.001254 -0.000038 -0.000662
Al -3.165680 3.582752 2.395241 0.000498 0.000010 0.000448
Al -3.177956 3.588107 7.409199 0.000358 -0.000502 0.000162
Al -3.171707 3.581775 -2.676972 -0.000114 -0.000230 -0.000084
Al -0.016597 -1.854596 2.400350 -0.000175 0.000484 -0.000880
Al -0.024304 -1.857057 7.435197 -0.000029 -0.000869 -0.000428
Ga -0.018267 -1.846013 -2.693680 0.000740 -0.000493 0.000072
Al -0.028125 1.775679 4.901868 -0.000239 0.000204 0.000362
Al -0.025113 1.763397 -5.207030 -0.000194 -0.000645 0.000461
Al -0.031138 1.774100 -0.145581 0.002194 0.000160 -0.000326
Al 3.133693 -3.682542 4.905039 -0.000529 0.000833 0.000181
Ga 3.123653 -3.672045 -5.203307 -0.000546 0.000760 0.000179
Al 3.125226 -3.673133 -0.147136 0.000066 0.001194 -0.001210
Ga 1.560332 -0.951834 4.908559 -0.001053 0.000838 0.000411
Al 1.560951 -0.934943 -5.218691 -0.000982 0.000013 0.000024
Al 1.573143 -0.935518 -0.137076 -0.000721 0.000706 0.000520
Al 3.122827 1.776313 4.904495 0.000147 -0.000396 0.000487
Al 3.124535 1.770395 -5.210632 -0.000348 -0.000111 0.000549
Al 3.120563 1.765716 -0.147091 -0.000062 -0.002383 -0.000589
Al 6.272554 -3.673137 4.906458 0.000158 -0.000238 -0.001035
Ga 6.280930 -3.668625 -5.204703 -0.000252 0.000242 -0.000561
Ga 6.262120 -3.674061 -0.136336 0.000663 -0.000073 0.000787
Al 4.707446 -0.948383 4.902603 -0.001145 0.000446 0.000044
Al 4.700644 -0.927539 -5.208862 -0.000534 -0.000683 0.000764
Al 4.692669 -0.937022 -0.154630 -0.003855 0.001727 0.004354
Al -3.174033 1.773160 4.902606 -0.000506 0.000142 0.000393
Al -3.179840 1.774004 -5.215382 -0.000039 -0.000002 0.000449
Al -3.172146 1.777519 -0.143901 -0.000408 -0.000078 -0.001348
Al -0.022988 -3.677009 4.904353 0.000303 -0.000064 -0.000436
Al -0.018481 -3.672932 -5.218090 -0.000119 0.000760 0.000203
Ga -0.007968 -3.685175 -0.124679 -0.000563 0.000591 0.000788
Al -1.599810 -0.945154 4.908487 -0.000274 0.000483 0.000074
Al -1.594901 -0.928907 -5.220871 -0.000406 -0.000343 0.000111
Ga -1.603935 -0.920068 -0.128291 0.000133 -0.000375 0.000272
N 1.547012 0.912582 4.281979 0.000723 0.000091 -0.000454
N 1.546752 0.876317 -5.805744 0.000635 0.000181 -0.000239
N 1.545439 0.870351 -0.748868 0.000312 0.000072 -0.000566
N -0.028999 3.585165 4.309377 0.000154 -0.000035 0.000112
N -0.025495 3.540875 -5.845137 0.000132 0.000941 -0.000896
N -0.066896 3.566114 -0.755180 -0.000314 -0.000328 0.000226
N 3.169233 -1.883421 4.283367 0.000850 -0.000618 -0.000158
N 3.135120 -1.810115 -5.822836 0.000332 0.000295 -0.000276
N 3.126802 -1.850531 -0.743334 0.000368 -0.000788 -0.000079
N -4.747272 0.865383 4.300057 0.000605 0.000415 -0.000112
N -4.747530 0.870820 -5.811601 0.000634 0.000607 -0.000671
N -4.744547 0.871806 -0.754734 0.000683 0.000314 0.000324
N -6.319997 3.583625 4.319974 -0.000217 -0.000005 0.000885
N -6.280994 3.568335 -5.830213 0.000412 -0.000443 -0.000511
N -6.318481 3.540777 -0.782253 -0.000005 0.002339 0.000381
N -3.167709 -1.854666 4.321919 0.000336 -0.000312 0.000738
N -3.168909 -1.806260 -5.829201 0.000189 0.000691 -0.000322
N -3.212870 -1.821536 -0.775293 0.003394 -0.002416 -0.002685
N -1.601400 0.872571 4.311774 0.000509 -0.000463 -0.000298
N -1.602128 0.879796 -5.813935 0.000571 -0.000284 -0.000448
N -1.597412 0.924167 -0.776026 -0.002087 -0.000522 0.000367
N -3.170664 3.589577 4.312065 0.000284 -0.000882 0.000238
N -3.213129 3.572338 -5.833017 0.000085 -0.000985 -0.000752
N -3.138038 3.569561 -0.764999 0.000631 -0.001250 0.000184
N -0.060323 -1.874812 4.302132 0.000502 -0.000503 0.000387
N -0.022472 -1.849199 -5.797239 0.000315 -0.000579 0.000402
N 0.014719 -1.826813 -0.723958 0.000779 -0.000730 -0.000554
N -0.027285 1.773396 1.775513 -0.000403 -0.000049 0.000718
N -0.022778 1.764692 6.816149 -0.000204 0.000401 -0.000535
N -0.022108 1.775485 -3.285209 -0.000322 0.000567 0.000016
N 3.128387 -3.679245 1.773586 -0.000029 0.000513 0.000945
N 3.128664 -3.674538 6.822573 -0.000113 0.000890 -0.000198
N 3.129800 -3.669029 -3.226782 -0.000028 0.000879 0.000700
N 1.556784 -0.949851 1.786232 -0.000017 0.000315 0.000758
N 1.556749 -0.951223 6.882436 -0.000755 0.000293 0.000363
N 1.603196 -0.920621 -3.302669 -0.000241 0.000566 -0.000749
N 3.123810 1.775821 1.773582 0.000192 -0.000002 0.000548
N 3.119884 1.768075 6.821772 -0.000323 -0.000269 -0.000264
N 3.121248 1.775744 -3.288730 -0.000132 -0.000307 -0.000263
N 6.284062 -3.675846 1.853701 -0.003349 0.001731 -0.002392
N 6.275946 -3.672027 6.822026 0.000050 0.000210 0.000530
N 6.265841 -3.667990 -3.226279 0.002377 0.000405 0.000351
N 4.704501 -0.950096 1.780220 -0.000016 0.000130 -0.001855
N 4.700445 -0.946630 6.816748 -0.000650 -0.000150 -0.000439
N 4.697541 -0.940284 -3.286791 -0.000600 0.000075 -0.000104
N -3.169844 1.772524 1.778571 -0.000424 0.000180 0.001040
N -3.174087 1.771148 6.819310 -0.000370 -0.000031 -0.000029
N -3.175528 1.779763 -3.292246 -0.000661 -0.000113 -0.000265
N -0.016548 -3.677791 1.857510 -0.000651 -0.000118 -0.002199
N -0.018572 -3.668266 6.819641 -0.000092 0.000522 0.000157
N -0.016102 -3.713889 -3.303739 -0.000454 -0.000396 -0.000124
N -1.598764 -0.945880 1.848250 0.000639 0.000228 0.000013
N -1.588415 -0.945414 6.826577 -0.000497 -0.000122 0.000052
N -1.633780 -0.915160 -3.306070 -0.001567 -0.000182 0.000225
