108
Energy=-1.626827e+06 Lattice="9.534046e+00 0.000000e+00 0.000000e+00 -4.769792e+00 8.256504e+00 0.000000e+00 -1.780631e-03 -6.032947e-04 1.540430e+01" Stress="-1.751692e-03 -1.189724e-04 3.482874e-05 -1.234461e-04 -1.771928e-03 2.174411e-05 1.787118e-05 1.376199e-05 -2.418682e-03" Properties=species:S:1:pos:R:3:forces:R:3 Config_type=AlGaN_super3_26_1_24.xyz
Al 1.570007e+00 8.715910e-01 2.424691e+00 -1.808542e-04 5.233637e-04 2.710657e-04
Al 1.576642e+00 8.867244e-01 7.546526e+00 3.166961e-05 -4.524485e-04 -2.616078e-04
Al 1.572094e+00 8.737329e-01 -2.715565e+00 4.248937e-05 1.166637e-05 2.796110e-05
Al -2.887090e-02 3.631248e+00 2.443083e+00 4.641005e-04 -5.613198e-04 6.159822e-04
Al -1.235221e-02 3.645148e+00 7.525313e+00 -7.599676e-05 8.072293e-05 -4.282902e-04
Al -5.040393e-03 3.628786e+00 -2.711944e+00 3.701515e-05 2.848763e-05 3.560184e-06
Al 3.152430e+00 -1.868647e+00 2.432138e+00 -4.502997e-05 -8.068828e-05 1.158927e-04
Al 3.161865e+00 -1.880665e+00 7.524447e+00 -2.863426e-05 1.157005e-04 -1.164065e-04
Ga 3.145252e+00 -1.865892e+00 -2.700388e+00 -1.798864e-05 -2.401980e-06 5.078553e-06
Al -4.793812e+00 8.765069e-01 2.443351e+00 2.656285e-04 2.973487e-04 2.913227e-04
Ga -4.819908e+00 8.702065e-01 7.531694e+00 -8.965219e-05 -1.549015e-04 -1.342831e-04
Al -4.802359e+00 8.846442e-01 -2.711341e+00 3.362248e-05 -9.844247e-06 2.275250e-05
Ga -6.381832e+00 3.623990e+00 2.434953e+00 -3.340107e-05 -3.081559e-06 1.960634e-04
Al -6.399077e+00 3.629265e+00 7.533908e+00 -6.932924e-06 -4.916908e-04 -7.563832e-04
Ga -6.396433e+00 3.623938e+00 -2.716460e+00 -4.805828e-05 1.718102e-05 7.313012e-05
Ga -3.219432e+00 -1.879478e+00 2.441599e+00 1.858702e-05 -3.516858e-05 7.192913e-05
Al -3.202093e+00 -1.894149e+00 7.543013e+00 -7.505221e-04 1.261033e-04 -3.869895e-04
Ga -3.194793e+00 -1.889305e+00 -2.725725e+00 -4.255043e-05 -2.056299e-05 -1.124942e-05
Al -1.615242e+00 8.973572e-01 2.411402e+00 -1.644710e-05 6.727929e-05 -3.697045e-06
Ga -1.597086e+00 8.663735e-01 7.568563e+00 1.004439e-04 -4.138700e-05 -5.397876e-05
Ga -1.607073e+00 8.753056e-01 -2.710602e+00 9.211581e-05 -7.102392e-05 5.496216e-05
Al -3.198863e+00 3.629252e+00 2.422433e+00 -5.023381e-04 -4.129867e-04 6.242066e-04
Ga -3.197980e+00 3.656029e+00 7.527617e+00 1.358528e-04 -8.922601e-05 -1.832151e-05
Ga -3.204792e+00 3.627211e+00 -2.686473e+00 3.752069e-05 -6.041733e-05 4.420769e-05
Ga -3.031053e-04 -1.874257e+00 2.426784e+00 -1.142832e-04 -3.365177e-05 1.064193e-04
Al -2.822469e-02 -1.880162e+00 7.539655e+00 4.227927e-04 7.686982e-04 5.616155e-05
Al -1.609168e-02 -1.863922e+00 -2.702338e+00 -1.116556e-05 -2.858539e-05 5.021313e-05
Ga -1.035019e-02 1.810398e+00 4.980340e+00 7.867120e-05 3.808449e-05 -7.689411e-05
Ga 6.268181e-05 1.808188e+00 -5.284430e+00 1.427129e-06 3.512466e-05 3.549809e-05
Ga -1.196436e-02 1.801671e+00 -1.321251e-01 -2.478397e-05 1.701860e-05 7.620743e-05
Al 3.164984e+00 -3.698026e+00 4.959738e+00 -6.184621e-05 2.363054e-04 3.139844e-05
Ga 3.179098e+00 -3.708405e+00 -5.288092e+00 2.974050e-05 5.614567e-05 6.392568e-05
Ga 3.159111e+00 -3.715381e+00 -1.131110e-01 -1.870362e-05 4.284915e-05 -1.016842e-04
Ga 1.586232e+00 -9.595571e-01 5.000931e+00 1.913843e-05 6.571681e-05 1.147899e-04
Ga 1.559395e+00 -9.489376e-01 -5.306112e+00 -6.541906e-05 3.190305e-05 -9.051767e-05
Al 1.561316e+00 -9.575343e-01 -1.356242e-01 -1.089382e-04 5.156234e-05 6.015195e-05
Al 3.152371e+00 1.799507e+00 4.975521e+00 -5.767013e-04 5.557936e-04 4.272036e-04
Al 3.144115e+00 1.803419e+00 -5.286236e+00 6.452481e-05 -1.949085e-04 4.626982e-05
Ga 3.159969e+00 1.794121e+00 -1.355066e-01 3.768333e-05 1.962637e-05 9.500618e-05
Al 6.332141e+00 -3.712402e+00 5.011170e+00 -7.005319e-05 -7.852269e-05 -2.316967e-05
Al 6.340856e+00 -3.715761e+00 -5.327038e+00 -6.034607e-04 7.522433e-04 4.028376e-04
Al 6.335174e+00 -3.716515e+00 -1.328836e-01 3.555349e-05 -7.746942e-06 9.695423e-05
Al 4.734216e+00 -9.682248e-01 4.984733e+00 -1.301479e-05 3.888739e-05 4.815981e-04
Ga 4.754538e+00 -9.594326e-01 -5.297814e+00 -3.933036e-05 -4.064728e-05 -2.233024e-05
Ga 4.744428e+00 -9.457499e-01 -1.295404e-01 -1.855475e-05 2.632134e-06 1.627357e-05
Ga -3.215313e+00 1.804428e+00 4.961268e+00 5.651849e-05 7.805316e-06 -1.158632e-04
Ga -3.213500e+00 1.789866e+00 -5.280600e+00 2.111168e-05 -5.904407e-05 2.786006e-05
Al -3.217445e+00 1.799386e+00 -1.133209e-01 3.683695e-05 -1.933628e-05 1.759283e-04
Al -2.725490e-02 -3.718284e+00 5.000898e+00 -2.219106e-04 -2.639482e-04 -7.879817e-04
Ga -4.713348e-02 -3.700493e+00 -5.295736e+00 1.900441e-04 7.941355e-05 1.472899e-04
Al -2.002073e-02 -3.704531e+00 -1.425971e-01 -1.111582e-05 -3.398688e-06 9.307708e-05
Ga -1.622164e+00 -9.679809e-01 4.994989e+00 -3.136868e-05 9.261814e-06 -2.169805e-05
Al -1.608746e+00 -9.785976e-01 -5.293975e+00 -4.956649e-05 -2.165246e-05 3.585287e-05
Ga -1.601089e+00 -9.682546e-01 -1.361131e-01 -3.201285e-05 4.858589e-06 1.032474e-04
N 1.605784e+00 8.946705e-01 4.333428e+00 5.990686e-05 -2.991126e-05 -9.076865e-05
N 1.612051e+00 9.056787e-01 -5.946692e+00 6.986150e-05 8.088929e-05 1.027693e-04
N 1.569301e+00 8.302494e-01 -7.963236e-01 4.504516e-05 -4.032981e-05 -5.600840e-05
N -1.503806e-02 3.681587e+00 4.359297e+00 -1.343017e-05 -8.582842e-05 -5.680600e-04
N 1.559399e-02 3.654666e+00 -5.967490e+00 -5.789902e-05 5.848248e-05 1.983521e-04
N 2.017095e-02 3.656214e+00 -7.956949e-01 -4.099947e-05 1.781191e-05 -4.348073e-05
N 3.192901e+00 -1.892326e+00 4.349256e+00 -5.836750e-05 -4.894741e-05 -2.632250e-04
N 3.158626e+00 -1.876820e+00 -5.967279e+00 2.279852e-05 -1.407920e-05 -1.018297e-05
N 3.115343e+00 -1.854595e+00 -7.299817e-01 3.600626e-05 -4.745958e-05 2.950140e-06
N -4.837756e+00 8.507497e-01 4.363104e+00 6.390866e-04 -3.472964e-04 -6.161720e-04
N -4.840473e+00 9.025172e-01 -5.903707e+00 1.639288e-05 6.887197e-05 8.568541e-05
N -4.749940e+00 9.056492e-01 -7.957959e-01 3.697004e-05 -1.191976e-05 -7.432486e-05
N -6.383730e+00 3.635654e+00 4.422980e+00 1.478231e-04 3.410604e-05 7.109848e-05
N -6.420617e+00 3.599604e+00 -5.938548e+00 3.851264e-04 -2.418473e-04 -1.245906e-05
N -6.383385e+00 3.676591e+00 -7.288770e-01 -8.449296e-06 8.185686e-06 -5.123536e-05
N -3.244788e+00 -1.906111e+00 4.413997e+00 1.938648e-07 3.985851e-05 -7.152192e-05
N -3.158598e+00 -1.899156e+00 -5.933146e+00 1.085578e-04 -2.741098e-04 3.293339e-04
N -3.199780e+00 -1.925504e+00 -7.469304e-01 -1.703578e-05 8.295806e-06 -5.954432e-05
N -1.610236e+00 8.785726e-01 4.317279e+00 3.095593e-05 -1.807357e-05 -6.736507e-06
N -1.606896e+00 8.321024e-01 -5.863331e+00 8.199755e-05 -5.486091e-05 2.583084e-05
N -1.655763e+00 9.047871e-01 -7.297341e-01 7.710160e-05 -1.814202e-05 -7.801696e-05
N -3.208513e+00 3.685565e+00 4.349976e+00 -1.369138e-05 -1.014810e-04 -2.742712e-04
N -3.201196e+00 3.638387e+00 -5.909466e+00 -4.416549e-05 -5.922812e-05 -2.562702e-05
N -3.239493e+00 3.604190e+00 -7.065707e-01 3.455657e-05 -3.637527e-06 -2.704974e-05
N -1.621519e-02 -1.922229e+00 4.394591e+00 -2.137533e-06 -5.028532e-05 -3.489250e-05
N -6.112920e-02 -1.851988e+00 -5.956163e+00 -6.642383e-05 -2.066546e-04 -4.079791e-05
N 2.261584e-02 -1.896087e+00 -7.750546e-01 8.419669e-05 -2.358166e-05 -5.643999e-05
N -1.584600e-02 1.800920e+00 1.859762e+00 -1.099322e-04 4.172854e-04 -5.482805e-06
N 1.763352e-02 1.818360e+00 6.960924e+00 -3.404968e-05 1.201031e-04 3.711007e-05
N 2.414538e-02 1.820855e+00 -3.297075e+00 -8.172503e-06 6.818930e-05 -1.989120e-05
N 3.159479e+00 -3.711024e+00 1.873885e+00 3.405166e-04 6.052795e-04 -2.816571e-04
N 3.200699e+00 -3.684868e+00 6.883411e+00 4.598289e-05 -1.082412e-04 2.662723e-04
N 3.200704e+00 -3.734747e+00 -3.309396e+00 -1.121415e-05 4.873985e-05 -4.466946e-05
N 1.607901e+00 -9.294933e-01 1.787007e+00 1.287982e-04 -4.585969e-04 -1.564801e-04
N 1.567667e+00 -9.541504e-01 6.985540e+00 -2.778310e-04 -3.086660e-05 2.264993e-05
N 1.523908e+00 -9.336534e-01 -3.320308e+00 -7.304779e-05 5.315266e-05 -1.430122e-05
N 3.157448e+00 1.747132e+00 1.840944e+00 -2.089984e-04 8.820659e-05 -5.442139e-05
N 3.108242e+00 1.820431e+00 6.890898e+00 -1.131569e-04 2.420203e-04 1.456541e-04
N 3.151035e+00 1.749533e+00 -3.354036e+00 1.083996e-05 1.291952e-05 -3.547927e-05
N 6.290252e+00 -3.737005e+00 1.776740e+00 -7.818873e-05 1.684843e-05 -8.241912e-05
N 6.334809e+00 -3.709923e+00 6.930414e+00 3.317080e-05 -3.346980e-06 5.874822e-05
N 6.293368e+00 -3.736604e+00 -3.405646e+00 2.329617e-05 -9.365031e-05 -1.424704e-04
N 4.702765e+00 -9.271890e-01 1.845970e+00 -8.553901e-05 -3.434814e-04 -4.592866e-05
N 4.745910e+00 -1.006089e+00 6.908501e+00 2.625057e-04 -1.254683e-04 4.139538e-05
N 4.744876e+00 -9.123665e-01 -3.319777e+00 -5.352096e-05 -7.963166e-07 -3.001825e-05
N -3.212786e+00 1.795889e+00 1.821950e+00 4.383160e-05 -3.933070e-05 2.649860e-05
N -3.200170e+00 1.793457e+00 6.925097e+00 5.173319e-05 1.715964e-05 -2.218321e-05
N -3.244479e+00 1.774074e+00 -3.314529e+00 -5.561195e-06 6.930776e-06 -5.367290e-06
N 1.532838e-02 -3.731896e+00 1.770166e+00 9.913135e-06 1.218559e-04 -1.363638e-04
N -6.869468e-02 -3.688875e+00 6.916128e+00 -1.140030e-04 -8.953251e-05 5.657824e-04
N -2.521408e-02 -3.659792e+00 -3.315640e+00 2.199472e-05 -2.330275e-05 -4.527179e-05
N -1.611659e+00 -9.156048e-01 1.834287e+00 -4.307835e-08 -1.713019e-05 -1.104586e-04
N -1.617068e+00 -1.003162e+00 6.964683e+00 3.290632e-04 6.712672e-05 -4.382815e-06
N -1.566423e+00 -9.866389e-01 -3.368317e+00 -2.481839e-05 -3.409385e-05 -3.300298e-05
