108
Energy=-2771214.591820 Lattice="9.686816 0.000000 0.000000 -4.843337 8.387705 0.000000 -0.000544 0.000273 15.733301" Stress="0.000000 0.000000 -0.000000 0.000000 0.000000 0.000000 -0.000000 0.000000 -0.000000" Properties=species:S:1:pos:R:3:forces:R:3
Al 1.589885 0.892629 2.480809 -0.000005 0.000019 0.000006
Ga 1.586379 0.900248 7.716466 0.000008 -0.000006 -0.000004
Ga 1.590832 0.892560 -2.770640 0.000010 -0.000005 -0.000001
Ga -0.018620 3.679129 2.478911 0.000010 0.000005 -0.000003
Al -0.023057 3.686796 7.713181 0.000008 -0.000009 0.000011
Ga -0.023135 3.686783 -2.766311 0.000015 0.000005 -0.000010
Ga 3.201514 -1.897866 2.481056 -0.000001 -0.000006 -0.000020
Ga 3.208772 -1.910616 7.713842 0.000019 0.000005 -0.000002
Ga 3.203677 -1.905433 -2.768694 0.000003 -0.000010 0.000001
Ga -4.875686 0.891453 2.476221 0.000014 0.000011 -0.000069
Ga -4.868370 0.892152 7.715831 -0.000011 0.000005 -0.000000
Ga -4.867917 0.893888 -2.764313 0.000008 -0.000006 -0.000007
Ga -6.482016 3.683483 2.492215 0.000015 0.000010 -0.000027
Ga -6.483553 3.690722 7.702276 -0.000014 0.000003 -0.000013
Ga -6.482667 3.686391 -2.768649 0.000011 0.000005 -0.000008
Ga -3.252362 -1.905546 2.482546 -0.000007 -0.000006 -0.000027
Ga -3.257038 -1.911661 7.718240 -0.000001 0.000008 -0.000015
Ga -3.251404 -1.906360 -2.773663 0.000009 0.000009 -0.000004
Ga -1.626037 0.893165 2.481223 -0.000001 -0.000024 -0.000003
Ga -1.631619 0.900779 7.714120 -0.000011 -0.000009 -0.000042
Ga -1.635538 0.893379 -2.768369 0.000016 0.000012 -0.000010
Ga -3.255847 3.691487 2.494145 0.000023 -0.000003 -0.000023
Ga -3.250768 3.692330 7.706537 0.000005 -0.000008 -0.000020
Ga -3.250288 3.688044 -2.772007 0.000016 0.000016 0.000014
Ga -0.018585 -1.902019 2.488970 0.000012 -0.000010 -0.000022
Ga -0.022343 -1.910608 7.704289 -0.000005 0.000003 -0.000016
Ga -0.021583 -1.903220 -2.764385 0.000002 0.000010 -0.000008
Ga -0.015989 1.825694 5.099251 0.000002 0.000006 -0.000004
Ga -0.023109 1.832169 -5.404051 0.000010 -0.000006 -0.000010
Ga -0.017922 1.820978 -0.132461 0.000005 0.000007 -0.000011
Ga 3.201044 -3.771028 5.108953 -0.000001 0.000027 -0.000008
Ga 3.212418 -3.772144 -5.408281 -0.000012 -0.000011 -0.000010
Ga 3.203907 -3.769024 -0.140484 -0.000001 0.000008 -0.000004
Ga 1.585901 -0.971751 5.085762 0.000011 0.000004 -0.000004
Ga 1.590324 -0.973293 -5.396335 -0.000003 -0.000020 -0.000007
Ga 1.590698 -0.966688 -0.128985 -0.000009 -0.000016 -0.000001
Ga 3.203092 1.827509 5.085959 0.000012 -0.000002 -0.000029
Ga 3.206703 1.825406 -5.396100 0.000013 0.000000 -0.000012
Ga 3.199742 1.823201 -0.129452 0.000030 0.000017 -0.000011
Ga 6.438676 -3.770626 5.109081 0.000029 0.000015 -0.000016
Ga 6.428973 -3.773801 -5.408556 0.000010 -0.000000 -0.000001
Ga 6.436472 -3.768327 -0.140612 -0.000024 0.000005 0.000008
Ga 4.820295 -0.971800 5.099460 0.000019 0.000002 -0.000023
Ga 4.819298 -0.971152 -5.392072 0.000015 -0.000001 0.000012
Ga 4.820807 -0.973475 -0.145685 -0.000011 0.000011 0.000013
Ga -3.257159 1.831799 5.097673 -0.000007 0.000006 -0.000044
Ga -3.252544 1.824593 -5.395910 0.000011 -0.000013 0.000001
Ga -3.250812 1.826608 -0.140411 0.000009 0.000010 -0.000016
Al -0.023548 -3.767315 5.097586 0.000010 -0.000001 -0.000001
Ga -0.023766 -3.767477 -5.393819 0.000009 0.000001 -0.000010
Ga -0.022595 -3.769022 -0.142564 0.000000 0.000004 -0.000004
Ga -1.632862 -0.980179 5.097899 0.000024 -0.000004 -0.000045
Ga -1.635298 -0.972599 -5.396286 0.000007 0.000004 -0.000007
Ga -1.636826 -0.972572 -0.140418 -0.000008 0.000004 0.000012
N 1.588954 0.893083 4.405106 -0.000000 0.000009 0.000016
N 1.591477 0.892339 -6.035431 -0.000009 0.000002 0.000029
N 1.591738 0.891792 -0.787856 -0.000019 0.000006 0.000016
N -0.023252 3.689265 4.457610 -0.000001 -0.000036 -0.000007
N -0.023018 3.686735 -6.095828 -0.000008 0.000003 0.000007
N -0.023121 3.685921 -0.780441 0.000001 -0.000010 0.000014
N 3.205752 -1.906639 4.462160 -0.000009 -0.000008 0.000013
N 3.205779 -1.903459 -6.036743 0.000001 -0.000005 -0.000000
N 3.201873 -1.903745 -0.781596 -0.000003 -0.000008 -0.000008
N -4.866802 0.891642 4.455090 -0.000010 -0.000009 0.000025
N -4.866872 0.892217 -6.035623 -0.000013 -0.000004 -0.000011
N -4.868921 0.895239 -0.778033 -0.000022 -0.000007 0.000026
N -6.439988 3.714610 4.481977 -0.000002 0.000007 0.000012
N -6.477842 3.688980 -6.045403 -0.000003 -0.000001 0.000012
N -6.481047 3.685276 -0.783018 -0.000015 0.000001 0.000000
N -3.252237 -1.906719 4.462919 -0.000011 -0.000007 0.000027
N -3.252369 -1.903705 -6.033071 -0.000005 -0.000006 -0.000011
N -3.250505 -1.905056 -0.788624 -0.000010 -0.000020 -0.000011
N -1.635714 0.893100 4.464193 0.000005 -0.000017 0.000056
N -1.636825 0.892656 -6.036396 -0.000012 0.000014 -0.000003
N -1.634897 0.893741 -0.781225 -0.000029 -0.000013 -0.000005
N -3.293924 3.715035 4.483163 -0.000012 -0.000029 0.000022
N -3.254881 3.689648 -6.041853 0.000007 0.000008 0.000009
N -3.251454 3.688409 -0.788448 -0.000017 -0.000010 -0.000011
N -0.023214 -1.954203 4.476686 -0.000009 -0.000002 0.000008
N -0.022427 -1.907006 -6.044123 0.000006 0.000015 0.000013
N -0.020057 -1.902569 -0.779482 -0.000022 -0.000002 0.000022
N 0.021311 1.798449 1.856326 -0.000007 -0.000020 -0.000014
N -0.020202 1.873023 7.089446 -0.000022 0.000015 0.000017
N -0.022913 1.827052 -3.418134 -0.000010 -0.000016 -0.000002
N 3.204111 -3.769636 1.843538 -0.000001 -0.000001 0.000027
N 3.248484 -3.793344 7.096657 0.000004 0.000006 0.000005
N 3.209233 -3.769829 -3.419968 -0.000010 0.000002 0.000006
N 1.589520 -0.922616 1.863693 0.000013 0.000022 -0.000009
N 1.591872 -0.967749 7.070043 -0.000023 -0.000005 0.000005
N 1.590565 -0.972556 -3.412637 0.000007 0.000008 -0.000004
N 3.160706 1.801965 1.862865 -0.000022 -0.000033 0.000022
N 3.202976 1.822001 7.068000 -0.000003 0.000008 0.000017
N 3.205975 1.823965 -3.412642 -0.000005 -0.000005 -0.000005
N 6.437122 -3.769743 1.841420 0.000008 0.000013 0.000016
N 6.391007 -3.792760 7.096615 -0.000021 -0.000002 0.000002
N 6.432211 -3.771770 -3.420273 -0.000005 -0.000005 0.000003
N 4.820459 -0.973965 1.835796 0.000015 0.000018 0.000023
N 4.820166 -0.971965 7.077677 -0.000002 0.000004 0.000009
N 4.819106 -0.971356 -3.407717 -0.000003 0.000011 0.000003
N -3.250460 1.826212 1.845052 -0.000006 0.000029 0.000046
N -3.252882 1.824028 7.076808 -0.000005 -0.000000 0.000022
N -3.252160 1.823048 -3.410839 -0.000006 0.000006 0.000009
N -0.024256 -3.768688 1.838572 0.000011 -0.000000 0.000005
N -0.023456 -3.768437 7.020178 0.000005 -0.000008 0.000011
N -0.023978 -3.767556 -3.409898 0.000003 -0.000009 0.000003
N -1.635902 -0.973325 1.843256 0.000012 0.000028 0.000035
N -1.639153 -0.971419 7.078850 -0.000003 -0.000010 0.000026
N -1.635579 -0.972049 -3.411128 0.000000 -0.000006 0.000015
