108
Energy=-1.123296e+06 Lattice="9.478514e+00 0.000000e+00 0.000000e+00 -4.743414e+00 8.205152e+00 0.000000e+00 1.216252e-03 -1.063428e-03 1.526865e+01" Stress="-1.211989e-04 -3.070625e-04 6.061887e-05 -2.977465e-04 -4.570556e-04 5.385427e-05 6.521404e-05 5.185158e-05 3.127951e-04" Properties=species:S:1:pos:R:3:forces:R:3 Config_type=AlGaN_super3_15_0_15.xyz
Al 1.556696e+00 8.702602e-01 2.389888e+00 2.641653e-04 3.001154e-04 3.639567e-05
Al 1.566311e+00 8.793793e-01 7.450186e+00 -6.544808e-05 -5.714736e-04 1.120403e-04
Al 1.557543e+00 8.685225e-01 -2.659399e+00 -5.855436e-04 2.579590e-04 -1.126295e-04
Al -1.860449e-02 3.601844e+00 2.403713e+00 -9.666050e-04 -5.132701e-04 5.149303e-04
Al -1.181141e-02 3.606716e+00 7.482817e+00 9.598382e-05 1.764573e-04 1.536436e-04
Al -3.437177e-02 3.603839e+00 -2.704247e+00 5.200391e-04 1.279525e-04 1.218003e-04
Al 3.139106e+00 -1.856395e+00 2.394504e+00 -6.925472e-05 -1.035303e-03 2.987554e-04
Al 3.147434e+00 -1.859773e+00 7.469160e+00 6.554797e-04 -4.777263e-04 1.047502e-03
Al 3.127464e+00 -1.874684e+00 -2.678120e+00 -4.943141e-05 7.758172e-04 -5.410818e-04
Al -4.776996e+00 8.701203e-01 2.403626e+00 2.227116e-04 7.272454e-04 4.813068e-04
Al -4.772230e+00 8.707129e-01 7.459714e+00 -5.989539e-04 -4.717468e-04 1.488212e-03
Al -4.770549e+00 8.802400e-01 -2.675763e+00 2.640574e-04 -1.354161e-04 -9.852933e-05
Al -6.355677e+00 3.598430e+00 2.397378e+00 1.876048e-03 -1.607076e-05 7.417237e-05
Al -6.352666e+00 3.602166e+00 7.477891e+00 -3.664787e-04 -1.851931e-04 2.957957e-04
Ga -6.340116e+00 3.601865e+00 -2.685234e+00 -2.562467e-04 3.549731e-04 -4.963827e-04
Al -3.176030e+00 -1.858492e+00 2.418765e+00 2.158573e-04 2.314136e-05 -3.420140e-05
Al -3.191212e+00 -1.873787e+00 7.446270e+00 -5.433188e-04 -3.623529e-05 9.557029e-04
Ga -3.188903e+00 -1.868944e+00 -2.672954e+00 -9.718314e-05 -9.094385e-05 -3.289472e-04
Al -1.596783e+00 8.677961e-01 2.382066e+00 1.995626e-04 3.051798e-05 -2.990080e-04
Ga -1.600544e+00 8.866397e-01 7.489340e+00 7.892497e-04 -5.172123e-04 1.641264e-04
Ga -1.599379e+00 8.905530e-01 -2.673735e+00 4.787759e-04 -2.384488e-04 3.853033e-04
Ga -3.181101e+00 3.610912e+00 2.365671e+00 -1.295779e-04 -1.459408e-04 2.802177e-05
Al -3.184025e+00 3.608547e+00 7.515192e+00 1.576267e-04 -8.298794e-05 6.692035e-06
Al -3.182295e+00 3.617101e+00 -2.690582e+00 2.336890e-04 -4.163384e-04 2.390558e-04
Al -2.141313e-02 -1.849000e+00 2.387698e+00 1.473941e-04 -6.606365e-04 4.128068e-04
Ga -1.224867e-02 -1.863317e+00 7.470286e+00 3.226368e-04 1.056419e-05 5.002020e-04
Al -4.218460e-03 -1.868295e+00 -2.664581e+00 -1.828303e-04 -2.590845e-05 1.721456e-04
Al -7.263432e-03 1.777111e+00 4.919399e+00 -3.540745e-04 3.140746e-04 -2.315657e-04
Al -2.013572e-02 1.802044e+00 -5.236303e+00 1.505408e-03 1.012022e-04 4.011388e-04
Al -2.202638e-02 1.783083e+00 -1.340381e-01 -1.260638e-04 -2.290673e-04 2.507111e-04
Ga 3.159031e+00 -3.679827e+00 4.954973e+00 -1.001674e-04 2.871316e-04 4.234317e-04
Al 3.141036e+00 -3.702222e+00 -5.245502e+00 4.802282e-05 8.139198e-04 2.803708e-05
Al 3.135007e+00 -3.694940e+00 -1.588099e-01 2.891290e-04 2.307577e-04 3.323582e-04
Al 1.566582e+00 -9.353557e-01 4.917110e+00 -3.633786e-04 8.176785e-05 2.716318e-04
Ga 1.561119e+00 -9.493653e-01 -5.218998e+00 -2.257193e-04 1.284849e-04 4.115228e-04
Al 1.552866e+00 -9.539918e-01 -1.450148e-01 -2.437110e-04 6.626512e-04 -2.161364e-04
Al 3.119760e+00 1.777728e+00 4.934459e+00 2.315308e-04 6.542008e-05 -1.436638e-05
Ga 3.129352e+00 1.790543e+00 -5.251563e+00 7.495344e-05 -3.798442e-04 4.767937e-04
Al 3.135980e+00 1.778269e+00 -1.331489e-01 -7.020845e-04 -7.642557e-04 2.297468e-04
Al 6.298585e+00 -3.690539e+00 4.927324e+00 1.979899e-05 5.706424e-06 1.184630e-04
Al 6.290549e+00 -3.695244e+00 -5.262659e+00 1.682684e-05 5.564755e-04 2.037704e-04
Ga 6.292268e+00 -3.702366e+00 -1.102804e-01 -2.426036e-04 3.671211e-05 -7.240237e-04
Al 4.716168e+00 -9.510435e-01 4.927160e+00 -1.071823e-04 1.178165e-04 9.027665e-05
Ga 4.719965e+00 -9.553630e-01 -5.244756e+00 -3.693983e-04 4.093685e-05 1.562143e-04
Ga 4.707518e+00 -9.410296e-01 -1.195488e-01 -1.456318e-04 -1.439411e-04 -1.418990e-03
Ga -3.185653e+00 1.768455e+00 4.939510e+00 -2.584242e-05 -1.341029e-05 -9.427873e-05
Al -3.188208e+00 1.803512e+00 -5.233756e+00 -6.997476e-04 -3.614572e-05 -1.743435e-04
Al -3.193522e+00 1.793322e+00 -1.408259e-01 2.415063e-03 -1.274712e-03 -4.724651e-04
Ga -3.848941e-02 -3.680858e+00 4.938428e+00 -5.915226e-05 3.924361e-05 -1.623492e-05
Al -1.426578e-02 -3.696339e+00 -5.235824e+00 -2.634887e-04 5.808723e-04 6.875252e-05
Al -1.433707e-02 -3.676265e+00 -1.421397e-01 -5.195390e-04 -6.505137e-04 2.877058e-04
Al -1.599998e+00 -9.462764e-01 4.913425e+00 -4.223205e-04 -8.946511e-05 2.742303e-04
Ga -1.603143e+00 -9.549405e-01 -5.232833e+00 -4.288606e-04 -3.474010e-04 7.392380e-05
Al -1.582542e+00 -9.476959e-01 -1.182569e-01 -1.941021e-04 5.586342e-04 -1.502455e-04
N 1.557868e+00 8.729752e-01 4.313143e+00 3.024914e-04 -2.435321e-04 8.203848e-05
N 1.511074e+00 8.917354e-01 -5.904011e+00 -4.762168e-04 3.082375e-04 2.947342e-04
N 1.554316e+00 8.742691e-01 -7.363568e-01 2.033384e-04 -1.797492e-04 2.545532e-06
N 1.271222e-02 3.582263e+00 4.313746e+00 6.542635e-06 -3.979964e-05 6.332670e-05
N -2.373280e-02 3.604358e+00 -5.858821e+00 -2.708906e-04 -2.086504e-04 -6.206585e-05
N -6.225276e-02 3.579954e+00 -7.823537e-01 -2.392701e-04 6.776388e-05 -2.317174e-05
N 3.138620e+00 -1.822197e+00 4.310008e+00 -6.065014e-05 -5.501887e-05 -3.874537e-04
N 3.134264e+00 -1.907231e+00 -5.882632e+00 1.911497e-04 -3.934110e-04 -6.078035e-04
N 3.099632e+00 -1.889065e+00 -7.631968e-01 -2.008302e-04 -1.076477e-04 -2.326126e-04
N -4.809685e+00 8.527059e-01 4.317271e+00 8.772609e-06 5.871534e-05 7.195667e-05
N -4.725230e+00 8.952824e-01 -5.893757e+00 3.630076e-04 2.210063e-04 -7.119538e-04
N -4.765416e+00 9.194045e-01 -7.627184e-01 5.912895e-07 2.942059e-04 -5.592275e-04
N -6.384130e+00 3.578076e+00 4.311003e+00 -6.466479e-05 -3.220135e-05 -4.997956e-07
N -6.343584e+00 3.654080e+00 -5.867609e+00 -8.899294e-05 2.368533e-04 -1.520608e-04
N -6.307593e+00 3.581639e+00 -7.129033e-01 9.508265e-04 1.455916e-03 4.520915e-05
N -3.180180e+00 -1.862331e+00 4.338067e+00 6.758794e-05 -8.667692e-05 -2.469240e-05
N -3.181459e+00 -1.907040e+00 -5.902498e+00 1.263201e-04 -4.184424e-04 -6.151252e-04
N -3.141059e+00 -1.844669e+00 -7.117161e-01 2.628385e-04 6.911840e-05 2.294822e-04
N -1.563337e+00 8.566730e-01 4.301503e+00 6.183951e-04 -4.892480e-04 3.621595e-05
N -1.602521e+00 9.258895e-01 -5.800010e+00 -1.993825e-04 -2.366163e-04 -1.990632e-04
N -1.602017e+00 8.745357e-01 -6.893512e-01 -1.322774e-03 9.748020e-04 -6.693324e-05
N -3.180408e+00 3.611988e+00 4.318183e+00 9.720743e-05 -2.533694e-04 1.822618e-04
N -3.184573e+00 3.609876e+00 -5.833526e+00 1.403753e-04 -2.062394e-04 -2.237003e-04
N -3.187617e+00 3.611217e+00 -7.541170e-01 1.837118e-05 -5.345201e-04 -2.139240e-04
N -1.647278e-02 -1.813996e+00 4.307120e+00 2.002786e-04 -5.039426e-05 -5.658264e-05
N -1.708583e-02 -1.904791e+00 -5.836002e+00 1.405078e-04 -6.317233e-04 -2.282633e-04
N -2.169239e-02 -1.861006e+00 -7.416434e-01 -4.129566e-05 -5.769777e-04 -1.947276e-04
N -1.811523e-02 1.786506e+00 1.788980e+00 -2.602989e-04 3.050248e-04 2.243168e-05
N 1.803417e-02 1.807908e+00 6.837180e+00 -2.631969e-04 3.980047e-04 -2.351970e-04
N 2.697508e-02 1.804348e+00 -3.314343e+00 -1.561453e-04 -8.644838e-05 -5.098343e-04
N 3.191462e+00 -3.663386e+00 1.759523e+00 -1.169015e-04 1.107298e-03 -2.562043e-04
N 3.141919e+00 -3.692716e+00 6.934803e+00 -7.665763e-05 1.895760e-04 1.414449e-05
N 3.138334e+00 -3.689448e+00 -3.307947e+00 -1.091877e-04 4.202085e-04 -4.045389e-04
N 1.562603e+00 -9.514004e-01 1.781700e+00 -3.454046e-04 -9.228521e-05 1.289445e-04
N 1.607389e+00 -9.310442e-01 6.836540e+00 -7.577822e-04 1.318556e-03 -7.625954e-04
N 1.557812e+00 -9.459589e-01 -3.233482e+00 8.614295e-04 -6.353792e-04 1.039176e-04
N 3.132389e+00 1.779341e+00 1.787305e+00 2.743489e-04 2.383202e-04 4.151189e-04
N 3.136655e+00 1.788393e+00 6.861066e+00 -2.181715e-04 -2.915282e-04 -1.377993e-04
N 3.129112e+00 1.732919e+00 -3.273622e+00 8.995847e-05 -1.090127e-04 -6.238461e-05
N 6.292266e+00 -3.685660e+00 1.861421e+00 6.134902e-04 6.376523e-04 -2.278397e-04
N 6.298654e+00 -3.692261e+00 6.855640e+00 5.215363e-06 -1.020843e-04 -3.795759e-05
N 6.258179e+00 -3.709332e+00 -3.345127e+00 -2.518311e-04 -3.463349e-04 -8.586304e-05
N 4.719949e+00 -9.480768e-01 1.851482e+00 -3.118034e-04 -9.142069e-04 1.225525e-03
N 4.717700e+00 -9.506460e-01 6.854812e+00 -2.807480e-04 -1.410149e-04 -1.548035e-04
N 4.674076e+00 -9.261931e-01 -3.262851e+00 -5.684822e-04 -4.774484e-04 2.473063e-04
N -3.192128e+00 1.731387e+00 1.773386e+00 1.944222e-04 3.694908e-04 -1.597580e-04
N -3.222843e+00 1.810391e+00 6.907937e+00 5.018962e-04 6.275689e-04 -5.708280e-04
N -3.228370e+00 1.810044e+00 -3.309544e+00 -5.438192e-04 2.771423e-04 -3.906741e-05
N -6.618079e-02 -3.658035e+00 1.773575e+00 -7.965465e-04 1.812474e-04 -3.186450e-04
N -2.025263e-02 -3.737697e+00 6.907649e+00 3.234306e-04 1.523827e-04 -5.293763e-04
N 1.855919e-02 -3.661502e+00 -3.312300e+00 3.402911e-04 7.033492e-05 1.097486e-04
N -1.599983e+00 -9.530752e-01 1.799513e+00 -3.255992e-04 -1.752913e-04 6.016316e-04
N -1.638325e+00 -9.670671e-01 6.828698e+00 2.110232e-05 3.231407e-04 -8.590489e-04
N -1.559156e+00 -9.739395e-01 -3.268178e+00 -1.167131e-04 -4.425784e-05 -1.288280e-04
