108
Energy=-1626826.692947 Lattice="9.539697 0.000000 0.000000 -4.770233 8.261318 0.000000 -0.024158 0.002988 15.412990" Stress="0.000000 -0.000000 -0.000005 -0.000000 0.000001 0.000000 -0.000005 0.000000 -0.000002" Properties=species:S:1:pos:R:3:forces:R:3
Al 1.567292 0.867637 2.435160 -0.000137 0.000262 0.000201
Al 1.550433 0.883018 7.546574 0.000042 0.000124 0.000109
Al 1.578150 0.869385 -2.723355 -0.000006 0.000036 0.000016
Al -0.019276 3.646100 2.427967 0.000413 0.000334 -0.000005
Al -0.014686 3.632675 7.513821 0.000007 0.000022 0.000001
Ga -0.009972 3.631195 -2.683357 -0.000015 0.000005 0.000033
Al 3.160591 -1.865613 2.406420 0.000029 0.000255 0.000264
Ga 3.145559 -1.868557 7.549491 -0.000011 -0.000005 -0.000010
Ga 3.168771 -1.850445 -2.697471 -0.000006 -0.000018 -0.000024
Al -4.802082 0.858834 2.395845 -0.000013 -0.000033 0.000043
Ga -4.818982 0.872124 7.584442 -0.000041 -0.000011 0.000026
Al -4.789509 0.862461 -2.714594 -0.000080 0.000113 -0.000196
Ga -6.412636 3.632339 2.439942 -0.000110 0.000032 0.000035
Al -6.408487 3.641142 7.536378 -0.000027 0.000157 -0.000128
Ga -6.393486 3.618107 -2.710512 -0.000034 -0.000029 0.000032
Al -3.223859 -1.879223 2.398848 -0.000277 -0.000422 -0.000218
Al -3.212730 -1.891267 7.552231 -0.000033 -0.000039 0.000031
Al -3.205442 -1.859129 -2.690317 -0.000009 -0.000014 0.000059
Ga -1.618494 0.873832 2.412806 0.000036 0.000041 -0.000001
Ga -1.599740 0.875646 7.545059 -0.000048 0.000017 0.000055
Al -1.614207 0.867590 -2.687425 -0.000019 0.000005 0.000021
Ga -3.194194 3.630573 2.427651 -0.000075 -0.000009 -0.000002
Ga -3.213869 3.648093 7.532459 -0.000038 0.000033 0.000034
Ga -3.189849 3.617453 -2.682364 -0.000030 -0.000007 0.000009
Ga -0.019633 -1.858120 2.426287 -0.000020 -0.000006 0.000004
Al -0.030757 -1.871907 7.540844 -0.000040 -0.000034 0.000055
Ga -0.017898 -1.845259 -2.697545 -0.000051 0.000008 -0.000002
Al -0.012363 1.808360 4.975212 -0.000003 0.000180 -0.000244
Ga 0.008380 1.790361 -5.278773 -0.000034 -0.000014 0.000026
Ga -0.020878 1.790173 -0.139566 -0.000026 0.000017 0.000006
Al 3.160820 -3.704700 4.963890 0.000131 0.000080 -0.000073
Ga 3.176645 -3.698418 -5.293541 -0.000038 -0.000013 0.000027
Al 3.168033 -3.699234 -0.111818 -0.000003 -0.000089 0.000003
Al 1.557728 -0.959243 4.983023 0.000362 0.000193 -0.000145
Al 1.585400 -0.942694 -5.303116 -0.000040 0.000015 0.000015
Al 1.577902 -0.953034 -0.129005 -0.000027 0.000034 -0.000012
Ga 3.134307 1.794635 4.986765 -0.000062 0.000009 -0.000008
Al 3.156976 1.779672 -5.292357 -0.000002 -0.000023 0.000024
Ga 3.158154 1.773758 -0.137098 -0.000037 0.000019 0.000041
Al 6.318858 -3.709667 4.992381 0.000009 -0.000366 0.000086
Ga 6.342932 -3.706477 -5.309134 -0.000058 0.000006 0.000045
Al 6.322335 -3.688418 -0.127620 -0.000013 0.000048 0.000145
Ga 4.735241 -0.974816 4.958700 -0.000143 0.000041 0.000023
Al 4.753071 -0.955748 -5.267948 -0.000011 0.000037 0.000013
Al 4.753662 -0.963624 -0.137703 0.000351 0.000168 0.000130
Ga -3.211956 1.803375 4.980263 -0.000072 -0.000014 0.000022
Ga -3.204491 1.785504 -5.257838 -0.000037 -0.000003 0.000027
Al -3.204117 1.777772 -0.154337 0.000069 -0.000015 0.000046
Al -0.031394 -3.698282 5.003323 -0.000055 -0.000074 0.000050
Ga -0.018937 -3.706010 -5.299541 -0.000027 0.000009 0.000013
Ga -0.019762 -3.703510 -0.137416 -0.000049 -0.000028 0.000032
Ga -1.616977 -0.977221 4.996581 -0.000034 0.000054 0.000087
Ga -1.608327 -0.966106 -5.283498 -0.000027 0.000011 0.000032
Al -1.631626 -0.958611 -0.151630 -0.000078 0.000001 -0.000005
N 1.518500 0.849067 4.350455 0.000107 -0.000582 -0.000129
N 1.615563 0.855390 -5.939709 -0.000035 -0.000016 -0.000109
N 1.570651 0.825491 -0.809618 0.000028 -0.000023 0.000017
N -0.024083 3.635870 4.362029 -0.000027 0.000035 -0.000040
N -0.013520 3.624808 -5.981807 0.000047 0.000009 -0.000031
N -0.023173 3.680437 -0.711630 0.000010 0.000011 -0.000058
N 3.103777 -1.895484 4.334928 -0.000275 0.000175 -0.000252
N 3.170203 -1.823471 -5.877803 0.000026 0.000002 -0.000053
N 3.158681 -1.871884 -0.702588 -0.000402 -0.000165 -0.000098
N -4.802926 0.876491 4.302201 0.000058 -0.000052 -0.000025
N -4.825465 0.850700 -5.852311 0.000045 -0.000010 -0.000045
N -4.756919 0.845993 -0.786437 -0.000067 0.000044 0.000104
N -6.394578 3.683271 4.419317 0.000019 0.000044 -0.000085
N -6.375443 3.581146 -5.949176 0.000002 -0.000007 0.000075
N -6.432656 3.649644 -0.734998 0.000061 -0.000025 -0.000049
N -3.207122 -1.928068 4.313495 0.000019 0.000255 0.000064
N -3.240120 -1.848817 -5.947642 0.000028 -0.000004 -0.000003
N -3.209581 -1.876188 -0.760816 0.000063 0.000012 -0.000051
N -1.576612 0.896089 4.388296 -0.000031 -0.000060 0.000030
N -1.598310 0.881386 -5.901614 0.000030 0.000008 -0.000036
N -1.649225 0.853083 -0.766787 0.000024 -0.000009 -0.000023
N -3.211573 3.683314 4.407620 0.000046 -0.000031 0.000027
N -3.190156 3.629365 -5.912230 0.000044 -0.000001 -0.000024
N -3.152548 3.609295 -0.704870 0.000024 -0.000032 0.000001
N 0.012202 -1.895656 4.401784 0.000069 0.000045 -0.000041
N 0.031300 -1.847840 -5.948062 0.000039 0.000015 -0.000034
N -0.017571 -1.818628 -0.718200 0.000139 0.000020 -0.000021
N 0.020164 1.821602 1.841628 0.000111 -0.000204 0.000017
N 0.017011 1.821887 6.898356 -0.000031 -0.000053 0.000260
N -0.018049 1.750774 -3.286217 0.000020 -0.000009 -0.000027
N 3.198738 -3.685720 1.806136 -0.000148 -0.000075 -0.000090
N 3.194888 -3.725199 6.882090 -0.000054 -0.000055 0.000090
N 3.167103 -3.706749 -3.326452 0.000023 0.000029 -0.000021
N 1.605837 -0.926971 1.786982 0.000080 -0.000184 0.000047
N 1.520006 -0.928299 6.908010 -0.000082 -0.000024 0.000033
N 1.573332 -0.911170 -3.384622 0.000025 -0.000040 -0.000016
N 3.146939 1.747723 1.843467 0.000033 -0.000029 -0.000055
N 3.106113 1.816592 6.965561 0.000069 -0.000105 0.000020
N 3.159747 1.746847 -3.356453 0.000085 -0.000027 0.000081
N 6.289691 -3.685827 1.786071 -0.000142 -0.000097 0.000098
N 6.326276 -3.703532 6.923441 -0.000034 0.000035 0.000012
N 6.338518 -3.656053 -3.329193 0.000015 0.000005 -0.000057
N 4.743517 -0.959511 1.792785 -0.000007 0.000022 0.000018
N 4.780015 -0.978099 6.931074 0.000027 0.000006 -0.000022
N 4.796486 -0.939445 -3.342638 0.000033 -0.000040 -0.000009
N -3.249187 1.770769 1.762866 -0.000040 0.000025 -0.000073
N -3.220621 1.789315 6.939403 0.000057 -0.000005 -0.000027
N -3.197428 1.747211 -3.278513 0.000013 -0.000003 -0.000031
N -0.031280 -3.711589 1.818425 0.000076 -0.000006 -0.000029
N -0.077833 -3.682578 6.923696 0.000036 -0.000061 -0.000017
N -0.017680 -3.706096 -3.321750 0.000026 0.000005 -0.000030
N -1.661152 -0.984322 1.764898 0.000184 0.000117 -0.000052
N -1.627523 -1.009662 6.972986 0.000059 0.000022 -0.000042
N -1.653571 -0.936922 -3.295208 0.000030 -0.000008 -0.000040
