108
Energy=-1.535276e+06 Lattice="9.527584e+00 0.000000e+00 0.000000e+00 -4.766028e+00 8.250238e+00 0.000000e+00 -3.855526e-03 1.031611e-02 1.538766e+01" Stress="-1.383824e-04 2.900056e-05 -1.976527e-05 2.862801e-05 -1.287707e-04 5.777944e-04 -2.162420e-05 5.646112e-04 -2.228063e-04" Properties=species:S:1:pos:R:3:forces:R:3 Config_type=AlGaN_super3_24_1_39.xyz
Al 1.554761e+00 8.826275e-01 2.392627e+00 -4.863504e-04 -6.109482e-05 -3.037959e-04
Al 1.552852e+00 8.781950e-01 7.541591e+00 -2.748736e-05 -1.108110e-04 2.190061e-04
Al 1.547147e+00 8.578336e-01 -2.689128e+00 -3.009130e-04 2.987563e-05 4.385160e-04
Al -2.163792e-02 3.610390e+00 2.408330e+00 -1.090472e-03 -5.928048e-05 4.251102e-04
Al -1.784245e-02 3.631307e+00 7.536060e+00 -4.602561e-04 -4.411091e-04 6.256502e-04
Al -3.427280e-02 3.622909e+00 -2.705165e+00 5.049087e-04 -1.648621e-04 2.673498e-04
Al 3.158470e+00 -1.861583e+00 2.385012e+00 6.715352e-04 2.593787e-04 4.994221e-04
Al 3.151267e+00 -1.867456e+00 7.555745e+00 -9.316628e-05 7.451093e-06 3.344166e-04
Al 3.138286e+00 -1.883470e+00 -2.697108e+00 5.262645e-04 1.235357e-03 8.771115e-05
Al -4.797215e+00 8.634188e-01 2.412207e+00 -1.080237e-04 1.985652e-04 -7.731287e-05
Ga -4.805591e+00 8.678509e-01 7.534010e+00 1.691124e-04 -1.214093e-04 7.292930e-05
Ga -4.794529e+00 8.659785e-01 -2.685095e+00 3.872460e-05 -2.308106e-04 -7.084548e-06
Al -6.378718e+00 3.623950e+00 2.425148e+00 6.250665e-05 2.780859e-04 -3.796956e-04
Ga -6.394299e+00 3.635459e+00 7.546955e+00 1.116428e-04 4.775921e-05 1.560713e-04
Ga -6.385184e+00 3.632347e+00 -2.712903e+00 -4.451497e-05 8.920728e-05 -1.025315e-04
Ga -3.210582e+00 -1.862047e+00 2.417059e+00 2.246475e-04 1.465377e-04 1.938775e-05
Ga -3.208010e+00 -1.880449e+00 7.530616e+00 4.588828e-05 2.459177e-04 4.576801e-04
Ga -3.192800e+00 -1.875568e+00 -2.698140e+00 -5.281600e-05 5.887599e-05 2.365490e-04
Al -1.587824e+00 8.809037e-01 2.409691e+00 2.232255e-04 2.458012e-04 2.544971e-04
Ga -1.591906e+00 8.823667e-01 7.539879e+00 3.360489e-04 -8.196011e-05 1.146358e-04
Al -1.584775e+00 8.685565e-01 -2.692586e+00 -1.125683e-05 -6.777770e-05 -7.677254e-05
Ga -3.197410e+00 3.635533e+00 2.399849e+00 1.773725e-04 3.583370e-04 8.768277e-05
Ga -3.192101e+00 3.649644e+00 7.558518e+00 2.182262e-04 1.615694e-04 1.978375e-04
Ga -3.181028e+00 3.648813e+00 -2.696591e+00 -1.984486e-04 -2.056285e-05 5.065275e-05
Ga -2.014476e-02 -1.864512e+00 2.401026e+00 1.212384e-04 3.631598e-05 2.977383e-04
Ga -1.554903e-02 -1.859540e+00 7.558585e+00 3.050551e-04 8.054743e-05 5.614760e-04
Al -1.188537e-02 -1.857081e+00 -2.706995e+00 3.187337e-04 -4.379217e-05 2.563524e-04
Al -1.965630e-02 1.797956e+00 4.964887e+00 2.618124e-04 1.041921e-04 -3.237414e-05
Ga -1.398726e-02 1.794353e+00 -5.259816e+00 -2.266811e-04 1.647674e-04 3.526953e-04
Al -2.878032e-02 1.786341e+00 -1.573557e-01 -1.104683e-04 2.818776e-04 3.878412e-04
Ga 3.175420e+00 -3.695994e+00 4.973883e+00 -1.971585e-04 8.676273e-05 1.448424e-04
Al 3.165985e+00 -3.694651e+00 -5.274055e+00 -4.159576e-04 2.496079e-06 -6.343935e-04
Al 3.164697e+00 -3.693586e+00 -1.437022e-01 -2.242443e-04 3.585802e-04 5.603938e-05
Ga 1.566964e+00 -9.520520e-01 4.969298e+00 -2.275192e-04 1.612189e-04 2.588528e-04
Al 1.564282e+00 -9.716445e-01 -5.260550e+00 -1.118506e-04 -2.140500e-04 5.942940e-05
Al 1.565087e+00 -9.657593e-01 -1.595184e-01 -3.585502e-04 -3.873525e-05 -7.329416e-04
Ga 3.136658e+00 1.801939e+00 4.948777e+00 1.884234e-04 1.190065e-04 4.110897e-04
Ga 3.134818e+00 1.791262e+00 -5.269003e+00 2.137092e-05 -6.435401e-06 6.373601e-05
Ga 3.139608e+00 1.787887e+00 -1.178668e-01 -6.604806e-06 -8.907261e-06 2.650002e-04
Al 6.327594e+00 -3.703130e+00 4.953540e+00 -4.297405e-05 -5.812542e-04 4.475390e-04
Al 6.323207e+00 -3.707034e+00 -5.271898e+00 -7.753463e-05 -4.252694e-05 2.322236e-04
Ga 6.317175e+00 -3.706820e+00 -1.281639e-01 6.632821e-05 1.116024e-04 -3.377168e-04
Al 4.740656e+00 -9.656558e-01 4.966715e+00 -2.617550e-04 1.960640e-04 3.574853e-04
Ga 4.735705e+00 -9.864379e-01 -5.266699e+00 -2.593070e-04 1.811963e-04 2.770858e-04
Al 4.725997e+00 -9.675786e-01 -1.398274e-01 3.438455e-04 -3.677008e-04 -1.483640e-04
Ga -3.192748e+00 1.784279e+00 4.948037e+00 5.678290e-05 2.162267e-04 2.703018e-04
Ga -3.187638e+00 1.796734e+00 -5.253335e+00 -1.177837e-04 1.069809e-04 8.591076e-05
Ga -3.178353e+00 1.786355e+00 -1.268295e-01 -1.578423e-04 -1.557434e-04 -1.985918e-04
Al -4.124871e-02 -3.694314e+00 4.970369e+00 1.517614e-04 1.141765e-04 5.108979e-04
Al -2.063366e-02 -3.686807e+00 -5.257507e+00 7.686977e-05 1.188672e-04 2.378269e-04
Al -1.964318e-02 -3.683412e+00 -1.506553e-01 6.380127e-05 2.462944e-04 3.248391e-04
Al -1.613203e+00 -9.550461e-01 4.959018e+00 -2.672345e-05 3.117228e-04 3.167562e-04
Al -1.594293e+00 -9.742424e-01 -5.249951e+00 -1.199067e-04 1.111793e-04 3.133845e-04
Al -1.593598e+00 -9.481012e-01 -1.547258e-01 -3.010195e-04 -9.339722e-04 6.785010e-05
N 1.514049e+00 8.967663e-01 4.303618e+00 -3.600065e-04 1.903848e-04 -2.034806e-06
N 1.557429e+00 8.199567e-01 -5.927404e+00 7.888735e-05 -1.027585e-04 -2.533366e-04
N 1.522648e+00 8.491397e-01 -7.668516e-01 1.835699e-04 1.659252e-04 -8.474165e-04
N 1.368099e-02 3.600762e+00 4.330226e+00 -7.983798e-05 -6.705976e-04 -6.552215e-04
N -2.126901e-02 3.666568e+00 -5.919888e+00 3.206876e-04 2.524218e-04 -1.447608e-04
N -6.742816e-02 3.603946e+00 -7.824846e-01 -4.465686e-05 -2.855097e-04 -1.170292e-04
N 3.191695e+00 -1.847966e+00 4.301981e+00 6.097571e-05 2.352956e-04 -1.094057e-03
N 3.109631e+00 -1.897512e+00 -5.910244e+00 -2.285343e-04 -2.680417e-04 -1.974865e-04
N 3.149867e+00 -1.877016e+00 -7.677221e-01 1.682723e-04 -1.647763e-04 -1.918622e-04
N -4.792480e+00 8.253717e-01 4.324910e+00 1.590400e-05 -3.419915e-04 -2.897991e-04
N -4.785994e+00 8.699527e-01 -5.886093e+00 1.634483e-04 -9.343329e-05 -9.677992e-05
N -4.788515e+00 8.332883e-01 -7.218097e-01 -1.986089e-05 7.489936e-05 1.922478e-06
N -6.374780e+00 3.682131e+00 4.339033e+00 -2.491136e-05 3.204569e-05 1.005728e-04
N -6.373933e+00 3.675907e+00 -5.853284e+00 -4.180343e-06 2.080386e-04 -2.528220e-05
N -6.339104e+00 3.651225e+00 -7.461205e-01 8.309233e-05 -8.319963e-05 1.429971e-04
N -3.201207e+00 -1.867505e+00 4.404755e+00 6.679295e-05 2.713800e-04 -9.544623e-05
N -3.149696e+00 -1.899305e+00 -5.862950e+00 2.638637e-04 -1.598265e-04 -2.660963e-04
N -3.196834e+00 -1.826989e+00 -7.174772e-01 1.432496e-04 2.224469e-04 1.586137e-04
N -1.560027e+00 8.555024e-01 4.332477e+00 5.797635e-04 -2.553727e-04 -1.325959e-04
N -1.604066e+00 8.225948e-01 -5.873038e+00 3.844948e-04 -3.726010e-04 -1.902805e-04
N -1.566810e+00 8.504051e-01 -7.804718e-01 2.139792e-04 5.649874e-04 -3.558196e-06
N -3.238502e+00 3.664822e+00 4.372709e+00 -8.626802e-05 -8.000233e-05 -1.375193e-04
N -3.199025e+00 3.676723e+00 -5.842104e+00 2.172934e-04 1.820793e-04 6.620920e-05
N -3.194658e+00 3.679052e+00 -7.125542e-01 4.548943e-05 -7.700709e-05 2.527367e-04
N -6.095536e-02 -1.890341e+00 4.378943e+00 -3.107923e-07 -2.122808e-04 -3.669108e-04
N -1.994734e-02 -1.872259e+00 -5.838310e+00 1.404894e-04 -8.058633e-05 -2.268781e-04
N -2.046182e-02 -1.869408e+00 -7.720639e-01 9.814645e-05 -2.284635e-04 -2.250045e-04
N -2.391082e-02 1.797270e+00 1.772043e+00 -3.214156e-04 -9.482514e-05 -1.115442e-04
N 1.837386e-02 1.824843e+00 6.898919e+00 1.216963e-04 -1.608678e-04 -4.898154e-04
N -1.790248e-02 1.795258e+00 -3.271612e+00 1.263960e-04 -1.362965e-04 -4.705266e-05
N 3.204309e+00 -3.679031e+00 1.777272e+00 4.949060e-04 -2.482429e-04 -1.558395e-04
N 3.201621e+00 -3.675106e+00 6.957608e+00 -7.309336e-04 1.952431e-04 3.403473e-05
N 3.203479e+00 -3.678383e+00 -3.347991e+00 -2.195827e-04 -4.273154e-04 -1.642458e-04
N 1.604316e+00 -9.326402e-01 1.760436e+00 5.488369e-04 1.123148e-04 1.007304e-03
N 1.608818e+00 -9.298501e-01 6.952494e+00 -1.659238e-04 6.732504e-05 -2.267247e-04
N 1.570431e+00 -9.583981e-01 -3.319589e+00 -1.368721e-05 1.380779e-05 -3.243599e-04
N 3.149527e+00 1.797364e+00 1.865887e+00 9.628069e-05 -1.081386e-04 -3.557953e-05
N 3.102406e+00 1.778190e+00 6.929913e+00 -2.526091e-04 -2.170782e-04 -2.483172e-04
N 3.102093e+00 1.763256e+00 -3.297391e+00 -2.618872e-04 -2.431509e-04 3.916621e-06
N 6.325023e+00 -3.753498e+00 1.843160e+00 8.220320e-04 2.909921e-04 3.477776e-04
N 6.283904e+00 -3.730340e+00 6.874225e+00 6.331272e-04 3.982736e-04 -8.443124e-04
N 6.279973e+00 -3.731402e+00 -3.356055e+00 -1.628985e-04 -1.071990e-04 -6.723782e-05
N 4.701766e+00 -9.320840e-01 1.768984e+00 -1.079597e-03 -8.543787e-04 4.046995e-04
N 4.693622e+00 -9.824864e-01 6.886768e+00 -2.737137e-04 -2.043939e-05 -3.453100e-04
N 4.697127e+00 -9.879158e-01 -3.300796e+00 -7.362611e-04 -3.020098e-04 2.431977e-04
N -3.192684e+00 1.742944e+00 1.850861e+00 -3.171064e-05 5.470307e-05 1.508457e-04
N -3.198836e+00 1.800567e+00 6.921872e+00 -4.218128e-05 -6.651395e-05 -3.035723e-04
N -3.153751e+00 1.770738e+00 -3.278773e+00 1.989851e-04 -7.621393e-06 -2.403861e-05
N -6.852837e-02 -3.724089e+00 1.756640e+00 -1.060715e-04 -8.760682e-05 -3.769244e-04
N -2.695110e-02 -3.698901e+00 6.881425e+00 -6.760041e-05 -9.720160e-06 -5.058098e-04
N -1.974450e-02 -3.655475e+00 -3.346156e+00 6.571070e-05 1.465414e-04 -1.616493e-04
N -1.610284e+00 -9.061529e-01 1.758077e+00 3.112460e-05 1.439251e-04 -2.766552e-04
N -1.609060e+00 -9.531098e-01 6.867747e+00 -2.235838e-04 1.361160e-04 -4.732941e-04
N -1.566288e+00 -9.341604e-01 -3.328628e+00 2.187438e-06 -1.112922e-04 -2.439136e-04
