108
Energy=-1443724.806210 Lattice="9.512520 0.000000 0.000000 -4.760006 8.236174 0.000000 0.004916 0.005811 15.358192" Stress="-0.000009 -0.000004 0.000001 -0.000004 -0.000007 0.000001 0.000001 0.000001 -0.000007" Properties=species:S:1:pos:R:3:forces:R:3
Al 1.562856 0.895310 2.429044 0.000209 0.000972 0.000074
Al 1.544818 0.883627 7.559904 0.001413 0.001148 -0.000205
Al 1.551384 0.881473 -2.755114 -0.001011 -0.000841 0.000319
Al -0.017713 3.633093 2.415221 0.000463 -0.004612 -0.002344
Al -0.030210 3.596162 7.519650 -0.001963 0.000717 -0.000122
Al -0.020314 3.596746 -2.701190 0.001981 0.000553 0.002751
Ga 3.171397 -1.875987 2.420074 -0.000526 0.000293 0.000106
Ga 3.151808 -1.866012 7.528400 0.000754 0.000167 -0.000470
Ga 3.143955 -1.870644 -2.706400 -0.000282 0.000167 0.000451
Al -4.780820 0.874695 2.393624 -0.000908 0.003209 0.002400
Al -4.777317 0.882222 7.554457 0.000502 -0.001239 -0.001033
Ga -4.782244 0.884139 -2.713811 0.000471 -0.000204 -0.000156
Al -6.369328 3.632505 2.417619 -0.000307 -0.004153 0.000402
Ga -6.345466 3.621530 7.538696 0.000207 -0.000076 -0.000607
Al -6.373236 3.618446 -2.720805 -0.000831 -0.000863 -0.000268
Al -3.184515 -1.860958 2.376031 -0.004328 -0.002635 0.003296
Ga -3.193913 -1.854968 7.541101 -0.000397 0.000589 0.000206
Ga -3.184511 -1.877081 -2.688395 -0.000488 -0.000279 0.000470
Ga -1.613377 0.883396 2.409882 0.000958 0.000878 0.000466
Al -1.591373 0.900566 7.536273 -0.001446 -0.000527 -0.000045
Al -1.598633 0.875721 -2.707107 -0.001718 0.003411 -0.001793
Al -3.191829 3.616990 2.408778 0.000111 -0.001229 0.000727
Al -3.186866 3.620233 7.556862 -0.003987 0.000295 -0.008887
Ga -3.199008 3.610592 -2.711763 0.000270 -0.000182 0.000277
Ga -0.031523 -1.875335 2.417475 0.000938 0.000138 0.000164
Al -0.009370 -1.871198 7.546157 -0.000521 -0.000628 -0.001012
Al -0.022985 -1.858973 -2.720336 0.000148 -0.001408 -0.000310
Al -0.018674 1.804227 4.982797 -0.001211 -0.000473 -0.000439
Al -0.032062 1.777674 -5.263462 0.001539 0.002742 0.000162
Ga -0.031598 1.795585 -0.164380 0.000067 0.000517 0.001000
Al 3.151803 -3.711988 4.975123 -0.001285 -0.000493 0.000675
Ga 3.146006 -3.713655 -5.277939 0.001169 0.000387 0.000941
Al 3.166647 -3.710420 -0.134773 -0.000648 -0.000281 -0.002507
Ga 1.568159 -0.949408 4.994616 -0.000763 0.000379 -0.000100
Al 1.561753 -0.956374 -5.282687 -0.001904 0.002315 0.002808
Ga 1.566111 -0.954542 -0.154658 -0.000410 0.000469 0.000642
Ga 3.148618 1.784599 4.974541 0.000512 -0.000415 -0.000355
Al 3.142813 1.773668 -5.271832 -0.000215 0.001296 -0.000973
Ga 3.143442 1.790832 -0.138822 -0.000314 0.000176 0.001009
Ga 6.308972 -3.697743 4.953130 0.000444 0.000532 -0.000161
Ga 6.314687 -3.718806 -5.257869 0.000104 0.000137 0.000713
Al 6.313687 -3.700481 -0.140580 -0.000676 0.001678 -0.000172
Al 4.742444 -0.950052 4.958018 0.000940 0.000377 0.000789
Al 4.722546 -0.936208 -5.267157 0.000212 -0.000155 0.000740
Al 4.749719 -0.957498 -0.132797 -0.000030 -0.000547 0.000034
Ga -3.201733 1.805658 4.985707 -0.000042 0.000376 0.000366
Al -3.208529 1.787407 -5.295840 0.001537 -0.001013 0.000556
Al -3.193663 1.785890 -0.136370 0.000519 -0.000448 0.000487
Al -0.004011 -3.701769 4.972254 0.000674 -0.000521 -0.000207
Al -0.015555 -3.714907 -5.269392 -0.000718 0.005921 0.003330
Ga -0.028460 -3.703837 -0.153065 0.000438 0.000187 0.000097
Ga -1.609095 -0.952679 4.995082 -0.000385 0.000062 0.000307
Ga -1.596173 -0.935964 -5.268463 0.000224 -0.000616 0.000333
Al -1.622937 -0.948336 -0.165119 0.000614 -0.001097 -0.000699
N 1.516327 0.902882 4.336500 0.000617 -0.000321 -0.000531
N 1.549049 0.873784 -5.870717 0.000540 0.000479 0.000027
N 1.562039 0.876314 -0.845746 0.000338 -0.000289 -0.000455
N -0.068199 3.595928 4.332682 -0.000044 0.000859 0.000260
N -0.025224 3.566506 -5.931384 -0.000488 -0.002041 0.000570
N -0.021662 3.665792 -0.776997 -0.000164 -0.000009 -0.001457
N 3.194617 -1.895041 4.406111 -0.000304 -0.000883 -0.000559
N 3.148559 -1.827300 -5.850261 0.000981 -0.000723 -0.000869
N 3.194771 -1.894546 -0.722443 0.000163 -0.000332 0.000598
N -4.775179 0.832913 4.314249 -0.000348 0.000250 -0.002043
N -4.789325 0.871191 -5.881716 0.000311 0.000249 -0.000337
N -4.742755 0.853143 -0.732270 0.000274 0.000148 0.000140
N -6.322311 3.644844 4.337422 -0.000013 0.000929 -0.001596
N -6.322487 3.598467 -5.846808 -0.000416 -0.002376 0.000268
N -6.411598 3.639249 -0.802246 0.000285 0.000040 -0.000305
N -3.224222 -1.841865 4.307294 -0.000177 0.000350 -0.001728
N -3.235754 -1.848611 -5.850733 -0.000132 0.000489 -0.000375
N -3.195842 -1.873656 -0.706587 -0.000077 -0.000572 0.000558
N -1.572945 0.904074 4.382987 0.000983 -0.000093 0.000058
N -1.606861 0.932488 -5.904362 -0.001220 -0.000742 -0.001191
N -1.657094 0.858599 -0.787750 -0.000085 0.000017 0.000978
N -3.189681 3.669596 4.334399 -0.000038 0.000162 -0.001147
N -3.240842 3.600491 -5.905138 -0.000450 -0.000678 0.003305
N -3.155926 3.593542 -0.734572 0.000932 0.000496 0.000940
N -0.022990 -1.910150 4.382224 0.000267 -0.000101 -0.000575
N 0.017888 -1.892942 -5.897013 -0.000343 -0.005147 0.000395
N -0.060127 -1.848171 -0.804393 -0.000594 0.000556 0.000235
N 0.018984 1.811452 1.811626 -0.000333 0.003048 0.000480
N -0.013602 1.789635 6.906193 -0.000192 0.000530 0.000251
N -0.033286 1.788110 -3.333178 0.000193 0.000709 0.000192
N 3.156271 -3.748943 1.778746 -0.000659 -0.000099 0.001207
N 3.143333 -3.750424 6.902881 0.003217 -0.000622 0.000597
N 3.194823 -3.732727 -3.310088 -0.000720 0.000242 -0.001086
N 1.568279 -0.903557 1.823435 -0.000293 -0.000293 -0.000780
N 1.524851 -0.919812 6.968313 0.000038 -0.000090 -0.000324
N 1.522620 -0.938619 -3.353038 0.000449 0.000461 -0.000983
N 3.137136 1.796606 1.850708 0.001934 0.000794 -0.000351
N 3.147137 1.742696 6.957637 -0.001149 -0.000877 0.000830
N 3.108064 1.809774 -3.354383 0.000354 0.001107 0.000090
N 6.323489 -3.697448 1.797759 -0.000244 -0.000182 0.000196
N 6.282209 -3.721102 6.929166 0.000415 0.000040 -0.000308
N 6.313981 -3.748313 -3.286578 -0.000688 -0.000943 -0.000085
N 4.774115 -0.924270 1.778343 0.000738 -0.001738 -0.000965
N 4.740856 -0.898382 6.871582 -0.000410 0.000625 0.000359
N 4.736920 -0.955475 -3.368077 -0.000312 0.000227 0.000028
N -3.233905 1.812013 1.783772 -0.000233 0.001565 -0.001022
N -3.199535 1.793435 6.975607 0.000938 0.000856 0.001582
N -3.157060 1.764731 -3.381291 0.001267 -0.000727 0.000277
N -0.018729 -3.747107 1.821201 -0.000385 0.000228 -0.000310
N 0.026147 -3.673471 6.886224 0.001990 -0.000660 0.004236
N -0.061304 -3.676139 -3.335590 0.000382 0.000069 -0.002138
N -1.642236 -0.973593 1.749747 0.002230 0.001921 -0.001313
N -1.561868 -0.925041 6.972978 0.000423 0.000020 0.000279
N -1.569300 -0.923126 -3.290219 0.000147 -0.002079 -0.000338
