108
Energy=-2.038801e+06 Lattice="9.482558e+00 0.000000e+00 0.000000e+00 -4.742612e+00 8.209950e+00 0.000000e+00 -1.693566e-03 2.248685e-04 1.527857e+01" Stress="-6.009904e-02 6.064608e-03 -1.804910e-04 6.063393e-03 -5.323026e-02 -2.631951e-04 -1.754780e-04 -2.480627e-04 -5.592686e-02" Properties=species:S:1:pos:R:3:forces:R:3 Config_type=AlGaN_super3_35_0_1.xyz
Al 1.563634e+00 9.015506e-01 2.475376e+00 -1.922684e-03 -1.343657e-02 -1.040814e-02
Al 1.563949e+00 9.024955e-01 7.500868e+00 -1.229811e-03 -1.371027e-02 -3.297664e-03
Ga 1.565798e+00 9.012207e-01 -2.752745e+00 -1.336161e-03 -1.813002e-02 -5.394010e-03
Al -2.029059e-03 3.613712e+00 2.480052e+00 -3.575468e-03 -2.192436e-03 -9.295634e-03
Al -1.788591e-03 3.613747e+00 7.500150e+00 -2.737609e-03 -1.058504e-03 -2.693742e-03
Ga 1.209279e-05 3.613750e+00 -2.754409e+00 -2.702162e-03 -1.156815e-03 -1.926655e-03
Ga 3.173693e+00 -1.883387e+00 2.474526e+00 -3.298135e-03 1.214794e-03 -1.004216e-02
Ga 3.174614e+00 -1.884058e+00 7.500545e+00 -2.933324e-03 1.195686e-03 -2.764726e-03
Al 3.175501e+00 -1.883806e+00 -2.753133e+00 -3.299942e-03 2.686561e-03 -3.711458e-03
Al -4.787525e+00 9.022632e-01 2.469400e+00 1.187220e-03 -1.251459e-02 -7.988972e-03
Ga -4.787695e+00 9.023048e-01 7.501713e+00 1.488336e-04 -1.633204e-02 -2.764509e-03
Ga -4.785657e+00 9.021330e-01 -2.749179e+00 5.643539e-04 -1.624491e-02 -4.064768e-03
Ga -6.353331e+00 3.614038e+00 2.468983e+00 -4.539552e-04 -4.747591e-04 -6.793480e-03
Al -6.353594e+00 3.613813e+00 7.500107e+00 -4.555499e-04 3.220919e-04 -1.131437e-03
Al -6.351436e+00 3.614014e+00 -2.749920e+00 1.359116e-04 -5.079372e-05 -1.341600e-03
Ga -3.176637e+00 -1.884176e+00 2.468386e+00 -3.254265e-04 2.807286e-03 -8.187148e-03
Al -3.176695e+00 -1.884236e+00 7.501036e+00 -2.005424e-04 2.349225e-03 -1.223463e-03
Ga -3.174652e+00 -1.884353e+00 -2.749004e+00 -2.602064e-04 3.360190e-03 -1.733169e-03
Ga -1.655995e+00 9.021023e-01 2.475059e+00 1.646234e-02 -8.339623e-03 -1.377750e-02
Ga -1.655459e+00 9.025517e-01 7.501023e+00 1.617462e-02 -9.127757e-03 -7.168516e-03
Al -1.653926e+00 9.017395e-01 -2.751818e+00 1.328779e-02 -8.178983e-03 -4.537426e-03
Ga -3.222345e+00 3.614271e+00 2.474941e+00 1.519467e-02 7.736970e-03 -1.025529e-02
Ga -3.221806e+00 3.614314e+00 7.500209e+00 1.454102e-02 8.052113e-03 -4.336661e-03
Ga -3.220508e+00 3.614127e+00 -2.751272e+00 1.399178e-02 7.625284e-03 -3.621865e-03
Al -4.489055e-02 -1.883705e+00 2.469798e+00 1.214435e-02 8.180188e-03 -8.466746e-03
Ga -4.534202e-02 -1.883755e+00 7.500549e+00 1.395379e-02 1.017073e-02 -5.209415e-03
Al -4.311910e-02 -1.883900e+00 -2.749975e+00 1.193322e-02 8.130451e-03 -4.081886e-03
Ga -1.889424e-03 1.805733e+00 4.988049e+00 -1.451096e-02 -1.028618e-02 -5.870531e-03
Ga -1.520692e-04 1.804860e+00 -5.265806e+00 -1.349436e-02 -1.048668e-02 -5.458953e-03
Al -1.312819e-03 1.805963e+00 -2.513976e-01 -1.163792e-02 -8.140144e-03 3.217170e-02
Al 3.174152e+00 -3.692090e+00 4.987902e+00 -1.212618e-02 -5.364166e-03 -3.678880e-03
Ga 3.175996e+00 -3.691767e+00 -5.265320e+00 -1.454077e-02 -7.108570e-03 -3.925305e-03
Al 3.176160e+00 -3.693833e+00 -2.515548e-01 -1.171078e-02 -5.148381e-03 3.285259e-02
Ga 1.608255e+00 -9.811841e-01 4.987082e+00 -1.580826e-02 8.256850e-03 -7.732902e-03
Al 1.610533e+00 -9.810539e-01 -5.264895e+00 -1.306687e-02 8.152586e-03 -4.202915e-03
Ga 1.610145e+00 -9.817202e-01 -2.335409e-01 -1.548767e-02 9.101468e-03 3.346944e-02
Ga 3.129853e+00 1.806208e+00 4.986133e+00 4.774847e-04 -3.039860e-03 -1.729321e-03
Al 3.131370e+00 1.805423e+00 -5.265090e+00 1.168143e-04 -3.217184e-03 -2.462607e-03
Ga 3.129833e+00 1.805770e+00 -2.316480e-01 7.234109e-05 -3.579455e-03 3.927527e-02
Ga 6.306553e+00 -3.691536e+00 4.987441e+00 1.001788e-04 -5.450907e-04 4.871159e-05
Ga 6.308236e+00 -3.692392e+00 -5.265565e+00 2.713527e-04 1.818930e-04 -1.315831e-03
Ga 6.306185e+00 -3.693755e+00 -2.324553e-01 -3.374461e-04 -6.410167e-04 4.095633e-02
Ga 4.740493e+00 -9.805674e-01 4.986671e+00 -1.278576e-03 1.643419e-02 -3.536734e-03
Al 4.741042e+00 -9.804252e-01 -5.264288e+00 -1.339625e-03 1.282227e-02 -2.760381e-03
Ga 4.740619e+00 -9.823344e-01 -2.309544e-01 -1.295782e-03 1.638414e-02 3.666631e-02
Ga -3.222069e+00 1.806411e+00 4.987006e+00 2.805226e-03 -1.277899e-03 -2.980030e-03
Ga -3.219866e+00 1.805646e+00 -5.263964e+00 2.120791e-03 -1.854336e-03 -2.023052e-03
Ga -3.217149e+00 1.806883e+00 -2.332831e-01 3.103783e-03 -2.214003e-03 3.868956e-02
Al -4.496084e-02 -3.691667e+00 4.985902e+00 3.154932e-03 1.351504e-03 -1.972834e-03
Ga -4.321564e-02 -3.691891e+00 -5.264276e+00 2.492982e-03 1.072260e-03 -1.316294e-03
Ga -4.182609e-02 -3.691781e+00 -2.318832e-01 2.717330e-03 1.239126e-03 3.903344e-02
Ga -1.610966e+00 -9.811573e-01 4.986500e+00 2.628759e-03 1.750470e-02 -4.689419e-03
Ga -1.608683e+00 -9.802584e-01 -5.263871e+00 1.420143e-03 1.705404e-02 -4.623273e-03
Ga -1.607737e+00 -9.793761e-01 -2.313861e-01 1.989721e-03 1.766792e-02 3.573901e-02
N 1.564274e+00 9.017400e-01 4.390018e+00 -1.092476e-03 -1.720469e-02 -1.644031e-02
N 1.566682e+00 9.009472e-01 -5.861465e+00 1.738991e-02 -2.347578e-02 -4.143490e-03
N 1.564459e+00 9.018856e-01 -8.355579e-01 -1.875383e-02 -6.766124e-03 1.507153e-02
N -2.810732e-03 3.614988e+00 4.392855e+00 -1.991150e-02 1.097036e-02 -1.251289e-02
N -7.058748e-04 3.613596e+00 -5.862798e+00 -2.745557e-03 -2.353024e-04 -2.136335e-02
N -1.310355e-03 3.612953e+00 -8.399303e-01 -1.969169e-02 -1.029525e-02 1.908957e-02
N 3.174262e+00 -1.884786e+00 4.392008e+00 -2.423046e-03 -1.892609e-02 8.592810e-03
N 3.175732e+00 -1.883055e+00 -5.860328e+00 -2.610730e-03 2.220155e-02 1.571245e-02
N 3.175439e+00 -1.885601e+00 -8.371493e-01 -2.534831e-03 -1.892645e-02 -1.112842e-02
N -4.787382e+00 9.022544e-01 4.387657e+00 5.553288e-04 -1.712124e-02 -1.762890e-02
N -4.786812e+00 9.013088e-01 -5.859260e+00 -1.710026e-02 -2.364329e-02 1.835968e-02
N -4.785392e+00 9.021415e-01 -8.290954e-01 6.326564e-04 -1.658245e-02 7.389218e-03
N -6.352037e+00 3.614826e+00 4.388990e+00 1.762440e-02 1.131559e-02 9.431408e-03
N -6.351175e+00 3.612448e+00 -5.862481e+00 -2.915351e-04 -2.108958e-02 -1.345038e-02
N -6.351547e+00 3.613862e+00 -8.309815e-01 -3.552250e-04 5.192004e-04 -1.826899e-02
N -3.176708e+00 -1.884142e+00 4.388372e+00 -1.228137e-03 2.095125e-03 6.299829e-04
N -3.175999e+00 -1.883426e+00 -5.861468e+00 -1.930665e-02 1.260162e-02 -1.382389e-02
N -3.174822e+00 -1.884637e+00 -8.288811e-01 -7.914095e-04 2.074870e-03 3.663904e-03
N -1.656358e+00 9.021018e-01 4.391775e+00 1.588798e-02 -9.570069e-03 9.391188e-03
N -1.653855e+00 9.022919e-01 -5.860791e+00 1.612067e-02 -8.859005e-03 9.192157e-03
N -1.652687e+00 9.029605e-01 -8.368619e-01 3.030458e-02 -7.199154e-04 -5.047852e-03
N -3.222496e+00 3.615510e+00 4.392367e+00 1.178849e-02 2.687834e-02 1.875344e-02
N -3.220003e+00 3.614291e+00 -5.860754e+00 1.533564e-02 7.938428e-03 4.832560e-03
N -3.218859e+00 3.614540e+00 -8.346764e-01 2.955289e-02 1.615463e-02 1.395953e-02
N -4.519834e-02 -1.885310e+00 4.388232e+00 1.361676e-02 -1.139965e-02 -1.036838e-02
N -4.198485e-02 -1.883335e+00 -5.860414e+00 2.973778e-02 1.793518e-02 1.112484e-02
N -4.296545e-02 -1.884002e+00 -8.317851e-01 1.376724e-02 9.255146e-03 -1.581956e-02
N -1.209158e-03 1.806784e+00 1.890695e+00 4.157812e-03 9.796318e-04 -3.451451e-02
N -6.393393e-04 1.806189e+00 6.905730e+00 3.597305e-03 6.694437e-04 1.947898e-02
N -1.465479e-03 1.804375e+00 -3.348764e+00 -2.973230e-02 -1.752411e-02 1.121765e-02
N 3.176032e+00 -3.693986e+00 1.889550e+00 3.470469e-03 -1.844250e-02 -4.054431e-02
N 3.175554e+00 -3.693002e+00 6.903575e+00 3.217062e-03 -1.857513e-02 -9.882413e-03
N 3.176027e+00 -3.690894e+00 -3.348456e+00 -1.477823e-02 1.268319e-02 1.335356e-02
N 1.606432e+00 -9.799911e-01 1.874974e+00 -3.115423e-02 1.816246e-02 -1.708880e-02
N 1.608285e+00 -9.792327e-01 6.904593e+00 -1.635899e-02 2.665615e-02 1.545985e-02
N 1.610197e+00 -9.825392e-01 -3.348705e+00 -1.294933e-02 -9.959583e-03 -2.585690e-04
N 3.128650e+00 1.804009e+00 1.873360e+00 1.294699e-03 -2.283183e-02 -2.171063e-02
N 3.128469e+00 1.806613e+00 6.904817e+00 -1.676038e-02 8.576040e-03 1.615275e-02
N 3.131551e+00 1.807292e+00 -3.348224e+00 1.016685e-03 1.951943e-02 -1.425970e-02
N 6.303094e+00 -3.693898e+00 1.873484e+00 -1.741520e-02 -1.057858e-02 -2.884855e-02
N 6.306350e+00 -3.691860e+00 6.905821e+00 6.604444e-04 -4.032753e-05 2.352008e-02
N 6.309664e+00 -3.692788e+00 -3.347426e+00 1.865372e-02 -1.077438e-02 8.448509e-03
N 4.739333e+00 -9.790369e-01 1.871758e+00 -7.689847e-04 3.416307e-02 -2.636020e-02
N 4.741608e+00 -9.809480e-01 6.904733e+00 1.818895e-02 7.026449e-03 1.263023e-02
N 4.740703e+00 -9.812838e-01 -3.347812e+00 -1.837175e-02 5.576599e-03 -1.007268e-02
N -3.221862e+00 1.806082e+00 1.874028e+00 -1.536693e-02 -1.224311e-02 -2.988142e-02
N -3.221694e+00 1.806096e+00 6.904617e+00 2.791800e-03 -2.122024e-03 4.219980e-04
N -3.218620e+00 1.805025e+00 -3.346520e+00 2.115883e-02 -1.162532e-02 8.095629e-03
N -4.390802e-02 -3.690012e+00 1.871516e+00 1.882779e-03 2.105851e-02 -2.871560e-02
N -4.610638e-02 -3.692365e+00 6.902804e+00 -1.595455e-02 -1.065586e-02 -1.418608e-02
N -4.465564e-02 -3.691372e+00 -3.345929e+00 -1.613410e-02 1.055829e-02 1.588110e-02
N -1.608661e+00 -9.806523e-01 1.871566e+00 1.882535e-02 6.767570e-03 -2.547828e-02
N -1.612008e+00 -9.812377e-01 6.904693e+00 -1.717817e-02 6.954525e-03 1.178461e-02
N -1.607852e+00 -9.798485e-01 -3.345654e+00 1.870421e-02 2.369272e-02 1.775384e-02
