108
Energy=-6.655417e+05 Lattice="9.423217e+00 0.000000e+00 0.000000e+00 -4.716282e+00 8.159405e+00 0.000000e+00 -1.132821e-02 -2.428553e-03 1.512745e+01" Stress="9.702580e-07 -2.901412e-04 -5.415217e-04 -2.886220e-04 -2.943603e-04 -7.235495e-05 -5.423987e-04 -7.521985e-05 -7.551169e-06" Properties=species:S:1:pos:R:3:forces:R:3 Config_type=AlGaN_super3_5_0_14.xyz
Al 1.544880e+00 8.688180e-01 2.376703e+00 3.132171e-04 -2.594453e-05 -5.203841e-06
Al 1.536385e+00 8.630856e-01 7.398753e+00 1.874350e-04 -5.220750e-05 1.118386e-04
Al 1.546490e+00 8.706741e-01 -2.661253e+00 1.051823e-04 -5.119176e-05 5.051041e-05
Al -2.795288e-02 3.577223e+00 2.400265e+00 1.557335e-04 2.983685e-04 2.141706e-04
Al -2.952756e-02 3.585273e+00 7.412237e+00 9.421501e-06 -5.135069e-05 -6.482103e-05
Al -1.943958e-02 3.583496e+00 -2.698218e+00 -1.126530e-04 -1.671983e-04 -1.685024e-04
Al 3.122505e+00 -1.846802e+00 2.391009e+00 -9.866409e-05 -3.079113e-05 7.910911e-05
Al 3.116038e+00 -1.854369e+00 7.409217e+00 -6.223722e-06 1.045169e-05 -7.319469e-05
Al 3.132302e+00 -1.845207e+00 -2.685907e+00 3.677685e-05 -1.473900e-04 3.669432e-05
Al -4.743559e+00 8.638401e-01 2.363387e+00 2.527313e-04 1.494479e-04 -1.262834e-04
Al -4.743491e+00 8.606216e-01 7.416873e+00 1.636982e-04 4.586981e-05 -9.224754e-06
Al -4.726218e+00 8.646894e-01 -2.663614e+00 1.388052e-04 -1.548923e-04 -3.268320e-05
Al -6.302507e+00 3.580385e+00 2.390737e+00 -2.073819e-05 2.762174e-04 -7.642031e-05
Al -6.313426e+00 3.590738e+00 7.398553e+00 -6.022947e-05 4.710832e-05 -1.287473e-04
Al -6.302850e+00 3.587272e+00 -2.670948e+00 -3.059714e-04 5.509847e-05 -1.407989e-04
Al -3.165039e+00 -1.844344e+00 2.391753e+00 1.833169e-05 1.622249e-04 6.250429e-05
Al -3.167810e+00 -1.853898e+00 7.408193e+00 6.587353e-05 2.315427e-05 3.744956e-05
Al -3.167002e+00 -1.846419e+00 -2.684286e+00 1.055801e-04 5.227594e-05 -1.308801e-04
Al -1.593486e+00 8.659357e-01 2.365928e+00 1.945511e-04 5.372427e-05 1.461134e-04
Al -1.595345e+00 8.653744e-01 7.423382e+00 3.203505e-04 -1.821640e-04 1.143834e-05
Al -1.596631e+00 8.774544e-01 -2.675174e+00 2.428598e-04 -2.505063e-04 2.984687e-04
Al -3.172432e+00 3.587233e+00 2.380505e+00 4.861071e-05 4.133430e-04 1.251730e-04
Al -3.170960e+00 3.593938e+00 7.422685e+00 2.382128e-05 -1.338385e-04 -3.175401e-04
Al -3.164496e+00 3.580072e+00 -2.681351e+00 1.363017e-04 -3.591031e-04 -1.219042e-03
Al -2.376945e-02 -1.853023e+00 2.373141e+00 1.759618e-04 -3.060897e-04 -1.017955e-04
Al -2.582449e-02 -1.851640e+00 7.411926e+00 9.719486e-05 -1.385224e-04 -8.516178e-05
Ga -1.845401e-02 -1.850928e+00 -2.669033e+00 3.518229e-04 8.107884e-05 2.228991e-04
Al -2.153420e-02 1.770589e+00 4.898235e+00 -1.901848e-04 1.248520e-04 8.188874e-06
Al -2.621211e-02 1.771496e+00 -5.198532e+00 -9.341288e-05 1.755717e-05 6.792408e-05
Al -2.423870e-02 1.761854e+00 -1.497506e-01 -2.049344e-04 -8.505796e-04 6.373916e-04
Al 3.120715e+00 -3.659950e+00 4.899959e+00 -9.425227e-05 -5.827112e-05 -2.287127e-04
Al 3.125122e+00 -3.663401e+00 -5.197733e+00 -9.770768e-05 1.767323e-04 -2.821414e-04
Ga 3.115869e+00 -3.664609e+00 -1.476852e-01 -3.289623e-04 -1.975375e-05 1.873182e-04
Al 1.545447e+00 -9.486010e-01 4.890853e+00 -3.467305e-04 1.905243e-04 -4.243525e-05
Al 1.554326e+00 -9.495049e-01 -5.207561e+00 -2.329882e-04 2.421660e-04 8.931717e-05
Al 1.553639e+00 -9.365535e-01 -1.335622e-01 -2.870789e-04 -4.495249e-05 1.526366e-04
Al 3.104732e+00 1.771120e+00 4.897630e+00 1.031562e-04 -9.348015e-05 -1.929906e-04
Ga 3.117816e+00 1.775090e+00 -5.190964e+00 -9.578379e-06 -1.400425e-04 2.812012e-04
Al 3.119230e+00 1.768634e+00 -1.533495e-01 1.093471e-04 -3.704285e-04 -8.519714e-05
Al 6.256862e+00 -3.666230e+00 4.893160e+00 6.990102e-05 -6.868431e-06 -2.330815e-04
Al 6.264515e+00 -3.655774e+00 -5.200087e+00 6.363110e-05 -4.988257e-05 -1.388658e-04
Ga 6.269483e+00 -3.664103e+00 -1.379517e-01 4.297881e-05 8.530384e-05 -4.885062e-05
Al 4.682156e+00 -9.521992e-01 4.899127e+00 -3.468657e-05 7.302780e-05 -4.529010e-05
Al 4.699759e+00 -9.528062e-01 -5.198631e+00 -1.973087e-04 3.490699e-05 1.699536e-04
Al 4.691444e+00 -9.345575e-01 -1.485487e-01 -1.667858e-04 1.072957e-04 2.593020e-04
Ga -3.170796e+00 1.772651e+00 4.898616e+00 4.537474e-05 1.050054e-04 -3.567340e-05
Al -3.153418e+00 1.775679e+00 -5.196710e+00 8.130766e-06 7.624394e-07 -3.361639e-04
Al -3.169289e+00 1.769585e+00 -1.470739e-01 3.588442e-05 -1.083550e-03 -5.139936e-04
Al -2.807103e-02 -3.656602e+00 4.898062e+00 2.572323e-04 -7.668338e-05 -2.528889e-04
Al -1.342838e-02 -3.659301e+00 -5.207742e+00 1.264984e-04 -7.081569e-07 -3.785092e-04
Al -2.013257e-02 -3.672721e+00 -1.368645e-01 7.355387e-05 1.691477e-04 1.198703e-03
Al -1.590015e+00 -9.517953e-01 4.896589e+00 -1.578428e-04 1.383987e-04 3.395518e-05
Al -1.590314e+00 -9.417639e-01 -5.206785e+00 -1.680633e-04 9.674828e-05 8.160166e-05
Al -1.596376e+00 -9.355916e-01 -1.369282e-01 7.212404e-04 -3.224362e-05 -9.094438e-04
N 1.541717e+00 8.668805e-01 4.296593e+00 2.282944e-04 -1.074574e-04 -8.859860e-06
N 1.508681e+00 8.456255e-01 -5.821046e+00 3.447560e-04 1.458042e-04 -1.396148e-04
N 1.543161e+00 8.648836e-01 -7.427206e-01 2.622482e-04 -3.503677e-05 6.314990e-05
N -3.038745e-02 3.581720e+00 4.312008e+00 1.236938e-04 -6.895370e-05 9.867749e-05
N -1.891766e-02 3.587885e+00 -5.791724e+00 -7.282587e-05 -1.110923e-04 1.166991e-04
N -2.222560e-02 3.538235e+00 -7.916296e-01 1.926551e-04 9.254406e-04 -3.327652e-05
N 3.117968e+00 -1.851620e+00 4.304277e+00 6.918685e-06 1.013232e-04 1.961760e-04
N 3.127074e+00 -1.852386e+00 -5.799570e+00 6.806687e-05 -5.549252e-05 -3.982962e-05
N 3.120342e+00 -1.803881e+00 -7.706472e-01 1.933294e-04 9.623914e-05 6.708266e-05
N -4.783476e+00 8.415355e-01 4.275140e+00 2.814564e-04 1.758634e-04 2.034467e-05
N -4.693139e+00 8.436336e-01 -5.805092e+00 -3.119527e-05 9.999926e-05 5.997076e-05
N -4.733275e+00 8.660278e-01 -7.439717e-01 3.105641e-04 1.470420e-04 1.181659e-04
N -6.307182e+00 3.583463e+00 4.307301e+00 -1.678255e-04 6.751457e-05 1.849224e-04
N -6.304418e+00 3.635294e+00 -5.820200e+00 -1.658770e-04 -1.500775e-04 4.746318e-05
N -6.265473e+00 3.567658e+00 -7.622791e-01 -1.575762e-04 1.540697e-04 8.018560e-05
N -3.166073e+00 -1.848195e+00 4.306469e+00 3.346512e-05 2.846152e-07 1.048721e-04
N -3.158169e+00 -1.851815e+00 -5.801897e+00 3.099490e-05 5.043756e-05 7.885855e-06
N -3.162152e+00 -1.805141e+00 -7.692614e-01 7.251293e-05 -1.300167e-04 -8.001811e-05
N -1.558364e+00 8.436490e-01 4.275966e+00 2.932114e-04 -1.341820e-04 1.894881e-05
N -1.589192e+00 8.703202e-01 -5.793127e+00 2.923438e-04 -1.390481e-04 4.381239e-05
N -1.596149e+00 8.694181e-01 -7.485651e-01 2.105912e-04 -2.608960e-04 -3.396381e-04
N -3.171865e+00 3.635361e+00 4.286276e+00 -1.529560e-04 -4.575679e-04 1.431349e-04
N -3.159963e+00 3.591523e+00 -5.792190e+00 5.124786e-05 -1.550172e-04 4.729533e-04
N -3.208095e+00 3.561094e+00 -7.694834e-01 1.472083e-04 9.839606e-04 1.523758e-04
N -2.637592e-02 -1.852177e+00 4.292678e+00 2.144707e-04 -5.589316e-05 1.148626e-04
N -1.721142e-02 -1.848982e+00 -5.796593e+00 8.692253e-05 -1.679527e-04 -1.527773e-05
N -1.854274e-02 -1.853195e+00 -6.862822e-01 -6.897617e-04 3.843786e-04 -5.940736e-04
N -2.374292e-02 1.774787e+00 1.772562e+00 -3.754007e-05 4.447403e-04 -2.323280e-04
N -3.193454e-02 1.772820e+00 6.812368e+00 -1.751841e-04 2.274946e-04 -1.359166e-05
N -1.914437e-02 1.768040e+00 -3.280134e+00 -2.024154e-04 2.324767e-04 -1.873130e-04
N 3.123417e+00 -3.664586e+00 1.832797e+00 -2.328720e-04 -4.244104e-04 -5.892996e-04
N 3.116144e+00 -3.668207e+00 6.817732e+00 4.275471e-05 2.496503e-04 1.794705e-04
N 3.121752e+00 -3.663103e+00 -3.276314e+00 1.070216e-04 1.640649e-04 2.090292e-04
N 1.553592e+00 -9.460791e-01 1.785932e+00 -1.149252e-04 1.969703e-04 3.214366e-04
N 1.545377e+00 -9.509802e-01 6.808171e+00 -2.298602e-04 1.301930e-04 5.892336e-05
N 1.593828e+00 -9.188806e-01 -3.295751e+00 -5.337399e-04 1.377102e-06 -2.528393e-04
N 3.112871e+00 1.775311e+00 1.770240e+00 -3.656582e-04 2.042171e-04 -9.577316e-05
N 3.112410e+00 1.771555e+00 6.815449e+00 -2.932682e-05 -5.845683e-05 -4.850534e-06
N 3.119478e+00 1.772721e+00 -3.214753e+00 2.796636e-05 -9.575756e-05 -3.297219e-05
N 6.259017e+00 -3.664341e+00 1.843012e+00 2.797141e-04 -7.766922e-04 2.635814e-05
N 6.253474e+00 -3.665673e+00 6.808899e+00 3.130251e-05 3.479194e-05 1.293264e-04
N 6.269741e+00 -3.662213e+00 -3.277665e+00 -6.855303e-05 2.779603e-05 -1.316329e-04
N 4.690519e+00 -9.499622e-01 1.773284e+00 -2.749930e-04 -2.183632e-04 -3.546756e-04
N 4.685648e+00 -9.472827e-01 6.812712e+00 -1.706108e-04 -1.040973e-04 3.642536e-06
N 4.695062e+00 -9.419273e-01 -3.281994e+00 -1.772099e-04 -4.939106e-05 -5.138008e-05
N -3.167487e+00 1.774664e+00 1.775034e+00 4.760225e-05 5.657316e-05 8.753303e-04
N -3.169859e+00 1.774458e+00 6.869969e+00 -1.108329e-04 3.653075e-05 1.711453e-05
N -3.163248e+00 1.773375e+00 -3.277145e+00 -2.409524e-05 3.853021e-05 2.675098e-04
N -2.369855e-02 -3.669964e+00 1.782017e+00 -2.016374e-04 3.537084e-05 -2.990870e-04
N -2.305609e-02 -3.663829e+00 6.812926e+00 2.022177e-05 8.395222e-05 2.246440e-04
N -1.781926e-02 -3.709312e+00 -3.300930e+00 -1.560501e-04 9.955026e-05 5.437734e-04
N -1.597208e+00 -9.469519e-01 1.777919e+00 -4.114240e-04 -1.422625e-04 3.748252e-04
N -1.595526e+00 -9.450723e-01 6.816142e+00 -2.754787e-04 2.019750e-05 8.814642e-06
N -1.627000e+00 -9.188749e-01 -3.294611e+00 -3.573033e-04 -7.087713e-05 -1.487564e-05
