108
Energy=-1.397949e+06 Lattice="9.499367e+00 0.000000e+00 0.000000e+00 -4.760961e+00 8.234465e+00 0.000000e+00 1.225719e-02 -9.832687e-03 1.532771e+01" Stress="-5.112416e-03 -7.477530e-04 7.830997e-04 -7.618410e-04 -2.049778e-03 -6.868064e-04 8.010132e-04 -6.838084e-04 -3.271144e-03" Properties=species:S:1:pos:R:3:forces:R:3 Config_type=AlGaN_super3_21_0_8.xyz
Al 1.574142e+00 8.753552e-01 2.409113e+00 -5.106076e-04 2.149898e-03 1.333994e-03
Al 1.568076e+00 8.603439e-01 7.487209e+00 1.486317e-03 8.622695e-04 1.252482e-03
Al 1.551296e+00 8.759770e-01 -2.691104e+00 5.318042e-05 -6.501133e-04 -2.248808e-04
Al 3.698416e-03 3.598284e+00 2.386588e+00 -9.254332e-03 3.331935e-03 5.388311e-03
Al -2.423221e-02 3.610736e+00 7.469656e+00 -4.252162e-05 -1.379226e-03 3.214906e-03
Al -2.710689e-02 3.611270e+00 -2.676679e+00 -1.151808e-03 7.905557e-05 3.228220e-03
Al 3.129826e+00 -1.856231e+00 2.405238e+00 4.878003e-03 -4.478884e-03 3.967553e-03
Ga 3.139917e+00 -1.884594e+00 7.504738e+00 -1.397066e-04 3.924251e-04 1.597768e-03
Ga 3.142779e+00 -1.877716e+00 -2.705184e+00 -3.013052e-04 -7.933099e-04 1.507065e-03
Al -4.764394e+00 8.762775e-01 2.431835e+00 -6.424153e-03 -3.010812e-03 -1.834257e-02
Al -4.779209e+00 8.804030e-01 7.510033e+00 -6.958131e-04 1.390287e-03 1.946075e-03
Ga -4.792343e+00 8.832718e-01 -2.672818e+00 2.091303e-03 3.614424e-04 8.062633e-04
Al -6.371659e+00 3.580357e+00 2.391088e+00 1.687056e-03 4.273371e-03 3.153959e-03
Ga -6.359674e+00 3.602507e+00 7.501799e+00 2.624535e-04 -1.421772e-03 7.417174e-04
Ga -6.367246e+00 3.612755e+00 -2.685504e+00 6.232431e-04 1.331487e-03 -1.801697e-04
Ga -3.203169e+00 -1.875775e+00 2.416475e+00 1.747598e-03 -3.163853e-04 1.112336e-03
Al -3.171079e+00 -1.879134e+00 7.473382e+00 -2.650799e-04 -2.824716e-04 -3.625175e-04
Ga -3.188104e+00 -1.880469e+00 -2.667387e+00 7.165358e-04 1.644849e-05 9.489093e-04
Al -1.593054e+00 8.981065e-01 2.416389e+00 4.818336e-04 -1.078019e-03 6.728710e-04
Ga -1.601407e+00 8.772794e-01 7.500972e+00 1.324543e-03 -5.085783e-04 -2.413775e-04
Ga -1.607250e+00 8.974690e-01 -2.689694e+00 4.090335e-04 -9.075578e-04 -3.400296e-04
Ga -3.179815e+00 3.633028e+00 2.388464e+00 4.697418e-04 8.436617e-04 1.266033e-03
Al -3.183024e+00 3.622271e+00 7.519511e+00 -7.978325e-05 -1.794153e-04 1.682952e-03
Ga -3.195784e+00 3.634265e+00 -2.689194e+00 2.599562e-04 -1.017405e-03 2.626604e-03
Ga -1.592186e-02 -1.854787e+00 2.426523e+00 -2.436507e-03 -1.549915e-03 1.943819e-03
Al -1.160048e-02 -1.865270e+00 7.507772e+00 9.052647e-04 3.903891e-04 -1.048312e-03
Al -5.744607e-03 -1.864942e+00 -2.709531e+00 -3.717311e-04 -1.167564e-03 3.368331e-04
Al -1.086434e-02 1.777379e+00 4.919940e+00 3.190792e-03 3.489057e-03 7.262575e-03
Ga -1.391049e-02 1.797049e+00 -5.266278e+00 9.435676e-05 7.828613e-04 1.238183e-03
Al -1.873779e-02 1.801760e+00 -1.280511e-01 8.885783e-05 1.364411e-03 -3.004211e-03
Al 3.172107e+00 -3.704230e+00 4.945960e+00 8.227273e-04 1.039910e-03 5.132084e-04
Al 3.135723e+00 -3.715259e+00 -5.268806e+00 5.381517e-04 1.320867e-03 1.055374e-03
Al 3.169496e+00 -3.707168e+00 -1.187677e-01 -6.412803e-04 1.266397e-03 -4.285325e-03
Al 1.563738e+00 -9.460198e-01 4.950041e+00 2.477586e-04 -3.122756e-04 3.174330e-03
Al 1.558750e+00 -9.562147e-01 -5.263336e+00 -3.666696e-04 1.765447e-03 1.094344e-03
Ga 1.579442e+00 -9.510159e-01 -1.411963e-01 -1.007922e-03 -4.236825e-05 -3.238529e-03
Al 3.130823e+00 1.768587e+00 4.933970e+00 -8.979298e-03 7.376041e-03 5.174444e-03
Al 3.138163e+00 1.782359e+00 -5.265687e+00 -9.535443e-04 -9.975819e-04 -6.125460e-04
Al 3.135121e+00 1.788619e+00 -1.250912e-01 2.303966e-03 1.062444e-03 3.614334e-03
Al 6.311670e+00 -3.741518e+00 4.944528e+00 8.535496e-04 9.563645e-03 -8.310400e-04
Ga 6.304388e+00 -3.707656e+00 -5.273506e+00 -4.614732e-04 3.674723e-04 1.982686e-03
Al 6.306470e+00 -3.719078e+00 -1.106041e-01 -1.872691e-04 9.251646e-04 -5.206980e-03
Ga 4.714560e+00 -9.412612e-01 4.952204e+00 6.837752e-04 -2.216945e-03 1.626206e-03
Ga 4.723655e+00 -9.387925e-01 -5.284088e+00 -4.032183e-04 1.150807e-04 1.553442e-04
Al 4.725072e+00 -9.503360e-01 -9.613300e-02 -1.182029e-03 -1.034600e-03 -4.741352e-03
Ga -3.198684e+00 1.799962e+00 4.949081e+00 9.523297e-04 -7.053819e-05 2.669990e-03
Al -3.219188e+00 1.816270e+00 -5.281082e+00 -9.028295e-05 2.549762e-04 8.225821e-04
Al -3.202660e+00 1.796104e+00 -9.491862e-02 2.535030e-04 7.419446e-04 -5.961209e-03
Ga -2.374759e-02 -3.691036e+00 4.968939e+00 -1.103199e-03 2.859686e-04 1.269479e-03
Al -5.825313e-03 -3.694681e+00 -5.281838e+00 4.319307e-05 5.100647e-05 1.156825e-03
Al -2.321583e-02 -3.703420e+00 -1.278250e-01 6.176080e-04 3.627022e-04 -3.959620e-03
Al -1.590280e+00 -9.395591e-01 4.963238e+00 -1.014028e-03 -2.382277e-03 -1.685331e-04
Ga -1.590995e+00 -9.594014e-01 -5.266266e+00 -1.606551e-03 2.354562e-04 1.604990e-03
Ga -1.599724e+00 -9.501003e-01 -1.570319e-01 -1.329097e-03 9.650397e-04 8.652541e-03
N 1.564897e+00 8.629968e-01 4.331546e+00 -1.890362e-03 1.126563e-03 -1.531275e-03
N 1.593850e+00 8.476331e-01 -5.908122e+00 1.053751e-03 1.057625e-04 -1.078582e-03
N 1.562104e+00 9.243028e-01 -7.654490e-01 -1.139146e-03 -3.296769e-04 -1.946876e-03
N -2.162679e-02 3.607312e+00 4.322622e+00 -1.045964e-03 -6.434234e-04 -6.706200e-04
N -7.551486e-02 3.642093e+00 -5.932925e+00 2.468963e-04 -3.957488e-04 -3.647500e-03
N -2.742094e-02 3.616663e+00 -7.409055e-01 2.491773e-04 -6.505496e-04 -1.027650e-03
N 3.104859e+00 -1.892992e+00 4.333194e+00 -1.204143e-04 -6.090431e-04 -5.459551e-04
N 3.099034e+00 -1.896565e+00 -5.839819e+00 -4.224094e-06 -1.232405e-03 7.350581e-05
N 3.192820e+00 -1.895066e+00 -7.228472e-01 3.631093e-04 -9.366554e-04 -1.433957e-03
N -4.846286e+00 9.230132e-01 4.286388e+00 1.426762e-02 -7.960608e-03 9.012026e-03
N -4.789112e+00 9.309578e-01 -5.905649e+00 9.741454e-04 4.531325e-04 9.988061e-04
N -4.778862e+00 8.752849e-01 -6.825819e-01 8.949802e-04 8.749200e-04 -8.221975e-04
N -6.392650e+00 3.580466e+00 4.325711e+00 -1.132381e-03 1.791227e-03 -1.303628e-03
N -6.327812e+00 3.590700e+00 -5.849063e+00 6.849520e-04 1.135811e-03 2.171762e-03
N -6.360771e+00 3.616959e+00 -6.922893e-01 -4.420489e-04 -8.451936e-04 -1.695419e-03
N -3.149389e+00 -1.872761e+00 4.386631e+00 -6.755467e-05 -8.781735e-03 1.847802e-03
N -3.183373e+00 -1.870183e+00 -5.941790e+00 5.064879e-04 -5.029988e-04 -2.078671e-03
N -3.232217e+00 -1.895855e+00 -6.916234e-01 5.352816e-04 -1.167078e-03 1.446220e-03
N -1.569392e+00 8.645783e-01 4.341634e+00 -1.908532e-03 -2.482935e-04 -2.471374e-03
N -1.654411e+00 9.057261e-01 -5.854395e+00 4.045710e-05 -8.877129e-05 -6.805585e-04
N -1.615182e+00 9.377859e-01 -7.118321e-01 2.511177e-04 -2.261448e-04 -2.695383e-04
N -3.153516e+00 3.658592e+00 4.357390e+00 -2.051064e-04 -1.926228e-03 -3.340358e-03
N -3.195649e+00 3.631542e+00 -5.877620e+00 -6.196844e-04 -1.103446e-03 -1.703655e-03
N -3.194059e+00 3.625149e+00 -6.838574e-01 2.572415e-04 -1.101508e-03 -1.023888e-03
N -1.581227e-02 -1.818675e+00 4.390768e+00 -9.697579e-04 -1.421362e-03 -1.113876e-03
N 2.109297e-02 -1.880803e+00 -5.900026e+00 6.825434e-05 -1.685322e-03 -1.135620e-03
N -1.151808e-02 -1.911093e+00 -7.975444e-01 2.177111e-04 -2.112687e-03 1.127361e-03
N -8.095575e-03 1.780114e+00 1.792215e+00 -5.508041e-04 1.817907e-03 3.042074e-03
N 3.201167e-02 1.799058e+00 6.863916e+00 -1.969718e-03 1.777386e-03 -3.527222e-03
N 1.797053e-02 1.815737e+00 -3.280174e+00 5.095277e-04 9.390952e-04 -9.719618e-04
N 3.210852e+00 -3.657264e+00 1.782563e+00 -1.246531e-04 -6.027828e-03 2.391768e-03
N 3.153396e+00 -3.755634e+00 6.867748e+00 8.228594e-04 7.757225e-04 -2.338123e-03
N 3.192439e+00 -3.735204e+00 -3.344695e+00 9.867844e-04 4.663079e-04 -1.724730e-03
N 1.593767e+00 -9.260482e-01 1.819927e+00 9.602668e-04 -1.764128e-04 3.104425e-03
N 1.529734e+00 -9.381858e-01 6.870918e+00 3.196225e-04 -6.289593e-05 -1.361104e-03
N 1.526157e+00 -9.296645e-01 -3.327515e+00 -3.976691e-04 2.066220e-03 -1.567481e-03
N 3.148759e+00 1.769843e+00 1.804520e+00 -8.657006e-04 1.834692e-03 -2.659826e-03
N 3.146742e+00 1.733867e+00 6.859368e+00 -4.026655e-04 -5.511577e-04 -2.297643e-03
N 3.094651e+00 1.761615e+00 -3.345328e+00 4.750292e-05 7.121952e-04 -9.456997e-04
N 6.312120e+00 -3.750616e+00 1.793455e+00 5.668825e-03 -1.259035e-03 -2.927424e-04
N 6.284041e+00 -3.694527e+00 6.863224e+00 -4.619953e-04 1.581876e-03 -1.027042e-03
N 6.269235e+00 -3.722934e+00 -3.292411e+00 4.613836e-04 -5.374644e-04 -1.645120e-03
N 4.673628e+00 -9.536347e-01 1.800107e+00 4.056917e-03 1.029937e-02 4.748328e-03
N 4.768030e+00 -9.243514e-01 6.931202e+00 5.842101e-05 -1.753917e-03 -7.258238e-04
N 4.738306e+00 -9.479266e-01 -3.316047e+00 -9.191888e-04 -6.954415e-05 -1.836859e-03
N -3.185586e+00 1.750614e+00 1.803232e+00 4.778344e-04 -1.377804e-03 3.657531e-03
N -3.233460e+00 1.814761e+00 6.925858e+00 -3.223110e-04 1.200727e-04 -1.150506e-03
N -3.207262e+00 1.799381e+00 -3.363022e+00 -7.764224e-04 8.267640e-05 -1.562719e-03
N -6.251767e-02 -3.707973e+00 1.770291e+00 -1.232077e-03 -2.054623e-03 3.270359e-03
N 2.559227e-02 -3.679568e+00 6.942403e+00 2.033489e-04 -1.601125e-04 -9.045442e-05
N -1.872414e-02 -3.649723e+00 -3.350631e+00 -9.937277e-04 -9.028215e-04 -2.579071e-03
N -1.603577e+00 -8.955204e-01 1.847694e+00 -1.438813e-03 -2.092243e-03 -1.035890e-02
N -1.589343e+00 -9.963255e-01 6.872850e+00 -1.201978e-03 -4.585165e-04 2.117315e-03
N -1.565197e+00 -9.742107e-01 -3.286345e+00 -1.068995e-03 5.317662e-04 1.280439e-04
