108
Energy=-2725439.042556 Lattice="9.681281 0.000000 0.000000 -4.840241 8.382662 0.000000 0.000339 -0.000648 15.720340" Stress="0.000000 0.000000 -0.000000 0.000000 0.000000 0.000000 -0.000000 0.000000 0.000000" Properties=species:S:1:pos:R:3:forces:R:3
Al 1.590556 0.882461 2.458851 0.000025 0.000026 0.000021
Al 1.584690 0.894227 7.723515 -0.000016 -0.000008 0.000009
Ga 1.583394 0.889791 -2.766718 0.000010 -0.000009 0.000008
Ga -0.018697 3.675722 2.475452 0.000034 -0.000035 -0.000042
Ga -0.018562 3.669582 7.722460 -0.000008 0.000029 -0.000000
Ga -0.021797 3.674172 -2.778285 0.000018 0.000027 0.000008
Ga 3.190146 -1.890570 2.463595 0.000003 0.000012 0.000005
Ga 3.198483 -1.894052 7.711183 0.000003 -0.000007 0.000000
Ga 3.196289 -1.897754 -2.754400 0.000007 -0.000036 -0.000031
Ga -4.874155 0.892981 2.476266 0.000002 0.000008 -0.000081
Ga -4.875762 0.890693 7.711173 -0.000000 -0.000012 -0.000000
Ga -4.866147 0.893219 -2.766153 0.000006 0.000006 0.000004
Ga -6.483062 3.674772 2.475466 0.000044 -0.000027 -0.000024
Ga -6.481117 3.675557 7.710971 -0.000013 0.000026 0.000005
Ga -6.477677 3.682976 -2.765833 0.000008 -0.000045 -0.000011
Ga -3.249773 -1.903701 2.472081 0.000014 0.000000 -0.000002
Ga -3.250971 -1.901721 7.717332 -0.000007 -0.000047 0.000003
Ga -3.250198 -1.902848 -2.766361 0.000001 -0.000041 -0.000069
Ga -1.626229 0.892280 2.475651 0.000017 -0.000007 -0.000012
Ga -1.619714 0.893916 7.722299 0.000006 -0.000057 0.000000
Ga -1.625899 0.897541 -2.778166 0.000016 -0.000034 -0.000047
Ga -3.249214 3.684499 2.474343 0.000011 -0.000045 -0.000040
Ga -3.250378 3.686830 7.717254 -0.000005 -0.000048 -0.000010
Ga -3.250085 3.685427 -2.764958 0.000023 -0.000026 -0.000025
Ga -0.010498 -1.888745 2.463217 0.000025 -0.000016 0.000015
Ga -0.017763 -1.894838 7.711132 -0.000018 -0.000011 -0.000007
Ga -0.015345 -1.898091 -2.754286 0.000015 -0.000024 -0.000028
Ga -0.008989 1.813694 5.091020 0.000011 0.000049 -0.000034
Al -0.014611 1.818253 -5.398671 0.000000 0.000007 0.000017
Ga -0.012743 1.812325 -0.135887 -0.000028 -0.000040 0.000045
Ga 3.204216 -3.765764 5.094230 0.000015 0.000055 -0.000011
Ga 3.209157 -3.771211 -5.384494 -0.000019 -0.000007 -0.000005
Ga 3.201694 -3.758490 -0.149090 -0.000042 0.000003 0.000008
Ga 1.590112 -0.955879 5.096228 0.000001 -0.000034 0.000032
Ga 1.585225 -0.955536 -5.399065 -0.000007 0.000001 -0.000002
Al 1.590514 -0.963676 -0.138753 0.000007 0.000023 0.000001
Ga 3.187795 1.812776 5.093689 0.000053 0.000024 -0.000051
Ga 3.185955 1.818847 -5.396983 0.000001 0.000003 -0.000028
Ga 3.193531 1.811495 -0.138037 0.000058 -0.000006 0.000044
Ga 6.429072 -3.765932 5.098620 0.000009 0.000014 -0.000048
Ga 6.425913 -3.773719 -5.388252 0.000017 -0.000009 -0.000012
Ga 6.430501 -3.767301 -0.147405 -0.000071 -0.000066 0.000042
Ga 4.816235 -0.972484 5.090848 -0.000025 -0.000015 -0.000041
Ga 4.814638 -0.971209 -5.382373 0.000008 -0.000009 -0.000010
Ga 4.808082 -0.970918 -0.144977 0.000016 0.000040 0.000029
Ga -3.248902 1.822043 5.098785 0.000019 0.000018 -0.000019
Ga -3.240941 1.822180 -5.389682 -0.000005 0.000022 -0.000007
Ga -3.247757 1.822223 -0.147153 -0.000029 0.000012 0.000020
Ga -0.022885 -3.764875 5.089030 -0.000003 0.000057 -0.000020
Ga -0.024159 -3.763322 -5.382814 0.000007 -0.000000 0.000007
Ga -0.018546 -3.757391 -0.144633 -0.000004 -0.000010 0.000026
Ga -1.635906 -0.970756 5.094315 0.000003 0.000005 -0.000041
Ga -1.630305 -0.963492 -5.384485 0.000009 0.000010 0.000001
Ga -1.625590 -0.969131 -0.149315 -0.000040 -0.000009 0.000029
N 1.590161 0.886372 4.382614 0.000007 -0.000001 -0.000001
N 1.546183 0.916891 -6.068360 0.000005 -0.000000 0.000008
N 1.588126 0.842589 -0.778354 -0.000052 0.000054 -0.000045
N -0.022859 3.682186 4.457743 0.000002 -0.000075 0.000037
N -0.023765 3.634413 -6.007892 0.000025 0.000025 0.000025
N -0.023189 3.677980 -0.790889 0.000005 0.000026 0.000003
N 3.196815 -1.900150 4.450613 0.000035 -0.000013 0.000021
N 3.202054 -1.902352 -6.027708 -0.000012 0.000001 0.000002
N 3.157466 -1.875275 -0.763059 -0.000014 -0.000034 0.000001
N -4.866555 0.894205 4.459801 -0.000050 0.000003 0.000100
N -4.865969 0.892801 -6.026231 -0.000003 -0.000009 -0.000007
N -4.865759 0.893935 -0.783896 -0.000030 -0.000030 0.000018
N -6.479002 3.681496 4.459385 -0.000020 -0.000057 0.000052
N -6.476301 3.685579 -6.028229 -0.000009 0.000002 0.000008
N -6.475120 3.681609 -0.781761 -0.000003 0.000016 -0.000004
N -3.249609 -1.903437 4.453147 0.000008 -0.000037 0.000044
N -3.249819 -1.901381 -6.021450 -0.000009 -0.000000 0.000041
N -3.249752 -1.901038 -0.784939 -0.000023 -0.000038 -0.000001
N -1.634036 0.893286 4.457759 0.000006 -0.000004 0.000040
N -1.591095 0.916697 -6.008297 0.000005 -0.000011 -0.000004
N -1.629786 0.896014 -0.792779 -0.000019 -0.000011 -0.000005
N -3.249098 3.684428 4.455062 0.000010 -0.000020 -0.000010
N -3.250369 3.687789 -6.023611 0.000007 -0.000016 -0.000001
N -3.249539 3.685938 -0.785614 -0.000023 -0.000022 0.000001
N -0.017596 -1.898121 4.450174 0.000007 -0.000047 0.000024
N -0.023113 -1.902362 -6.029736 0.000001 -0.000014 -0.000021
N 0.024817 -1.875768 -0.763259 -0.000050 -0.000020 0.000020
N 0.020923 1.796915 1.851112 -0.000044 0.000007 0.000003
N 0.024544 1.795008 7.081065 -0.000007 -0.000001 -0.000023
N -0.016023 1.819460 -3.470862 0.000009 -0.000045 -0.000014
N 3.205778 -3.765418 1.834132 0.000026 0.000028 -0.000003
N 3.207365 -3.766621 7.078511 0.000008 -0.000002 0.000004
N 3.204816 -3.762409 -3.400418 -0.000009 0.000026 -0.000003
N 1.590454 -0.920370 1.790639 -0.000035 -0.000027 -0.000005
N 1.590199 -0.914768 7.089559 0.000013 0.000010 0.000037
N 1.590270 -0.967974 -3.417954 0.000014 0.000015 0.000002
N 3.159837 1.796284 1.850307 -0.000040 0.000016 -0.000009
N 3.153352 1.793234 7.088438 0.000011 -0.000002 0.000013
N 3.197997 1.819626 -3.411548 0.000006 0.000029 0.000033
N 6.430044 -3.767813 1.832893 0.000033 0.000083 -0.000014
N 6.427931 -3.766792 7.080044 0.000002 0.000035 0.000003
N 6.431085 -3.766677 -3.406594 -0.000005 0.000021 0.000005
N 4.816399 -0.971309 1.835433 0.000034 0.000041 -0.000023
N 4.817154 -0.972508 7.070979 -0.000009 0.000014 0.000001
N 4.813850 -0.972530 -3.399478 0.000013 -0.000013 0.000011
N -3.249578 1.819579 1.835286 -0.000007 0.000112 -0.000026
N -3.247560 1.819598 7.082303 -0.000004 0.000037 0.000011
N -3.249609 1.821933 -3.407816 -0.000012 0.000039 0.000008
N -0.025224 -3.765121 1.837925 -0.000004 0.000044 0.000008
N -0.024211 -3.765245 7.071349 0.000006 0.000018 0.000000
N -0.024045 -3.762280 -3.399525 0.000006 0.000038 0.000012
N -1.636090 -0.970504 1.831666 0.000018 0.000017 -0.000006
N -1.637029 -0.969551 7.076412 -0.000008 0.000043 -0.000008
N -1.632730 -0.972542 -3.400719 -0.000011 0.000010 0.000016
