108
Energy=-1.901480e+06 Lattice="9.580102e+00 0.000000e+00 0.000000e+00 -4.800467e+00 8.290338e+00 0.000000e+00 2.137600e-03 -1.006278e-02 1.550322e+01" Stress="8.098642e-04 -4.793968e-04 1.376813e-04 -4.841043e-04 1.550173e-04 -3.929332e-04 1.421647e-04 -3.849172e-04 3.405157e-03" Properties=species:S:1:pos:R:3:forces:R:3 Config_type=AlGaN_super3_32_1_7.xyz
Al 1.590723e+00 9.372342e-01 2.417284e+00 -2.042011e-03 -1.313852e-02 -1.271529e-03
Al 1.564350e+00 8.944624e-01 7.599580e+00 5.848853e-04 4.701425e-04 1.514970e-03
Ga 1.580241e+00 8.925639e-01 -2.716444e+00 5.638309e-04 2.576388e-04 1.904686e-03
Al -1.003589e-02 3.638706e+00 2.425377e+00 -5.245296e-04 2.086226e-03 1.255049e-03
Al -3.182709e-02 3.619675e+00 7.630560e+00 1.547777e-04 -1.842127e-04 9.556349e-04
Ga -1.284323e-02 3.641368e+00 -2.760955e+00 2.088539e-04 4.983332e-04 2.484649e-03
Ga 3.174557e+00 -1.873510e+00 2.446394e+00 -1.068395e-03 6.496193e-04 -1.683805e-04
Ga 3.188244e+00 -1.894513e+00 7.612112e+00 5.361048e-04 1.499797e-04 7.885834e-04
Ga 3.179051e+00 -1.876911e+00 -2.740439e+00 7.727053e-04 -5.108748e-04 1.757178e-03
Al -4.837722e+00 8.974387e-01 2.433342e+00 1.024937e-03 -9.436647e-05 1.845224e-03
Ga -4.822695e+00 8.754681e-01 7.588597e+00 4.631488e-04 1.457822e-04 1.698371e-03
Al -4.820672e+00 8.928907e-01 -2.726257e+00 3.680212e-04 4.666223e-05 1.420280e-03
Al -6.430605e+00 3.620483e+00 2.422029e+00 5.246397e-04 1.845546e-03 1.915405e-03
Ga -6.423702e+00 3.623064e+00 7.595660e+00 6.163979e-04 3.396452e-04 1.670079e-03
Al -6.424341e+00 3.636799e+00 -2.723336e+00 -3.847004e-04 4.126660e-04 1.457608e-03
Ga -3.211587e+00 -1.889416e+00 2.429727e+00 4.732156e-04 6.283015e-04 1.205286e-03
Ga -3.221260e+00 -1.883259e+00 7.600637e+00 3.173801e-04 1.951472e-04 1.759694e-03
Ga -3.213456e+00 -1.891021e+00 -2.729699e+00 -1.901402e-04 -4.288646e-04 1.271097e-03
Ga -1.633017e+00 8.861685e-01 2.426132e+00 1.996148e-04 -1.079997e-03 1.678235e-03
Al -1.606337e+00 8.907980e-01 7.596452e+00 3.029788e-04 -2.166973e-04 7.800233e-04
Ga -1.631713e+00 8.924574e-01 -2.718504e+00 9.896865e-04 9.292611e-05 1.441898e-03
Ga -3.229588e+00 3.629897e+00 2.427744e+00 9.019904e-04 1.958680e-04 6.080993e-04
Al -3.202589e+00 3.635180e+00 7.615700e+00 -7.126896e-04 -2.312145e-04 4.852477e-04
Ga -3.229378e+00 3.635703e+00 -2.726398e+00 8.057446e-04 7.649166e-05 4.253434e-04
Ga -2.874686e-02 -1.871106e+00 2.436162e+00 1.394444e-03 1.059625e-03 5.400427e-04
Ga -2.143626e-02 -1.875091e+00 7.592043e+00 1.370053e-04 -8.442396e-04 9.882888e-04
Ga -2.206295e-02 -1.878458e+00 -2.706102e+00 5.434004e-04 -6.369813e-04 7.530150e-04
Ga -9.243093e-03 1.791273e+00 5.016962e+00 -1.385428e-04 8.341711e-04 2.626399e-03
Al -2.486286e-02 1.814244e+00 -5.348892e+00 -5.587541e-05 6.124573e-04 1.457549e-03
Ga -1.464237e-02 1.795868e+00 -1.247480e-01 -1.778493e-03 7.848321e-04 -5.757504e-03
Ga 3.192363e+00 -3.735322e+00 5.036058e+00 -4.496192e-05 7.612802e-04 1.072370e-03
Al 3.193699e+00 -3.730305e+00 -5.336425e+00 9.087306e-05 3.980918e-04 2.538759e-04
Ga 3.185567e+00 -3.729163e+00 -1.447590e-01 3.704026e-04 8.386928e-04 3.079903e-03
Ga 1.588074e+00 -9.464519e-01 5.028342e+00 -4.683680e-04 1.239106e-04 -6.706034e-04
Ga 1.589486e+00 -9.502257e-01 -5.329045e+00 -4.279303e-04 6.284301e-04 6.495903e-04
Al 1.574937e+00 -9.510360e-01 -1.291796e-01 -1.115929e-04 2.283766e-05 1.396189e-03
Al 3.168137e+00 1.787497e+00 4.992125e+00 -6.994894e-05 4.969713e-04 2.445054e-03
Ga 3.155935e+00 1.803807e+00 -5.306025e+00 1.303662e-04 -3.341553e-05 2.068011e-03
Al 3.174534e+00 1.807357e+00 -1.479457e-01 9.979192e-05 -1.718200e-04 -9.903422e-04
Ga 6.368251e+00 -3.729833e+00 5.007469e+00 2.141645e-04 5.839392e-05 1.878231e-03
Al 6.351777e+00 -3.726257e+00 -5.324445e+00 -1.759267e-04 -6.860986e-05 7.979904e-04
Al 6.381994e+00 -3.735624e+00 -1.380485e-01 -2.679134e-04 3.391149e-04 -3.877682e-04
Al 4.778142e+00 -9.484828e-01 4.998412e+00 -5.355863e-04 -4.475858e-04 5.447894e-04
Al 4.772330e+00 -9.667539e-01 -5.297521e+00 -3.954562e-04 -2.491978e-04 1.100860e-03
Ga 4.777879e+00 -9.408097e-01 -1.495165e-01 -9.385198e-04 -4.335106e-04 1.376769e-03
Ga -3.230013e+00 1.783543e+00 5.032887e+00 -7.106427e-04 9.935333e-05 1.352430e-03
Ga -3.210949e+00 1.802861e+00 -5.337378e+00 -3.596907e-04 3.012503e-04 1.753892e-03
Al -3.237543e+00 1.787711e+00 -1.442945e-01 3.833728e-04 -3.688920e-04 1.637992e-04
Ga -2.905960e-02 -3.733696e+00 5.014856e+00 -5.031738e-04 1.273751e-05 4.616985e-04
Ga -2.049960e-02 -3.725171e+00 -5.308159e+00 1.512933e-04 -2.744492e-04 1.397026e-03
Ga -3.875257e-02 -3.729045e+00 -1.474955e-01 -3.500560e-04 8.812898e-04 1.449701e-03
Al -1.628285e+00 -9.564461e-01 5.032640e+00 -4.127737e-04 -6.219640e-04 6.435277e-04
Ga -1.627666e+00 -9.488432e-01 -5.322865e+00 -6.808686e-04 3.717905e-04 1.546846e-03
Al -1.617656e+00 -9.585482e-01 -1.498317e-01 -3.055143e-04 -4.123710e-04 3.419910e-04
N 1.616367e+00 9.001022e-01 4.345327e+00 -6.629779e-04 2.074500e-03 -3.237303e-03
N 1.533632e+00 9.141746e-01 -5.980376e+00 1.130563e-03 3.419690e-05 -1.105018e-03
N 1.612190e+00 8.594651e-01 -7.246543e-01 1.146135e-03 6.695901e-04 -1.557378e-03
N -2.542065e-02 3.634913e+00 4.340091e+00 7.453062e-04 -1.419018e-04 -1.662868e-03
N -2.555972e-02 3.645287e+00 -5.937909e+00 2.694981e-04 3.099921e-05 -6.313002e-04
N 1.905509e-02 3.663230e+00 -7.698662e-01 4.629279e-05 2.951744e-04 -2.083768e-03
N 3.213917e+00 -1.866091e+00 4.425506e+00 1.689619e-04 -5.200739e-04 -2.837798e-04
N 3.224192e+00 -1.901181e+00 -5.901205e+00 4.674980e-05 -3.838559e-04 -9.527864e-04
N 3.132914e+00 -1.858001e+00 -7.519555e-01 1.079605e-03 -4.716445e-04 -1.593097e-03
N -4.858325e+00 8.614047e-01 4.373140e+00 8.794923e-04 7.234981e-04 -1.797525e-03
N -4.825182e+00 8.299301e-01 -5.929177e+00 2.683161e-04 1.095740e-03 -1.734376e-03
N -4.819414e+00 9.327823e-01 -7.953322e-01 -2.228101e-04 -4.102247e-05 -1.122959e-03
N -6.418719e+00 3.588388e+00 4.354533e+00 -3.593090e-04 3.850832e-04 -1.638791e-03
N -6.457709e+00 3.667267e+00 -5.926388e+00 1.912495e-04 6.104755e-05 -1.706812e-03
N -6.463282e+00 3.618508e+00 -7.877578e-01 8.205597e-05 -3.083662e-05 -1.406019e-03
N -3.207671e+00 -1.838657e+00 4.425477e+00 3.330492e-04 -5.438008e-04 -1.377536e-03
N -3.260509e+00 -1.900003e+00 -5.904297e+00 5.409386e-04 -3.325402e-04 -1.654508e-03
N -3.173560e+00 -1.913895e+00 -7.326243e-01 -2.598338e-04 -4.147093e-05 -1.406983e-03
N -1.623937e+00 8.355032e-01 4.413853e+00 5.022146e-04 1.136916e-04 -1.991144e-03
N -1.580688e+00 9.099426e-01 -5.985980e+00 1.011915e-04 -6.462205e-04 -9.246812e-04
N -1.662994e+00 8.646746e-01 -7.259011e-01 1.587327e-04 4.950729e-04 -1.885949e-03
N -3.217509e+00 3.638096e+00 4.399651e+00 -6.003048e-05 -6.839639e-04 -8.931960e-04
N -3.182541e+00 3.676027e+00 -5.966727e+00 -5.760815e-04 -4.038275e-04 -4.831100e-04
N -3.220395e+00 3.596924e+00 -7.436866e-01 -1.902503e-04 1.583543e-04 -4.953783e-04
N -6.250391e-02 -1.851928e+00 4.424608e+00 2.263155e-04 -6.993082e-04 -3.641308e-04
N -2.394270e-02 -1.875714e+00 -5.940953e+00 1.944567e-04 -8.826476e-04 -1.244152e-03
N -1.570133e-02 -1.829206e+00 -7.207060e-01 -3.491069e-04 -1.181176e-03 -1.569124e-03
N -4.778430e-03 1.836438e+00 1.827834e+00 5.424086e-03 -2.564819e-03 9.608433e-03
N -1.819579e-02 1.799983e+00 7.023460e+00 -3.297434e-04 5.349839e-04 -1.689147e-03
N -2.379966e-02 1.793794e+00 -3.417086e+00 -3.459555e-04 4.778551e-05 -1.235028e-03
N 3.221609e+00 -3.748856e+00 1.846609e+00 -1.155767e-03 2.136054e-04 -4.138691e-03
N 3.186730e+00 -3.785375e+00 7.027818e+00 3.014079e-04 9.594105e-04 -1.216347e-03
N 3.176028e+00 -3.730003e+00 -3.414108e+00 -5.342640e-04 4.015533e-04 -2.532382e-04
N 1.576692e+00 -9.233186e-01 1.789898e+00 -4.808171e-05 8.459700e-03 1.957808e-03
N 1.588358e+00 -9.120581e-01 7.008861e+00 -3.006381e-04 -4.339958e-04 -1.219265e-03
N 1.576712e+00 -9.551933e-01 -3.356362e+00 -6.006626e-04 3.089082e-04 -1.514121e-03
N 3.177422e+00 1.812718e+00 1.790314e+00 -1.102854e-03 -6.468511e-04 2.151456e-04
N 3.125450e+00 1.770807e+00 6.926011e+00 -2.055253e-05 5.601964e-05 -2.102081e-03
N 3.207277e+00 1.827252e+00 -3.313777e+00 -4.081759e-04 -9.657953e-05 -1.841956e-03
N 6.372389e+00 -3.773064e+00 1.792689e+00 -4.424456e-05 -6.013776e-04 7.737490e-04
N 6.320381e+00 -3.757854e+00 6.995335e+00 1.411608e-04 2.528871e-04 -1.534311e-03
N 6.413496e+00 -3.748767e+00 -3.401023e+00 2.286990e-04 3.272208e-04 -1.038232e-03
N 4.769605e+00 -9.051692e-01 1.835713e+00 4.005871e-04 -6.401492e-04 -1.316239e-03
N 4.772916e+00 -9.640687e-01 6.910780e+00 -4.715341e-04 -2.023583e-04 -8.203766e-04
N 4.775181e+00 -9.070784e-01 -3.369768e+00 -1.658291e-04 -6.419389e-04 -7.439415e-04
N -3.271449e+00 1.770868e+00 1.777814e+00 -8.470991e-04 5.830499e-04 8.792163e-05
N -3.177964e+00 1.820494e+00 7.024809e+00 -7.549205e-04 -2.525224e-04 -1.219103e-03
N -3.258784e+00 1.779009e+00 -3.350223e+00 -5.829098e-04 1.239083e-04 -1.656020e-03
N -6.988572e-02 -3.746447e+00 1.842139e+00 8.835859e-05 -6.529819e-04 -2.012181e-03
N 2.531234e-02 -3.758489e+00 6.998930e+00 -5.408454e-04 4.195217e-05 -1.042480e-03
N -6.132620e-02 -3.745929e+00 -3.317890e+00 -1.819473e-04 1.842468e-04 -9.320310e-04
N -1.619446e+00 -9.584042e-01 1.755413e+00 -1.176464e-03 -1.617124e-04 4.569889e-04
N -1.620672e+00 -9.137844e-01 6.954361e+00 -9.351849e-04 -4.168520e-04 -8.206398e-04
N -1.614344e+00 -9.529955e-01 -3.348830e+00 -1.137077e-03 -5.841762e-04 -1.167299e-03
