108
Energy=-1718377.757861 Lattice="9.554550 0.000000 0.000000 -4.791796 8.273741 0.000000 -0.023496 -0.057770 15.413140" Stress="-0.000002 -0.000002 -0.000006 -0.000002 -0.000003 -0.000015 -0.000006 -0.000015 -0.000014" Properties=species:S:1:pos:R:3:forces:R:3
Al 1.563964 0.867294 2.448413 0.000317 0.000996 0.000201
Al 1.544684 0.846485 7.549745 0.000002 -0.000605 -0.000189
Al 1.569745 0.887146 -2.732111 0.000812 0.000677 -0.000199
Al -0.023174 3.639041 2.435015 -0.000351 -0.000340 -0.000425
Al -0.040061 3.601698 7.553801 -0.000038 0.000245 0.001434
Ga -0.017649 3.641483 -2.725215 0.000340 0.000592 0.001432
Al 3.165277 -1.884073 2.471532 0.000302 -0.000451 0.000086
Ga 3.151486 -1.896716 7.530032 0.000024 0.000498 0.000682
Al 3.168194 -1.863002 -2.743751 0.000973 -0.000314 0.000390
Ga -4.815306 0.869034 2.425254 0.000980 0.000888 -0.000171
Al -4.810919 0.840197 7.582756 0.000263 0.000155 -0.000359
Ga -4.792095 0.899532 -2.741591 0.001079 -0.000013 0.001167
Ga -6.421832 3.631214 2.448226 0.000695 0.000410 0.000574
Ga -6.417531 3.614686 7.559599 -0.000212 -0.000370 0.000535
Al -6.397296 3.650509 -2.747701 0.000416 0.000726 0.000766
Ga -3.217577 -1.898066 2.452804 0.000960 -0.000048 0.001347
Ga -3.212237 -1.898125 7.559554 0.000209 0.000305 0.000764
Ga -3.196872 -1.872448 -2.755442 0.000201 0.000119 0.000540
Ga -1.618867 0.886735 2.436830 0.001313 0.000556 0.001709
Al -1.624165 0.845039 7.569401 0.000936 -0.001211 -0.000516
Al -1.616532 0.902032 -2.748653 0.000086 0.000058 0.000645
Ga -3.205597 3.640859 2.440079 0.000851 -0.000694 0.001726
Ga -3.227860 3.609187 7.565113 0.001003 -0.000048 0.000191
Al -3.211746 3.641078 -2.754913 0.000094 -0.000434 -0.000240
Ga -0.007493 -1.870438 2.457492 0.000741 -0.000447 0.000302
Al -0.034254 -1.914862 7.556019 0.001525 0.009395 0.000322
Ga -0.005867 -1.860659 -2.748846 0.000325 -0.000671 0.000210
Ga -0.033587 1.782089 5.008777 0.000213 0.001244 0.000779
Ga -0.026170 1.813282 -5.306016 -0.000606 0.000728 0.001185
Ga -0.030948 1.789068 -0.149664 0.000501 0.002961 0.001929
Al 3.170916 -3.727683 4.990622 0.000098 0.000867 0.000239
Ga 3.182324 -3.694984 -5.287067 -0.000338 -0.000111 0.000684
Ga 3.164227 -3.721525 -0.155697 0.001827 0.001176 0.001976
Al 1.563180 -0.989435 5.000613 -0.000343 0.000213 0.001320
Ga 1.581152 -0.944039 -5.301192 -0.001262 0.000277 0.000470
Ga 1.587605 -0.962776 -0.143265 0.000403 0.001579 0.001387
Ga 3.148235 1.769984 5.017453 -0.000409 0.000711 0.000158
Ga 3.178449 1.823413 -5.295806 -0.001007 -0.000146 0.000649
Ga 3.145387 1.809380 -0.166152 0.000840 0.000078 0.001712
Al 6.332472 -3.726354 5.003800 0.000097 0.000085 0.000857
Al 6.369522 -3.685971 -5.300726 -0.000885 -0.000075 0.000318
Al 6.358168 -3.718218 -0.151682 -0.000881 -0.001937 0.002054
Al 4.749340 -0.987729 5.002685 -0.000463 -0.000956 0.000131
Al 4.780808 -0.937160 -5.295270 -0.000277 -0.000712 0.000340
Ga 4.759877 -0.976788 -0.153614 -0.001448 0.002119 0.002289
Ga -3.224934 1.774067 5.027262 -0.000156 0.001218 0.001125
Al -3.201511 1.798845 -5.313927 0.000350 0.004241 0.003659
Al -3.204084 1.808915 -0.179190 -0.001868 -0.001332 0.001924
Al -0.026226 -3.713589 5.013192 0.000269 -0.000063 -0.001163
Al -0.018064 -3.691838 -5.286029 0.000596 0.000044 0.000749
Ga -0.023181 -3.733962 -0.181191 -0.000304 0.000859 0.002643
Al -1.615148 -0.990625 5.026164 -0.000708 -0.000372 0.000587
Al -1.612529 -0.936562 -5.306978 -0.000041 0.000067 -0.000761
Ga -1.625428 -0.954299 -0.168888 0.000142 0.001132 0.002454
N 1.554430 0.813408 4.361941 0.000770 0.000113 -0.000368
N 1.574293 0.898039 -5.963447 0.001299 0.000527 0.000067
N 1.558938 0.873041 -0.826916 0.000655 -0.000063 0.000937
N -0.035568 3.664309 4.360075 0.000409 0.000112 -0.000660
N 0.018000 3.684001 -5.938573 0.000707 -0.000017 -0.001118
N 0.010580 3.658128 -0.747567 0.000333 -0.000218 -0.001364
N 3.156328 -1.895237 4.402988 0.000400 -0.000131 -0.000521
N 3.216629 -1.832142 -5.909871 0.000863 -0.000498 -0.000564
N 3.165320 -1.880282 -0.836118 0.000554 -0.000482 0.000518
N -4.810985 0.815930 4.396755 0.000523 0.000364 -0.001280
N -4.749844 0.872004 -5.908643 -0.001990 -0.000322 -0.001585
N -4.766485 0.899979 -0.756917 0.001042 0.000039 -0.000789
N -6.411161 3.667478 4.434395 0.000146 0.000077 -0.000079
N -6.390031 3.709294 -5.878201 0.000314 -0.000133 -0.000933
N -6.447499 3.665337 -0.822957 -0.000104 0.000009 -0.000775
N -3.209002 -1.896883 4.447829 0.000431 0.000054 -0.000552
N -3.196298 -1.856351 -5.861406 0.000381 -0.000163 -0.000599
N -3.205223 -1.930020 -0.773280 0.000257 0.000174 -0.000856
N -1.633564 0.815466 4.412291 0.000637 -0.000553 -0.000912
N -1.655181 0.878317 -5.929432 0.002423 -0.001842 -0.000992
N -1.662747 0.907615 -0.821594 0.000747 -0.000937 -0.000542
N -3.225527 3.665627 4.429957 -0.000397 -0.000686 -0.000320
N -3.248321 3.640814 -5.869500 -0.000836 -0.000908 -0.000558
N -3.215958 3.593445 -0.828809 0.000252 -0.000071 0.000383
N -0.029431 -1.890281 4.441382 0.000182 -0.000708 -0.000847
N -0.053873 -1.878889 -5.923444 0.000735 -0.001557 -0.000691
N -0.016907 -1.872266 -0.779423 -0.000176 -0.001095 -0.000396
N 0.018819 1.819882 1.855739 -0.001342 -0.001544 -0.002716
N -0.038927 1.773539 7.000281 -0.000579 0.000271 -0.000720
N -0.017613 1.762486 -3.320769 -0.000415 0.000065 -0.000960
N 3.214969 -3.689852 1.852145 -0.002450 -0.000468 -0.002386
N 3.200300 -3.770694 6.910032 -0.000241 -0.000152 -0.001123
N 3.141401 -3.682874 -3.309050 -0.000659 -0.000130 -0.000387
N 1.626791 -0.940209 1.855123 -0.001534 -0.001129 -0.001784
N 1.520123 -0.957313 6.919756 -0.001840 -0.003216 0.001388
N 1.625136 -0.919302 -3.325629 -0.000970 -0.000246 -0.001225
N 3.111396 1.775808 1.827992 -0.000957 -0.000001 -0.002139
N 3.151680 1.723286 6.998121 0.000152 0.000100 -0.000348
N 3.124349 1.834382 -3.313969 -0.000546 -0.000610 -0.000552
N 6.314138 -3.745414 1.776420 0.000883 0.001270 -0.001558
N 6.296258 -3.765118 6.915043 0.000178 -0.000228 -0.000702
N 6.397826 -3.729530 -3.393466 -0.000283 -0.000638 -0.000848
N 4.713966 -0.992495 1.836588 -0.000391 -0.001714 -0.002305
N 4.751029 -0.936272 6.911737 -0.000031 0.000149 -0.000721
N 4.726847 -0.966926 -3.383644 -0.001019 0.000019 -0.000287
N -3.212213 1.799727 1.749653 0.000027 0.001323 -0.001697
N -3.222938 1.723669 7.000221 -0.000581 -0.000270 0.000284
N -3.158742 1.832780 -3.385357 -0.001140 0.000046 -0.000817
N -0.019106 -3.717040 1.808291 -0.000766 -0.001286 -0.002125
N -0.027673 -3.690027 6.919800 0.000116 -0.004273 -0.000575
N -0.009670 -3.746605 -3.362760 -0.000493 -0.000615 -0.000074
N -1.610919 -0.959919 1.815325 -0.002166 -0.001438 -0.002649
N -1.577584 -0.965890 6.944000 -0.000974 0.000261 0.000167
N -1.601554 -0.892541 -3.389781 -0.000724 -0.000499 -0.000365
