108
Energy=-1.260623e+06 Lattice="9.490598e+00 0.000000e+00 0.000000e+00 -4.751445e+00 8.211819e+00 0.000000e+00 -2.495153e-03 -7.479654e-04 1.530804e+01" Stress="-2.521259e-03 -4.158042e-04 -4.909289e-05 -4.144509e-04 -3.439536e-03 1.326559e-04 -4.758235e-05 1.265162e-04 -4.593476e-05" Properties=species:S:1:pos:R:3:forces:R:3 Config_type=AlGaN_super3_18_2_9.xyz
Al 1.576986e+00 9.057630e-01 2.403069e+00 -7.030017e-03 -1.234737e-02 1.818796e-03
Al 1.548271e+00 8.756309e-01 7.503759e+00 7.950141e-04 4.474495e-04 5.074340e-04
Al 1.560378e+00 8.769998e-01 -2.704088e+00 -4.855443e-04 1.327406e-03 -6.658535e-05
Al -2.326455e-02 3.611919e+00 2.414346e+00 -1.014988e-03 1.477397e-03 1.149219e-03
Al -2.848334e-02 3.600970e+00 7.483761e+00 -1.612300e-04 2.881597e-04 5.998611e-04
Al -1.453092e-02 3.605914e+00 -2.705122e+00 -1.012918e-03 -4.537372e-03 1.207167e-03
Al 3.160925e+00 -1.875672e+00 2.400117e+00 -6.490953e-03 -4.863827e-04 3.364592e-03
Al 3.150267e+00 -1.875237e+00 7.519458e+00 -1.652846e-04 -2.671054e-04 3.192471e-04
Ga 3.149210e+00 -1.862620e+00 -2.723038e+00 -4.646029e-04 5.016283e-05 1.807251e-03
Al -4.798582e+00 8.667472e-01 2.415501e+00 3.521900e-03 9.044459e-03 2.514944e-03
Al -4.785785e+00 8.687921e-01 7.499814e+00 5.571973e-04 3.233195e-04 -3.254612e-04
Al -4.784957e+00 8.777318e-01 -2.700466e+00 9.877856e-04 -4.665286e-05 4.315335e-04
Ga -6.366911e+00 3.589871e+00 2.428692e+00 7.426082e-04 1.218843e-03 7.945759e-04
Al -6.350781e+00 3.609460e+00 7.476179e+00 1.430811e-04 -9.654202e-05 -1.020841e-04
Al -6.361418e+00 3.594360e+00 -2.699957e+00 6.057041e-04 3.185387e-04 5.846201e-04
Al -3.208979e+00 -1.877161e+00 2.434225e+00 5.171020e-03 1.049186e-03 5.933117e-04
Al -3.185036e+00 -1.868296e+00 7.492513e+00 -3.762876e-04 1.149143e-04 1.053196e-04
Ga -3.193514e+00 -1.875037e+00 -2.709465e+00 1.776924e-05 7.369702e-04 8.102148e-04
Ga -1.613790e+00 8.975799e-01 2.422531e+00 9.731010e-04 -1.363734e-03 2.072746e-04
Al -1.602575e+00 8.797137e-01 7.483644e+00 1.095997e-03 -1.935878e-04 3.369449e-04
Ga -1.601928e+00 8.974617e-01 -2.693735e+00 1.444908e-03 4.224278e-04 1.026045e-03
Al -3.171367e+00 3.621359e+00 2.419226e+00 4.797236e-04 -2.966429e-03 7.655344e-04
Al -3.192351e+00 3.629052e+00 7.501013e+00 2.134413e-04 -5.847048e-04 4.707075e-04
Ga -3.189766e+00 3.612000e+00 -2.714614e+00 4.775149e-04 -2.111347e-04 1.323692e-03
Ga -7.389811e-03 -1.859183e+00 2.441915e+00 8.362203e-04 1.091973e-03 3.063920e-04
Al -2.077223e-02 -1.868872e+00 7.495216e+00 -6.670858e-05 -5.068440e-04 -1.605827e-05
Ga -6.427912e-03 -1.861050e+00 -2.719609e+00 4.518260e-04 -3.559543e-04 1.488280e-03
Al -1.544376e-02 1.795610e+00 4.966794e+00 1.808511e-03 -4.311330e-04 -4.275176e-04
Al -1.757053e-02 1.790254e+00 -5.268933e+00 -1.715021e-04 -3.052767e-04 -1.685887e-04
Al -1.000446e-02 1.796922e+00 -1.462600e-01 3.820379e-04 6.987554e-04 -1.376021e-04
Al 3.152029e+00 -3.699026e+00 4.964322e+00 -3.300743e-04 -1.723418e-04 7.048388e-04
Al 3.151002e+00 -3.690579e+00 -5.289751e+00 3.156187e-04 4.564363e-04 7.852254e-04
Al 3.159141e+00 -3.705336e+00 -1.353324e-01 2.033104e-04 3.015226e-04 7.077321e-04
Ga 1.566963e+00 -9.529973e-01 4.980765e+00 -2.131716e-04 1.487463e-03 -7.451902e-04
Al 1.570732e+00 -9.557110e-01 -5.295542e+00 -5.342060e-04 6.535654e-04 2.998642e-04
Al 1.576308e+00 -9.420072e-01 -1.319264e-01 -6.181101e-04 1.359136e-03 1.549365e-03
Al 3.121602e+00 1.791123e+00 4.981956e+00 -6.251706e-04 -4.936211e-04 -4.678633e-04
Ga 3.130697e+00 1.779488e+00 -5.261898e+00 -2.165021e-04 7.609455e-05 1.119449e-03
Al 3.130340e+00 1.777670e+00 -1.661639e-01 -1.705389e-03 -3.096079e-04 9.964755e-04
Al 6.306078e+00 -3.697567e+00 4.973698e+00 -5.388365e-04 -1.444304e-04 5.697952e-04
Ga 6.301327e+00 -3.699156e+00 -5.278993e+00 -1.262977e-04 -1.169257e-04 3.682871e-04
Al 6.294145e+00 -3.710240e+00 -1.483495e-01 -2.979098e-04 -3.706323e-04 1.200968e-03
Ga 4.724179e+00 -9.652059e-01 4.962498e+00 -9.579114e-04 7.352960e-04 6.326021e-05
Al 4.715026e+00 -9.545325e-01 -5.278534e+00 -4.840579e-04 -3.140820e-04 1.392250e-04
Ga 4.720457e+00 -9.452072e-01 -1.083984e-01 -4.714343e-04 2.696472e-04 -1.374168e-03
Ga -3.200461e+00 1.805717e+00 4.976150e+00 -2.274805e-04 -5.075807e-04 1.814502e-04
Ga -3.191833e+00 1.793447e+00 -5.292015e+00 5.402098e-04 -1.136265e-04 8.975938e-04
Al -3.199052e+00 1.798854e+00 -1.308637e-01 4.529620e-04 -1.336488e-04 9.690305e-04
Al -2.380561e-02 -3.690625e+00 4.978002e+00 3.640185e-04 -8.488649e-04 5.434979e-05
Al -1.218643e-02 -3.681634e+00 -5.283936e+00 -1.862523e-04 -2.621765e-05 2.761775e-04
Ga -1.844901e-02 -3.700076e+00 -1.329421e-01 1.008914e-04 2.762313e-04 -8.795160e-04
Al -1.607062e+00 -9.592875e-01 4.984416e+00 -2.574000e-04 -1.144088e-04 4.072389e-04
Ga -1.591853e+00 -9.463572e-01 -5.293189e+00 -8.373217e-05 2.246932e-04 7.188001e-04
Ga -1.597137e+00 -9.440209e-01 -1.245504e-01 -4.752379e-04 8.628714e-05 -1.394992e-03
N 1.558152e+00 9.166446e-01 4.328633e+00 -6.232912e-04 1.620184e-03 6.870634e-05
N 1.515769e+00 8.555461e-01 -5.893691e+00 1.963558e-04 1.969045e-04 -4.163191e-04
N 1.552401e+00 8.669249e-01 -7.701272e-01 3.825450e-04 -2.665968e-04 -6.202215e-04
N -2.229598e-02 3.609559e+00 4.353507e+00 -2.784998e-04 -6.094828e-05 -1.826436e-03
N -6.062278e-02 3.582180e+00 -5.910038e+00 -7.607870e-04 -1.487165e-04 -5.772149e-04
N -2.668301e-02 3.607326e+00 -7.715015e-01 -5.332297e-05 1.638972e-04 -5.925632e-04
N 3.138922e+00 -1.922262e+00 4.319446e+00 8.359092e-04 9.247729e-04 -2.368788e-03
N 3.150135e+00 -1.870854e+00 -5.870238e+00 -1.997041e-04 -1.748503e-04 5.927017e-05
N 3.111383e+00 -1.892007e+00 -7.283854e-01 -2.172978e-04 -2.692097e-04 1.910286e-04
N -4.824769e+00 9.007587e-01 4.329570e+00 1.291687e-03 2.283911e-04 -9.641341e-04
N -4.781579e+00 8.272407e-01 -5.911351e+00 4.452828e-04 3.268105e-04 -4.469801e-06
N -4.769357e+00 9.151856e-01 -7.752559e-01 4.455756e-04 1.301192e-04 5.587628e-04
N -6.356343e+00 3.605011e+00 4.415520e+00 -1.311816e-04 5.817536e-04 -8.235693e-05
N -6.308781e+00 3.630866e+00 -5.920765e+00 -3.249320e-04 -3.502497e-04 -7.064495e-04
N -6.393230e+00 3.585649e+00 -7.739453e-01 -8.954072e-05 5.398298e-04 2.255740e-04
N -3.144490e+00 -1.894642e+00 4.352277e+00 5.505837e-04 -5.131242e-04 -1.189802e-03
N -3.223536e+00 -1.844594e+00 -5.909284e+00 -1.979713e-05 -1.491023e-04 -7.763227e-05
N -3.187742e+00 -1.909289e+00 -7.398374e-01 -3.277860e-04 -3.808729e-04 1.025193e-03
N -1.571184e+00 8.575814e-01 4.405521e+00 -3.281111e-04 -2.818422e-04 -1.451155e-03
N -1.560623e+00 9.065707e-01 -5.917825e+00 9.197325e-05 -1.091579e-06 -3.367951e-04
N -1.608590e+00 9.312485e-01 -7.104297e-01 4.797651e-04 1.964520e-04 3.687866e-04
N -3.187150e+00 3.666756e+00 4.342542e+00 1.638264e-04 -9.138001e-04 -1.624770e-03
N -3.188487e+00 3.667347e+00 -5.894337e+00 3.500256e-04 -1.465211e-06 -1.913349e-04
N -3.146076e+00 3.595995e+00 -7.344798e-01 4.747332e-04 -9.655690e-04 -2.146386e-04
N -5.977722e-02 -1.883780e+00 4.414704e+00 -2.385718e-04 6.476801e-05 -1.335391e-03
N 2.038041e-02 -1.886669e+00 -5.900062e+00 7.680151e-04 -7.357087e-04 -1.048448e-04
N 2.688920e-02 -1.839001e+00 -7.442590e-01 2.903037e-04 -6.323205e-04 -7.088574e-05
N 1.979060e-02 1.818932e+00 1.779320e+00 2.067708e-04 -1.119679e-03 1.662460e-04
N -1.942368e-02 1.783169e+00 6.881148e+00 -7.804505e-05 5.198488e-04 -1.385918e-03
N 2.161892e-02 1.804563e+00 -3.344785e+00 -1.909515e-04 2.374252e-03 1.304138e-03
N 3.159212e+00 -3.698006e+00 1.795014e+00 -6.828208e-04 5.183425e-04 -4.042858e-05
N 3.146224e+00 -3.691773e+00 6.891377e+00 -1.218077e-04 5.815225e-04 -1.398686e-03
N 3.194090e+00 -3.720635e+00 -3.369819e+00 -4.820505e-04 1.351568e-03 -3.893634e-04
N 1.610198e+00 -9.308159e-01 1.793808e+00 -5.585164e-04 4.118294e-03 2.356499e-04
N 1.572687e+00 -9.549234e-01 6.957373e+00 -5.528745e-04 3.810839e-04 -1.832762e-04
N 1.569671e+00 -9.007770e-01 -3.376414e+00 8.169018e-05 -7.679048e-04 -5.319330e-04
N 3.123514e+00 1.731167e+00 1.767984e+00 6.857583e-03 5.295546e-03 -5.059377e-03
N 3.129774e+00 1.778693e+00 6.896791e+00 -3.011682e-04 -6.978427e-05 -3.638894e-04
N 3.135843e+00 1.783162e+00 -3.273595e+00 1.196868e-04 -1.596342e-04 1.223149e-03
N 6.266539e+00 -3.672535e+00 1.783340e+00 -5.021103e-04 1.008493e-03 -3.419564e-04
N 6.301937e+00 -3.691662e+00 6.893628e+00 -4.850847e-05 -4.634384e-05 -3.223614e-04
N 6.306352e+00 -3.744542e+00 -3.298514e+00 1.579271e-03 1.167979e-03 -4.239046e-04
N 4.721391e+00 -9.290969e-01 1.888354e+00 2.706791e-03 -9.155472e-03 -6.466861e-03
N 4.721764e+00 -9.564736e-01 6.937729e+00 -4.509120e-04 -1.453255e-04 -9.428820e-04
N 4.728374e+00 -9.020081e-01 -3.359903e+00 -5.939620e-04 1.584993e-04 -7.798558e-04
N -3.244070e+00 1.810490e+00 1.797496e+00 -4.324276e-04 1.188508e-03 -1.153543e-04
N -3.200219e+00 1.794421e+00 6.954350e+00 6.642323e-05 -2.586052e-04 -1.988361e-05
N -3.232781e+00 1.763037e+00 -3.318879e+00 -7.802479e-04 -4.603264e-04 -2.789421e-04
N 1.666740e-02 -3.717155e+00 1.834548e+00 -1.551357e-03 4.729706e-04 -5.256220e-04
N -1.855208e-02 -3.689260e+00 6.890623e+00 1.391039e-04 -1.306675e-04 -4.938782e-04
N -6.541348e-02 -3.713516e+00 -3.362174e+00 -5.457578e-04 -3.444290e-04 8.375926e-05
N -1.642729e+00 -9.721630e-01 1.837524e+00 -2.529764e-03 -9.970442e-04 1.172777e-03
N -1.605426e+00 -9.522953e-01 6.904890e+00 -4.262491e-04 -1.993610e-04 -2.815875e-04
N -1.601206e+00 -9.428635e-01 -3.327069e+00 -9.947077e-04 -5.808701e-04 -1.733254e-05
