108
Energy=-2313459.165449 Lattice="9.637710 0.000000 0.000000 -4.833943 8.325714 0.000000 0.107238 -0.110365 15.642885" Stress="0.000008 -0.000003 0.000023 -0.000003 -0.000001 -0.000023 0.000023 -0.000023 0.000028" Properties=species:S:1:pos:R:3:forces:R:3
Al 1.582855 0.856513 2.431522 0.000486 0.000507 0.001040
Al 1.626590 0.827628 7.681130 0.000797 0.000949 0.001337
Ga 1.533829 0.930526 -2.748153 0.000630 -0.000794 0.001034
Al -0.007193 3.606043 2.438890 -0.000447 0.000846 0.000286
Ga 0.031530 3.584931 7.681361 0.000016 0.000591 0.000856
Al -0.054135 3.686588 -2.751695 0.000272 -0.000053 0.001042
Ga 3.212437 -1.929755 2.459094 -0.000299 0.000033 0.000039
Ga 3.246079 -1.942343 7.670852 0.000262 -0.000417 0.000200
Al 3.174543 -1.868189 -2.748825 -0.000132 -0.000195 0.000416
Ga -4.815973 0.861072 2.460562 -0.000100 0.000346 -0.000543
Ga -4.800707 0.829798 7.679851 0.000535 0.000384 -0.000678
Ga -4.884732 0.913362 -2.743933 0.000410 -0.000420 -0.001321
Ga -6.429102 3.627970 2.458868 -0.000091 0.000244 -0.000037
Ga -6.405380 3.597597 7.669962 0.000123 0.000241 -0.000251
Al -6.499806 3.700958 -2.747818 -0.000222 0.000020 0.000051
Ga -3.186226 -1.919400 2.464046 -0.000429 -0.000187 -0.000264
Ga -3.163946 -1.942111 7.665775 0.000232 -0.000182 0.000589
Al -3.270696 -1.871810 -2.748062 0.000429 -0.000412 -0.000275
Al -1.581195 0.861477 2.450051 -0.000959 0.000171 0.000795
Ga -1.561906 0.829163 7.665407 0.000249 -0.000732 0.000176
Ga -1.656786 0.930246 -2.739003 0.001332 -0.000772 0.000113
Al -3.199552 3.632941 2.457023 -0.001526 -0.000445 -0.000530
Ga -3.185524 3.609456 7.675235 -0.000124 -0.000395 0.000224
Ga -3.276295 3.704086 -2.736327 0.000519 -0.000096 -0.000805
Al 0.013655 -1.904632 2.467565 -0.000659 -0.001220 -0.000258
Ga 0.034604 -1.927258 7.661303 0.000235 -0.000791 0.000550
Ga -0.057710 -1.861106 -2.742805 0.000968 -0.000324 -0.000275
Ga 0.024449 1.749437 5.030609 -0.001585 0.001399 0.002021
Al -0.066556 1.850204 -5.364022 0.000527 0.000937 0.001645
Al -0.044336 1.823890 -0.125872 0.000931 0.002326 0.000147
Ga 3.249874 -3.798314 5.043305 -0.000970 0.000462 0.000307
Ga 3.166935 -3.706721 -5.330281 -0.000622 0.000853 -0.000140
Ga 3.193544 -3.737805 -0.146839 0.000865 0.000118 0.001133
Ga 1.624116 -0.998976 5.052455 -0.001769 0.000756 -0.000138
Ga 1.546514 -0.912977 -5.353736 -0.001031 0.001242 -0.000385
Ga 1.570378 -0.947977 -0.134258 0.000215 0.000273 0.000783
Ga 3.214893 1.753295 5.064305 -0.000779 0.000650 0.000312
Ga 3.121660 1.853832 -5.354256 -0.000052 0.000200 0.000565
Ga 3.153296 1.832702 -0.150199 0.000006 -0.000673 0.001385
Ga 6.451958 -3.783215 5.052996 -0.001137 0.000287 0.000116
Ga 6.361260 -3.705056 -5.326282 -0.000133 0.000458 0.000040
Ga 6.383436 -3.734118 -0.169866 0.000121 -0.000487 0.001274
Ga 4.859729 -1.012084 5.069623 -0.001172 0.000191 -0.000568
Ga 4.759756 -0.930020 -5.334071 -0.000723 0.000780 -0.000202
Ga 4.784263 -0.956386 -0.161795 -0.000108 -0.000864 0.000659
Ga -3.181802 1.760187 5.039296 -0.000529 0.001082 0.000419
Ga -3.270790 1.854260 -5.354622 -0.000824 0.000267 0.000390
Ga -3.242937 1.829971 -0.118742 -0.000019 -0.000410 0.001119
Ga 0.032366 -3.771564 5.039033 -0.000182 0.000529 0.000186
Ga -0.063949 -3.694628 -5.346715 -0.000324 0.000334 0.000270
Ga -0.037698 -3.720670 -0.124490 0.000283 -0.000416 0.000728
Al -1.570942 -1.000655 5.033999 -0.000804 -0.000092 0.000967
Ga -1.665372 -0.910481 -5.341702 -0.001057 0.000682 0.000310
Ga -1.639201 -0.938214 -0.136774 -0.000404 -0.000618 0.001198
N 1.619367 0.842927 4.349940 0.001334 -0.000422 -0.000528
N 1.488443 0.954296 -6.025411 0.000455 -0.000586 -0.000927
N 1.507726 0.927026 -0.758633 0.001307 -0.000574 -0.000389
N 0.015893 3.610490 4.361991 0.000656 -0.000373 -0.001006
N -0.072295 3.659256 -5.970453 0.000397 -0.000773 -0.000238
N -0.052023 3.620527 -0.815332 0.000820 -0.001799 -0.001528
N 3.238221 -1.930542 4.433157 0.000514 -0.000333 0.000648
N 3.150885 -1.847755 -5.991075 0.000425 -0.000830 0.000342
N 3.169233 -1.874257 -0.827015 0.000632 -0.000842 0.001281
N -4.807547 0.842539 4.433183 0.000601 0.000138 -0.000032
N -4.894573 0.930076 -5.980133 0.000691 -0.000169 0.000112
N -4.863887 0.910590 -0.770172 0.001222 0.000064 0.001174
N -6.413397 3.613771 4.431807 0.000376 -0.000282 0.000004
N -6.504662 3.710238 -5.993151 0.000143 -0.000237 -0.000294
N -6.471643 3.684409 -0.828655 0.000920 -0.000558 0.001165
N -3.144053 -1.907956 4.443750 0.000739 -0.000215 0.000073
N -3.271177 -1.844076 -5.989962 0.000600 -0.000808 -0.000147
N -3.246219 -1.867339 -0.831844 0.001434 -0.000876 0.001281
N -1.586950 0.799288 4.381044 0.001066 -0.000055 -0.001322
N -1.634509 0.957916 -5.982640 0.000550 -0.001218 -0.001006
N -1.607491 0.938737 -0.749181 0.000404 -0.001775 -0.001111
N -3.198462 3.621954 4.371663 0.000100 -0.000652 -0.000142
N -3.286109 3.714837 -5.984516 0.000642 -0.000580 -0.000402
N -3.266160 3.684679 -0.764873 0.000269 -0.001194 0.000306
N -0.014271 -1.899613 4.392275 0.000405 -0.000730 -0.000344
N -0.067872 -1.835371 -5.993917 0.000926 -0.001143 -0.000475
N -0.039808 -1.865528 -0.771061 0.000690 -0.001638 0.000160
N -0.004079 1.782758 1.810135 -0.000404 0.000447 0.001261
N 0.074023 1.724676 7.028377 0.000094 0.000608 -0.000762
N -0.059898 1.884380 -3.433038 -0.000558 0.001397 -0.000998
N 3.227808 -3.820462 1.852230 0.000229 0.001298 -0.002150
N 3.258655 -3.805286 7.029267 0.000419 0.000780 -0.000751
N 3.207356 -3.690551 -3.338853 0.000805 0.000314 0.000389
N 1.574925 -0.975344 1.861345 -0.000863 0.001037 -0.002012
N 1.644171 -0.967498 7.047552 -0.000463 -0.000390 -0.000650
N 1.596561 -0.954666 -3.365616 0.000414 0.000011 0.000283
N 3.167405 1.754719 1.836696 -0.000749 0.001368 -0.002121
N 3.191138 1.723997 7.055722 -0.000354 -0.000027 -0.000021
N 3.144108 1.888640 -3.365630 0.000303 0.000607 0.000001
N 6.393159 -3.794184 1.828504 -0.000726 0.000953 -0.002008
N 6.458414 -3.798797 7.032801 -0.000042 0.000050 -0.000534
N 6.372810 -3.710170 -3.324155 0.000012 -0.000046 0.000476
N 4.829868 -1.001111 1.817692 -0.000943 0.000868 -0.000882
N 4.858806 -1.021387 7.041444 -0.000463 -0.000250 -0.000016
N 4.767239 -0.981401 -3.343280 0.000118 -0.000550 0.000293
N -3.167991 1.802474 1.874538 -0.000336 0.000976 -0.001376
N -3.180551 1.754300 7.028862 -0.000541 -0.000025 0.000076
N -3.271914 1.844741 -3.378818 -0.000357 -0.000014 0.000146
N 0.051917 -3.742993 1.871819 -0.000588 0.001325 -0.001051
N 0.041560 -3.790761 7.024186 -0.000423 0.000020 0.000021
N -0.092851 -3.729433 -3.365013 -0.000424 -0.000557 -0.000095
N -1.554021 -0.968961 1.857229 -0.001173 0.000905 -0.001609
N -1.565717 -1.014251 6.966536 -0.000972 0.000224 -0.000945
N -1.699980 -0.950020 -3.357976 -0.001566 -0.000033 0.000327
