108
Energy=-1.123292e+06 Lattice="9.476278e+00 0.000000e+00 0.000000e+00 -4.738139e+00 8.206697e+00 0.000000e+00 9.377101e-16 1.624162e-15 1.531397e+01" Stress="-1.222311e-02 5.720625e-03 -5.999819e-05 5.711071e-03 -6.834339e-03 -2.916154e-04 -7.049696e-05 -3.000960e-04 -1.345747e-03" Properties=species:S:1:pos:R:3:forces:R:3 Config_type=AlGaN_super3_15_2_0.xyz
Al 1.564294e+00 9.031460e-01 2.504900e+00 -1.683794e-03 -1.383146e-02 -1.244071e-02
Al 1.564294e+00 9.031460e-01 7.521855e+00 -1.177357e-03 -1.412098e-02 -5.509215e-03
Al 1.564294e+00 9.031460e-01 -2.775158e+00 -1.132434e-03 -1.457910e-02 -6.266766e-03
Al 2.938992e-08 3.612582e+00 2.504900e+00 -3.101508e-03 -2.004038e-03 -1.121373e-02
Al 2.938992e-08 3.612582e+00 7.521855e+00 -3.383579e-03 -1.164921e-03 -3.637142e-03
Al 2.938992e-08 3.612582e+00 -2.775158e+00 -2.687563e-03 -1.473582e-03 -4.257106e-03
Al 3.173845e+00 -1.884678e+00 2.504900e+00 -2.849562e-03 1.171631e-03 -1.188893e-02
Al 3.173845e+00 -1.884678e+00 7.521855e+00 -3.052841e-03 1.128730e-03 -5.355851e-03
Ga 3.173845e+00 -1.884678e+00 -2.775158e+00 -3.509828e-03 2.160139e-03 -5.233362e-03
Al -4.783396e+00 9.031460e-01 2.504900e+00 1.265972e-03 -1.311065e-02 -1.062092e-02
Al -4.783396e+00 9.031460e-01 7.521855e+00 1.415715e-03 -1.266800e-02 -5.261633e-03
Al -4.783396e+00 9.031460e-01 -2.775158e+00 1.246589e-03 -1.303064e-02 -4.831746e-03
Ga -6.347690e+00 3.612582e+00 2.504900e+00 -8.337400e-04 -5.453479e-04 -1.011205e-02
Al -6.347690e+00 3.612582e+00 7.521855e+00 -1.228780e-04 -2.382491e-04 -2.560709e-03
Al -6.347690e+00 3.612582e+00 -2.775158e+00 -9.612932e-05 -1.111181e-04 -3.783271e-03
Al -3.173845e+00 -1.884678e+00 2.504900e+00 -2.563919e-04 3.196071e-03 -1.072550e-02
Ga -3.173845e+00 -1.884678e+00 7.521855e+00 -8.357279e-04 2.834829e-03 -2.781109e-03
Ga -3.173845e+00 -1.884678e+00 -2.775158e+00 -4.905905e-04 2.959036e-03 -4.293987e-03
Al -1.654808e+00 9.031460e-01 2.504900e+00 1.422554e-02 -7.707243e-03 -1.224513e-02
Al -1.654808e+00 9.031460e-01 7.521855e+00 1.363819e-02 -7.226848e-03 -6.539392e-03
Ga -1.654808e+00 9.031460e-01 -2.775158e+00 1.625001e-02 -8.812676e-03 -8.329912e-03
Ga -3.219102e+00 3.612582e+00 2.504900e+00 1.575092e-02 7.652066e-03 -1.239164e-02
Al -3.219102e+00 3.612582e+00 7.521855e+00 1.247231e-02 5.164786e-03 -5.453255e-03
Al -3.219102e+00 3.612582e+00 -2.775158e+00 1.201679e-02 5.358258e-03 -4.083071e-03
Ga -4.525702e-02 -1.884678e+00 2.504900e+00 1.460416e-02 1.127437e-02 -1.382134e-02
Ga -4.525702e-02 -1.884678e+00 7.521855e+00 1.509740e-02 1.060443e-02 -6.735324e-03
Al -4.525702e-02 -1.884678e+00 -2.775158e+00 1.239131e-02 8.257354e-03 -6.223047e-03
Ga 1.469567e-08 1.806291e+00 5.013378e+00 -1.507369e-02 -1.107875e-02 -7.259435e-03
Al 1.469567e-08 1.806291e+00 -5.283635e+00 -1.183206e-02 -8.530728e-03 -6.186763e-03
Al 1.469567e-08 1.806291e+00 -2.666800e-01 -1.190193e-02 -8.705045e-03 3.373819e-02
Al 3.173845e+00 -3.690969e+00 5.013378e+00 -1.260974e-02 -5.309242e-03 -4.440767e-03
Ga 3.173845e+00 -3.690969e+00 -5.283635e+00 -1.485120e-02 -7.530357e-03 -6.313985e-03
Al 3.173845e+00 -3.690969e+00 -2.666800e-01 -1.218791e-02 -5.657158e-03 3.504718e-02
Al 1.609551e+00 -9.815320e-01 5.013378e+00 -1.397344e-02 7.499945e-03 -6.696502e-03
Al 1.609551e+00 -9.815320e-01 -5.283635e+00 -1.376405e-02 7.939790e-03 -6.458855e-03
Ga 1.609551e+00 -9.815320e-01 -2.666800e-01 -1.632709e-02 9.631724e-03 4.122248e-02
Al 3.128588e+00 1.806291e+00 5.013378e+00 7.103178e-04 -3.125105e-03 -4.055658e-03
Al 3.128588e+00 1.806291e+00 -5.283635e+00 7.308618e-05 -3.108729e-03 -4.431021e-03
Al 3.128588e+00 1.806291e+00 -2.666800e-01 2.512882e-04 -3.923910e-03 3.516980e-02
Ga 6.302433e+00 -3.690969e+00 5.013378e+00 5.756036e-04 1.267642e-04 -2.009120e-03
Al 6.302433e+00 -3.690969e+00 -5.283635e+00 4.161952e-04 1.623565e-04 -2.895415e-03
Ga 6.302433e+00 -3.690969e+00 -2.666800e-01 -6.038105e-05 -4.686681e-04 4.872052e-02
Al 4.738139e+00 -9.815320e-01 5.013378e+00 -1.453237e-03 1.324654e-02 -5.079324e-03
Al 4.738139e+00 -9.815320e-01 -5.283635e+00 -1.283116e-03 1.290897e-02 -5.068580e-03
Ga 4.738139e+00 -9.815320e-01 -2.666800e-01 -6.959450e-04 1.755744e-02 4.551385e-02
Al -3.219102e+00 1.806291e+00 5.013378e+00 2.911775e-03 -1.570578e-03 -4.881863e-03
Ga -3.219102e+00 1.806291e+00 -5.283635e+00 3.106052e-03 -2.156889e-03 -5.051283e-03
Al -3.219102e+00 1.806291e+00 -2.666800e-01 3.196709e-03 -2.091533e-03 3.443926e-02
Al -4.525703e-02 -3.690969e+00 5.013378e+00 3.144465e-03 1.444032e-03 -3.466277e-03
Al -4.525703e-02 -3.690969e+00 -5.283635e+00 2.480505e-03 1.486337e-03 -3.814952e-03
Al -4.525703e-02 -3.690969e+00 -2.666800e-01 3.454051e-03 1.434139e-03 3.514197e-02
Al -1.609551e+00 -9.815320e-01 5.013378e+00 1.544363e-03 1.433018e-02 -6.369181e-03
Al -1.609551e+00 -9.815320e-01 -5.283635e+00 1.068745e-03 1.443264e-02 -5.780230e-03
Al -1.609551e+00 -9.815320e-01 -2.666800e-01 1.540451e-03 1.509226e-02 3.433231e-02
N 1.564294e+00 9.031460e-01 4.418497e+00 1.818984e-02 -2.433147e-02 -1.929222e-03
N 1.564294e+00 9.031460e-01 -5.878516e+00 -4.661193e-04 -1.373076e-02 5.592935e-03
N 1.564294e+00 9.031460e-01 -8.615610e-01 -1.062905e-03 3.902197e-03 1.198102e-03
N 2.938992e-08 3.612582e+00 4.418497e+00 -2.113709e-02 1.087627e-02 -1.237520e-02
N 2.938992e-08 3.612582e+00 -5.878516e+00 1.671940e-02 -1.105486e-02 -4.669289e-03
N 2.938992e-08 3.612582e+00 -8.615610e-01 -2.049923e-02 -1.039314e-02 -2.782659e-03
N 3.173845e+00 -1.884678e+00 4.418497e+00 -2.377484e-03 1.531048e-03 2.655821e-03
N 3.173845e+00 -1.884678e+00 -5.878516e+00 -2.874934e-03 2.329797e-02 -5.783014e-03
N 3.173845e+00 -1.884678e+00 -8.615610e-01 -2.456485e-03 -1.959246e-02 1.374740e-02
N -4.783396e+00 9.031460e-01 4.418497e+00 9.027223e-04 -1.327987e-02 6.166269e-03
N -4.783396e+00 9.031460e-01 -5.878516e+00 -1.856051e-02 -2.449889e-02 -2.096646e-03
N -4.783396e+00 9.031460e-01 -8.615610e-01 4.297412e-04 3.858126e-03 1.340663e-03
N -6.347690e+00 3.612582e+00 4.418497e+00 1.845640e-02 -1.082516e-02 1.964533e-02
N -6.347690e+00 3.612582e+00 -5.878516e+00 -9.891342e-05 1.913368e-04 3.493471e-03
N -6.347690e+00 3.612582e+00 -8.615610e-01 1.802260e-02 -1.031700e-02 -2.215302e-03
N -3.173845e+00 -1.884678e+00 4.418497e+00 -1.160293e-03 2.369279e-02 -5.113145e-03
N -3.173845e+00 -1.884678e+00 -5.878516e+00 -9.731471e-04 1.851987e-03 2.631126e-02
N -3.173845e+00 -1.884678e+00 -8.615610e-01 1.737721e-02 1.265286e-02 1.373353e-02
N -1.654808e+00 9.031460e-01 4.418497e+00 -2.124785e-03 -1.621762e-02 2.708843e-03
N -1.654808e+00 9.031460e-01 -5.878516e+00 3.248416e-02 -1.882069e-02 -1.174997e-04
N -1.654808e+00 9.031460e-01 -8.615610e-01 1.360733e-02 -8.234177e-03 3.239476e-02
N -3.219102e+00 3.612582e+00 4.418497e+00 1.222850e-02 5.796226e-03 2.980687e-02
N -3.219102e+00 3.612582e+00 -5.878516e+00 -3.676349e-03 1.972545e-02 -8.096977e-03
N -3.219102e+00 3.612582e+00 -8.615610e-01 1.197076e-02 5.995105e-03 6.997037e-03
N -4.525702e-02 -1.884678e+00 4.418497e+00 1.159395e-02 7.462099e-03 2.865595e-02
N -4.525702e-02 -1.884678e+00 -5.878516e+00 1.190499e-02 7.278389e-03 2.888961e-02
N -4.525702e-02 -1.884678e+00 -8.615610e-01 -4.326011e-03 -9.678905e-04 1.005519e-03
N 1.469567e-08 1.806291e+00 1.910020e+00 -1.161716e-02 -7.554618e-03 -2.940262e-02
N 1.469567e-08 1.806291e+00 6.926975e+00 -1.120533e-02 -7.633727e-03 2.871133e-02
N 1.469567e-08 1.806291e+00 -3.370038e+00 3.882669e-03 1.144167e-03 -7.720068e-04
N 3.173845e+00 -3.690969e+00 1.910020e+00 3.318984e-03 3.026581e-03 -3.456333e-02
N 3.173845e+00 -3.690969e+00 6.926975e+00 -1.159570e-02 -5.766971e-03 5.156054e-03
N 3.173845e+00 -3.690969e+00 -3.370038e+00 -1.231800e-02 -2.851574e-02 2.149952e-02
N 1.609551e+00 -9.815320e-01 1.910020e+00 1.914274e-03 1.643181e-02 -2.033915e-02
N 1.609551e+00 -9.815320e-01 6.926975e+00 1.997247e-03 1.674581e-02 2.381227e-03
N 1.609551e+00 -9.815320e-01 -3.370038e+00 -3.257017e-02 1.892127e-02 -2.285474e-04
N 3.128588e+00 1.806291e+00 1.910020e+00 1.528982e-03 -2.421003e-02 -3.955497e-02
N 3.128588e+00 1.806291e+00 6.926975e+00 7.086072e-04 -1.636021e-03 2.939230e-03
N 3.128588e+00 1.806291e+00 -3.370038e+00 1.100288e-03 -1.633180e-03 2.975049e-03
N 6.302433e+00 -3.690969e+00 1.910020e+00 -1.843323e-02 1.117041e-02 -2.776112e-02
N 6.302433e+00 -3.690969e+00 6.926975e+00 6.262327e-04 -2.240055e-02 1.927110e-02
N 6.302433e+00 -3.690969e+00 -3.370038e+00 2.364787e-04 -2.251563e-02 -4.865500e-03
N 4.738139e+00 -9.815320e-01 1.910020e+00 -1.067557e-03 1.384567e-02 -1.706255e-02
N 4.738139e+00 -9.815320e-01 6.926975e+00 -1.989234e-02 2.452055e-02 -2.227611e-03
N 4.738139e+00 -9.815320e-01 -3.370038e+00 -5.060513e-04 3.555978e-02 -1.046123e-02
N -3.219102e+00 1.806291e+00 1.910020e+00 2.379824e-03 -2.359751e-02 -3.999667e-02
N -3.219102e+00 1.806291e+00 6.926975e+00 2.402934e-03 -1.756452e-03 2.183702e-03
N -3.219102e+00 1.806291e+00 -3.370038e+00 -1.572855e-02 9.182174e-03 1.851214e-02
N -4.525703e-02 -3.690969e+00 1.910020e+00 2.757933e-03 7.012007e-05 -5.527715e-02
N -4.525703e-02 -3.690969e+00 6.926975e+00 1.656688e-03 -2.180279e-02 -4.643858e-03
N -4.525703e-02 -3.690969e+00 -3.370038e+00 2.093637e-03 -1.300532e-04 3.254432e-03
N -1.609551e+00 -9.815320e-01 1.910020e+00 -1.842180e-02 2.461639e-02 -3.669606e-02
N -1.609551e+00 -9.815320e-01 6.926975e+00 9.346514e-04 3.551471e-02 -1.024618e-02
N -1.609551e+00 -9.815320e-01 -3.370038e+00 2.010229e-02 7.382699e-03 -8.420129e-03
