108
Energy=-1123296.478978 Lattice="9.476124 0.000000 0.000000 -4.738229 8.205050 0.000000 -0.000720 -0.014217 15.271671" Stress="0.000000 -0.000000 -0.000000 -0.000000 -0.000001 -0.000003 -0.000000 -0.000003 0.000001" Properties=species:S:1:pos:R:3:forces:R:3
Al 1.554672 0.870662 2.398160 0.000019 0.000082 0.000021
Al 1.554352 0.868264 7.460911 0.000017 0.000060 -0.000043
Al 1.559584 0.873944 -2.669481 -0.000059 0.000046 -0.000006
Al -0.038334 3.601635 2.385491 -0.000014 -0.000021 -0.000058
Al -0.021859 3.591101 7.470650 0.000091 -0.000020 -0.000044
Al -0.016060 3.612799 -2.663892 -0.000031 -0.000070 0.000059
Al 3.129688 -1.875551 2.379074 0.000019 -0.000030 0.000171
Al 3.131947 -1.865168 7.496267 -0.000021 -0.000080 -0.000021
Ga 3.137752 -1.850473 -2.682216 -0.000002 -0.000023 -0.000022
Al -4.766332 0.871742 2.414157 -0.000067 0.000017 0.000174
Al -4.761950 0.868876 7.479172 -0.000023 0.000215 0.000019
Al -4.756628 0.875372 -2.698154 0.000035 0.000032 -0.000141
Ga -6.334369 3.597779 2.384449 0.000011 -0.000012 -0.000018
Al -6.339055 3.596322 7.483937 0.000001 -0.000043 0.000019
Ga -6.345758 3.610809 -2.673385 0.000006 -0.000012 0.000028
Al -3.175613 -1.857550 2.400366 0.000000 -0.000045 0.000077
Ga -3.176388 -1.866456 7.500565 0.000014 -0.000043 0.000002
Al -3.184696 -1.860800 -2.707463 0.000043 0.000091 0.000066
Al -1.593323 0.865172 2.401048 -0.000020 -0.000000 0.000042
Al -1.597945 0.865085 7.467395 0.000073 -0.000098 -0.000099
Ga -1.608218 0.879074 -2.679811 0.000005 -0.000021 -0.000004
Al -3.170497 3.613403 2.421624 -0.000057 -0.000010 -0.000005
Ga -3.184206 3.595434 7.464018 -0.000008 0.000003 -0.000027
Al -3.184766 3.602529 -2.693862 0.000045 0.000020 0.000099
Al -0.024304 -1.860553 2.388051 -0.000021 -0.000089 -0.000015
Al -0.023608 -1.864625 7.488324 0.000078 0.000004 0.000019
Ga -0.020254 -1.854655 -2.682997 -0.000024 -0.000017 0.000008
Al -0.033270 1.779764 4.931022 -0.000036 -0.000015 0.000020
Ga -0.021956 1.784489 -5.244601 0.000012 -0.000029 0.000011
Al -0.007435 1.786161 -0.131604 0.000004 -0.000007 -0.000014
Al 3.133152 -3.701113 4.932635 -0.000072 0.000008 0.000075
Ga 3.138803 -3.678929 -5.234678 -0.000027 0.000009 -0.000001
Al 3.131082 -3.695504 -0.139415 -0.000025 -0.000093 0.000000
Ga 1.546254 -0.960775 4.933394 -0.000010 -0.000016 0.000007
Al 1.550405 -0.945299 -5.265544 -0.000046 0.000003 -0.000068
Al 1.544477 -0.940916 -0.112257 -0.000126 0.000030 -0.000038
Al 3.140845 1.782898 4.955095 -0.000062 -0.000008 -0.000003
Ga 3.142695 1.785524 -5.248846 0.000003 -0.000005 -0.000014
Al 3.124144 1.776988 -0.146971 0.000002 0.000093 -0.000021
Ga 6.293421 -3.701973 4.936407 0.000006 -0.000021 -0.000001
Al 6.297573 -3.673444 -5.240110 0.000214 0.000071 0.000032
Al 6.289420 -3.682717 -0.137336 0.000033 -0.000132 0.000023
Ga 4.712134 -0.948846 4.931801 -0.000011 -0.000002 -0.000049
Al 4.723591 -0.938598 -5.240190 -0.000025 -0.000044 -0.000029
Ga 4.722334 -0.952269 -0.128988 0.000024 -0.000010 -0.000020
Al -3.175441 1.779586 4.917599 -0.000005 -0.000016 -0.000051
Al -3.186706 1.777817 -5.243844 -0.000040 0.000008 0.000008
Ga -3.184461 1.799153 -0.118100 0.000038 0.000027 -0.000016
Al -0.019673 -3.688809 4.937714 0.000023 0.000083 -0.000049
Al -0.028543 -3.671323 -5.251160 -0.000004 0.000045 -0.000003
Al -0.012697 -3.678889 -0.130275 -0.000025 -0.000003 0.000031
Al -1.590042 -0.947514 4.932977 0.000088 0.000055 -0.000064
Al -1.601655 -0.949861 -5.252059 0.000003 -0.000046 0.000054
Al -1.596728 -0.962735 -0.125191 0.000054 0.000055 -0.000037
N 1.558930 0.919354 4.320354 0.000061 -0.000041 -0.000036
N 1.556110 0.837298 -5.907148 -0.000020 -0.000004 0.000022
N 1.553577 0.866251 -0.746713 0.000011 0.000004 0.000011
N -0.067736 3.576831 4.301812 0.000070 -0.000024 0.000043
N 0.017286 3.634413 -5.894419 -0.000114 -0.000073 -0.000007
N -0.020998 3.607986 -0.740298 -0.000016 0.000012 0.000015
N 3.131346 -1.918991 4.285931 0.000000 0.000045 -0.000170
N 3.139288 -1.812571 -5.857280 0.000123 -0.000007 0.000007
N 3.090097 -1.879904 -0.702596 0.000078 -0.000009 -0.000028
N -4.768573 0.919257 4.320044 0.000017 -0.000013 -0.000043
N -4.717789 0.856200 -5.877388 0.000009 -0.000000 0.000013
N -4.794604 0.896184 -0.789742 -0.000040 0.000014 0.000138
N -6.296883 3.575563 4.355866 -0.000015 0.000014 0.000032
N -6.340292 3.660119 -5.866236 -0.000102 -0.000013 -0.000007
N -6.338947 3.612138 -0.684776 -0.000018 -0.000043 0.000003
N -3.136420 -1.844431 4.305809 -0.000067 -0.000035 -0.000075
N -3.180548 -1.856699 -5.795946 -0.000010 0.000015 0.000008
N -3.137326 -1.884255 -0.780918 -0.000058 0.000068 -0.000103
N -1.595996 0.864151 4.323449 0.000000 0.000020 -0.000010
N -1.642227 0.856293 -5.877405 -0.000023 0.000038 -0.000018
N -1.563619 0.848871 -0.702733 -0.000019 -0.000033 0.000004
N -3.181512 3.608060 4.344994 0.000003 0.000003 0.000008
N -3.221777 3.586642 -5.831213 0.000036 0.000003 -0.000027
N -3.185309 3.652368 -0.776975 0.000004 0.000015 -0.000085
N -0.065715 -1.892197 4.300928 0.000005 -0.000073 0.000066
N -0.025022 -1.857405 -5.859069 -0.000004 0.000012 0.000002
N -0.020724 -1.858950 -0.697961 0.000061 -0.000000 0.000059
N -0.018934 1.780775 1.789498 -0.000016 0.000018 -0.000003
N -0.026669 1.777544 6.858489 -0.000008 0.000018 0.000027
N 0.020925 1.812973 -3.262636 0.000056 -0.000060 -0.000011
N 3.130763 -3.697320 1.779807 -0.000000 0.000014 0.000013
N 3.178749 -3.665179 6.853056 -0.000027 0.000103 0.000009
N 3.141313 -3.730754 -3.258926 -0.000071 0.000035 -0.000004
N 1.552508 -0.946178 1.805131 0.000021 0.000013 0.000007
N 1.555746 -0.962940 6.915595 -0.000095 -0.000066 -0.000006
N 1.554529 -0.895770 -3.348533 0.000003 0.000003 0.000069
N 3.135926 1.725802 1.762267 -0.000021 -0.000069 -0.000006
N 3.139171 1.778088 6.878930 -0.000003 0.000026 0.000009
N 3.132382 1.741382 -3.269417 -0.000001 0.000018 0.000004
N 6.249009 -3.661764 1.778299 0.000016 0.000050 0.000020
N 6.294837 -3.737776 6.903562 -0.000062 0.000027 0.000004
N 6.250860 -3.665591 -3.316029 0.000051 0.000006 -0.000055
N 4.719136 -0.949380 1.849512 -0.000002 -0.000027 -0.000056
N 4.673625 -0.936278 6.904247 0.000009 -0.000158 -0.000001
N 4.753734 -0.921928 -3.317888 -0.000011 -0.000062 0.000030
N -3.182900 1.786033 1.862757 0.000116 0.000063 -0.000029
N -3.180193 1.725232 6.835039 0.000015 0.000009 0.000047
N -3.220117 1.808690 -3.322588 -0.000019 -0.000035 0.000052
N 0.029208 -3.667742 1.778917 0.000018 0.000079 -0.000059
N -0.064970 -3.663066 6.853696 0.000018 0.000017 -0.000030
N 0.013077 -3.702130 -3.337519 0.000031 -0.000016 -0.000000
N -1.604685 -0.953621 1.789974 -0.000012 0.000005 -0.000022
N -1.558365 -0.935785 6.851851 -0.000065 0.000115 0.000097
N -1.636761 -0.967344 -3.342106 -0.000016 0.000001 -0.000009
