108
Energy=-1397949.259295 Lattice="9.508731 0.000000 0.000000 -4.756546 8.231834 0.000000 -0.000272 0.003659 15.347379" Stress="-0.000005 -0.000001 0.000000 -0.000001 -0.000007 -0.000000 0.000000 -0.000000 -0.000004" Properties=species:S:1:pos:R:3:forces:R:3
Al 1.565972 0.868893 2.389987 0.000113 0.000249 0.000296
Al 1.547620 0.883055 7.536638 0.000124 0.000093 0.000139
Al 1.580647 0.868510 -2.694708 0.000057 -0.000064 -0.000231
Al -0.034354 3.626809 2.416255 0.000232 -0.000011 -0.000116
Al -0.018640 3.609679 7.504763 0.000005 -0.000025 0.000162
Ga -0.024351 3.622891 -2.692566 -0.000095 0.000124 0.000032
Al 3.147828 -1.872988 2.369111 -0.000041 0.000011 0.000084
Ga 3.146421 -1.872643 7.521594 0.000007 0.000061 0.000060
Al 3.143207 -1.860566 -2.664196 0.000275 -0.000132 0.000028
Al -4.778580 0.872008 2.365847 0.000258 0.000132 0.000224
Ga -4.774617 0.881255 7.539339 0.000162 -0.000019 0.000100
Al -4.785193 0.879496 -2.674630 -0.000083 -0.000059 -0.000037
Ga -6.363144 3.615869 2.414565 -0.000035 -0.000029 -0.000015
Ga -6.374764 3.621743 7.532730 0.000002 0.000007 0.000064
Al -6.361287 3.603809 -2.712588 -0.000005 0.000122 0.000169
Al -3.200076 -1.865227 2.387979 0.000187 0.000071 -0.000089
Ga -3.189122 -1.877763 7.540677 -0.000179 0.000006 0.000066
Al -3.189382 -1.858370 -2.693551 0.000132 -0.000157 -0.000124
Ga -1.614604 0.880649 2.402944 0.000047 -0.000086 0.000051
Al -1.598050 0.889801 7.505618 0.000173 -0.000102 -0.000022
Al -1.621302 0.866298 -2.675917 0.000175 0.000029 0.000065
Al -3.183964 3.621443 2.408165 -0.000075 -0.000197 -0.000094
Ga -3.184523 3.617064 7.505002 0.000092 -0.000189 0.000125
Al -3.195678 3.613311 -2.681202 0.000131 -0.000283 0.000176
Al -0.014342 -1.863106 2.381860 0.000007 -0.000158 -0.000207
Ga -0.018577 -1.858665 7.558834 0.000102 -0.000149 0.000134
Ga -0.021700 -1.857892 -2.707286 -0.000096 0.000051 0.000104
Al -0.023485 1.808832 4.965317 0.000159 -0.000275 -0.000185
Ga -0.013260 1.774807 -5.262073 -0.000140 0.000082 0.000113
Ga -0.020796 1.775804 -0.147175 -0.000124 0.000169 0.000048
Al 3.153301 -3.713956 4.930842 -0.000006 0.000070 -0.000033
Ga 3.143980 -3.692967 -5.244774 -0.000104 0.000177 0.000062
Al 3.135233 -3.691850 -0.131609 0.000101 -0.000131 -0.000028
Ga 1.557650 -0.957647 4.936934 -0.000019 0.000133 0.000009
Al 1.562772 -0.946804 -5.238739 -0.000116 0.000184 0.000065
Al 1.575058 -0.948751 -0.138953 -0.000117 -0.000177 -0.000075
Ga 3.143882 1.793563 4.952919 0.000151 -0.000106 0.000039
Al 3.134931 1.792789 -5.235986 -0.000245 0.000026 -0.000148
Al 3.153195 1.771026 -0.154771 -0.000106 0.000215 -0.000176
Al 6.304241 -3.701876 4.944955 -0.000144 0.000070 -0.000119
Al 6.332585 -3.700904 -5.240479 0.000023 0.000012 0.000142
Ga 6.317117 -3.686627 -0.142618 0.000088 -0.000151 -0.000102
Ga 4.737618 -0.958319 4.923881 -0.000102 0.000068 0.000040
Ga 4.730126 -0.958198 -5.210664 -0.000047 -0.000121 0.000093
Al 4.729817 -0.947348 -0.158568 0.000040 0.000019 -0.000066
Al -3.190303 1.806589 4.944158 0.000004 -0.000303 0.000025
Ga -3.193292 1.787637 -5.226957 0.000138 -0.000004 0.000225
Al -3.201693 1.788140 -0.159895 0.000222 -0.000134 0.000049
Al -0.011330 -3.695987 4.933400 0.000060 -0.000140 0.000059
Al -0.034561 -3.698146 -5.225379 0.000012 0.000039 0.000054
Ga -0.010101 -3.704301 -0.149296 0.000106 0.000083 0.000043
Ga -1.604603 -0.959176 4.953141 -0.000123 -0.000020 0.000116
Al -1.604952 -0.955755 -5.246120 -0.000020 0.000200 0.000020
Al -1.616997 -0.948620 -0.143844 -0.000191 -0.000053 -0.000077
N 1.518181 0.901715 4.300165 -0.000099 0.000059 -0.000210
N 1.603827 0.849728 -5.888815 0.000273 0.000025 0.000019
N 1.606978 0.846842 -0.780939 0.000175 -0.000061 0.000262
N -0.023974 3.616445 4.340136 -0.000143 -0.000042 -0.000034
N 0.019042 3.642941 -5.909243 0.000038 -0.000013 -0.000234
N -0.066269 3.644102 -0.735044 -0.000117 0.000054 0.000071
N 3.145942 -1.918113 4.285169 0.000046 -0.000023 -0.000140
N 3.109218 -1.845326 -5.856729 -0.000046 0.000040 -0.000139
N 3.143020 -1.870875 -0.737743 -0.000060 -0.000035 0.000138
N -4.736145 0.904022 4.284253 0.000094 0.000067 -0.000132
N -4.817332 0.896832 -5.835732 0.000040 0.000032 -0.000027
N -4.780561 0.876528 -0.754022 0.000068 0.000006 0.000076
N -6.363482 3.666017 4.383171 -0.000044 0.000039 -0.000073
N -6.362068 3.618489 -5.817040 0.000009 -0.000102 0.000117
N -6.364320 3.568347 -0.795118 -0.000070 -0.000051 -0.000142
N -3.187297 -1.914570 4.295034 0.000046 0.000003 -0.000048
N -3.154223 -1.895462 -5.825862 0.000026 0.000096 -0.000054
N -3.188719 -1.821199 -0.778142 0.000063 0.000120 0.000001
N -1.606347 0.925339 4.378999 0.000165 0.000216 0.000078
N -1.613117 0.832667 -5.919462 0.000003 -0.000223 -0.000119
N -1.649767 0.848338 -0.762211 -0.000152 0.000103 0.000158
N -3.190182 3.619143 4.335867 0.000035 -0.000114 -0.000071
N -3.238846 3.641541 -5.864345 -0.000045 -0.000125 -0.000147
N -3.149307 3.596736 -0.772473 -0.000010 0.000117 -0.000077
N -0.023346 -1.909867 4.289207 0.000050 -0.000069 0.000086
N -0.020086 -1.871579 -5.792789 0.000052 -0.000067 -0.000008
N -0.021724 -1.816163 -0.727397 0.000205 0.000044 0.000023
N 0.017083 1.815155 1.821169 0.000212 -0.000025 0.000055
N -0.016760 1.791737 6.906510 -0.000104 0.000106 -0.000052
N -0.024205 1.735117 -3.274352 -0.000158 -0.000142 -0.000003
N 3.145061 -3.703973 1.791620 0.000014 -0.000002 -0.000017
N 3.192750 -3.721217 6.853660 0.000033 0.000040 0.000028
N 3.104183 -3.670208 -3.272351 -0.000009 0.000062 0.000017
N 1.565090 -0.949747 1.782240 -0.000115 0.000077 -0.000029
N 1.560620 -0.905440 6.913649 -0.000336 0.000148 -0.000078
N 1.612045 -0.929858 -3.323483 -0.000204 0.000291 -0.000020
N 3.143696 1.745573 1.762922 -0.000325 -0.000204 -0.000079
N 3.104497 1.764838 6.924724 -0.000091 -0.000056 -0.000047
N 3.145272 1.784156 -3.311834 -0.000002 0.000026 -0.000013
N 6.276356 -3.677014 1.824817 -0.000241 -0.000157 0.000127
N 6.276216 -3.717921 6.862617 -0.000001 -0.000036 0.000090
N 6.357308 -3.672960 -3.321157 0.000090 -0.000035 -0.000106
N 4.733476 -0.954333 1.770887 -0.000104 -0.000015 0.000042
N 4.737097 -0.951603 6.893255 -0.000144 -0.000029 -0.000158
N 4.726661 -0.954365 -3.228011 -0.000003 0.000061 0.000051
N -3.233552 1.819705 1.758412 0.000082 0.000207 -0.000142
N -3.158166 1.767014 6.861784 0.000024 0.000063 -0.000255
N -3.192784 1.787042 -3.243175 0.000001 0.000270 -0.000053
N 0.021772 -3.679992 1.821474 0.000050 -0.000043 0.000053
N -0.023019 -3.687752 6.850444 -0.000096 0.000175 -0.000184
N -0.018721 -3.746811 -3.309245 -0.000139 -0.000035 -0.000045
N -1.610400 -0.997250 1.771101 -0.000052 -0.000064 0.000181
N -1.603889 -0.912189 6.925841 -0.000006 0.000075 -0.000010
N -1.651060 -0.922283 -3.331384 -0.000151 -0.000077 -0.000064
