108
Energy=-1123296.477882 Lattice="9.476292 0.000000 0.000000 -4.738704 8.204168 0.000000 -0.001406 -0.024782 15.273404" Stress="0.000000 -0.000000 -0.000000 -0.000000 -0.000002 -0.000006 -0.000000 -0.000006 0.000002" Properties=species:S:1:pos:R:3:forces:R:3
Al 1.554670 0.869460 2.398450 -0.000053 -0.000092 0.000058
Al 1.554276 0.862835 7.461745 -0.000012 -0.000008 0.000012
Al 1.559503 0.876037 -2.669601 -0.000061 0.000039 -0.000044
Al -0.038697 3.599766 2.385496 0.000026 0.000006 0.000051
Al -0.022046 3.585231 7.471455 0.000027 0.000000 0.000049
Al -0.016394 3.614449 -2.664110 -0.000028 -0.000078 -0.000001
Al 3.129841 -1.876920 2.379926 -0.000039 -0.000015 -0.000096
Al 3.131829 -1.870824 7.496877 0.000002 0.000058 0.000050
Ga 3.137851 -1.847889 -2.682201 -0.000001 -0.000045 -0.000021
Al -4.766659 0.870214 2.414989 0.000017 -0.000048 0.000036
Al -4.762296 0.863845 7.480173 0.000016 -0.000016 -0.000064
Al -4.756745 0.877508 -2.698907 -0.000050 -0.000098 0.000079
Ga -6.334634 3.596015 2.384411 0.000007 -0.000022 0.000046
Al -6.339437 3.590540 7.484909 -0.000067 0.000017 -0.000009
Ga -6.345833 3.612654 -2.673462 -0.000013 -0.000053 -0.000038
Al -3.175868 -1.858921 2.400847 0.000050 0.000005 -0.000001
Ga -3.176588 -1.871666 7.501646 0.000030 -0.000026 -0.000038
Al -3.184516 -1.858195 -2.707571 -0.000025 -0.000018 -0.000032
Al -1.593620 0.863716 2.401401 0.000001 -0.000058 0.000007
Al -1.597939 0.859755 7.468494 -0.000029 -0.000099 -0.000144
Ga -1.608326 0.881073 -2.679845 0.000016 -0.000015 -0.000020
Al -3.171045 3.611592 2.421959 0.000059 -0.000033 0.000002
Ga -3.184721 3.590130 7.464995 0.000009 -0.000046 -0.000030
Al -3.184748 3.604330 -2.694128 -0.000022 -0.000029 0.000073
Al -0.024427 -1.862027 2.388299 0.000012 0.000038 -0.000007
Al -0.023651 -1.869933 7.489334 -0.000110 0.000110 -0.000029
Ga -0.020078 -1.852244 -2.682943 0.000003 0.000006 -0.000057
Al -0.033306 1.775957 4.931554 -0.000035 0.000068 0.000002
Ga -0.022097 1.787966 -5.245082 0.000024 0.000009 -0.000012
Al -0.007767 1.786469 -0.131474 0.000021 -0.000058 -0.000030
Al 3.133231 -3.704175 4.933393 0.000018 -0.000033 -0.000045
Ga 3.139206 -3.674565 -5.235051 0.000031 -0.000027 -0.000025
Al 3.131066 -3.694751 -0.139474 0.000025 -0.000012 0.000036
Ga 1.546315 -0.964163 4.934008 -0.000012 -0.000019 -0.000030
Al 1.550797 -0.941457 -5.266298 -0.000028 0.000039 -0.000003
Al 1.544156 -0.940207 -0.111991 0.000019 -0.000069 -0.000015
Al 3.140503 1.779650 4.955691 0.000020 -0.000107 -0.000014
Ga 3.142696 1.789270 -5.249239 -0.000022 -0.000046 -0.000027
Al 3.123965 1.777373 -0.146846 0.000019 -0.000109 -0.000022
Ga 6.293837 -3.704825 4.937134 -0.000011 -0.000021 -0.000015
Al 6.298726 -3.669143 -5.240337 -0.000101 -0.000029 -0.000016
Al 6.289661 -3.682220 -0.137389 -0.000006 0.000008 -0.000047
Ga 4.712171 -0.952226 4.932377 0.000011 0.000002 -0.000019
Al 4.723971 -0.935037 -5.240982 -0.000019 0.000053 0.000009
Ga 4.722550 -0.951595 -0.128932 -0.000053 0.000005 0.000019
Al -3.175614 1.775834 4.918455 -0.000005 0.000011 -0.000076
Al -3.186970 1.781642 -5.244476 0.000032 -0.000088 0.000086
Ga -3.184646 1.799533 -0.118070 -0.000003 -0.000020 0.000008
Al -0.019360 -3.691893 4.938200 -0.000024 0.000087 -0.000027
Al -0.028230 -3.667013 -5.251398 0.000024 -0.000009 -0.000088
Al -0.012666 -3.678407 -0.130405 0.000029 0.000003 0.000024
Al -1.589751 -0.950646 4.933431 -0.000039 -0.000029 -0.000021
Al -1.601359 -0.945893 -5.252549 -0.000016 -0.000051 0.000069
Al -1.596775 -0.962347 -0.125262 0.000004 0.000049 0.000022
N 1.558993 0.915922 4.320855 0.000022 0.000019 -0.000045
N 1.556145 0.841319 -5.907871 0.000011 -0.000043 -0.000020
N 1.553269 0.866930 -0.746866 0.000019 0.000005 0.000041
N -0.067559 3.573341 4.302235 -0.000051 -0.000032 0.000016
N 0.017127 3.637909 -5.894999 0.000012 0.000010 -0.000019
N -0.021404 3.608139 -0.740523 0.000009 0.000035 0.000034
N 3.131409 -1.922008 4.285933 -0.000002 0.000016 0.000073
N 3.139858 -1.808339 -5.858321 0.000019 -0.000038 0.000018
N 3.090249 -1.878940 -0.702638 -0.000002 0.000000 -0.000012
N -4.768843 0.916043 4.320702 -0.000006 0.000008 -0.000000
N -4.718009 0.860309 -5.878160 0.000042 -0.000066 0.000050
N -4.794940 0.896954 -0.789729 -0.000010 -0.000010 0.000003
N -6.297142 3.572125 4.356079 -0.000018 0.000029 0.000005
N -6.340578 3.663769 -5.866998 0.000067 -0.000007 0.000011
N -6.339389 3.611894 -0.684970 -0.000000 0.000122 0.000036
N -3.136483 -1.847358 4.306030 -0.000013 -0.000006 0.000012
N -3.180156 -1.852578 -5.796590 0.000004 0.000029 0.000011
N -3.137592 -1.883190 -0.781513 0.000035 -0.000057 0.000049
N -1.596133 0.860950 4.323820 0.000007 0.000030 0.000001
N -1.642405 0.860112 -5.878172 0.000003 0.000082 0.000024
N -1.563811 0.849418 -0.702773 -0.000016 -0.000057 -0.000001
N -3.181778 3.604350 4.345381 -0.000009 0.000040 0.000032
N -3.221749 3.590300 -5.831969 -0.000037 0.000071 0.000008
N -3.185514 3.652689 -0.777446 -0.000049 -0.000005 -0.000018
N -0.065586 -1.895252 4.301324 -0.000009 -0.000071 0.000039
N -0.024715 -1.853159 -5.859783 0.000002 -0.000008 0.000007
N -0.020766 -1.858481 -0.697980 0.000042 0.000059 0.000027
N -0.019188 1.779200 1.789632 0.000023 0.000047 -0.000003
N -0.026705 1.772033 6.859098 -0.000022 0.000016 0.000024
N 0.020730 1.814737 -3.263244 0.000073 0.000013 0.000067
N 3.130841 -3.698396 1.779873 -0.000003 0.000044 0.000014
N 3.178906 -3.670069 6.853615 -0.000047 0.000040 0.000023
N 3.141423 -3.727941 -3.259311 0.000013 0.000009 -0.000017
N 1.552519 -0.947415 1.805557 -0.000000 0.000040 -0.000023
N 1.555307 -0.968542 6.916263 0.000053 0.000064 -0.000012
N 1.554687 -0.893335 -3.348914 -0.000015 -0.000031 0.000023
N 3.135868 1.723902 1.762451 -0.000004 0.000103 -0.000024
N 3.139045 1.772712 6.879545 -0.000021 0.000047 0.000023
N 3.132299 1.743443 -3.269886 0.000013 0.000043 0.000010
N 6.249424 -3.662592 1.778134 -0.000043 -0.000039 0.000048
N 6.294861 -3.742772 6.904382 0.000043 0.000054 -0.000023
N 6.251316 -3.663159 -3.316271 0.000058 0.000076 -0.000048
N 4.719144 -0.950760 1.849738 0.000017 0.000020 -0.000029
N 4.673588 -0.942017 6.904922 -0.000031 0.000113 0.000017
N 4.753781 -0.919967 -3.318518 0.000040 0.000062 0.000021
N -3.183032 1.784659 1.863005 0.000020 0.000008 -0.000048
N -3.180332 1.720144 6.835897 -0.000009 -0.000021 0.000056
N -3.220405 1.810410 -3.322557 0.000073 0.000111 -0.000161
N 0.029569 -3.668553 1.778707 -0.000076 -0.000011 -0.000020
N -0.065071 -3.667730 6.854284 0.000026 -0.000049 -0.000007
N 0.013507 -3.699413 -3.337968 -0.000008 -0.000025 0.000067
N -1.604884 -0.954916 1.790102 0.000004 0.000009 -0.000023
N -1.558882 -0.940694 6.852527 0.000088 0.000036 0.000112
N -1.636571 -0.964979 -3.342476 -0.000009 -0.000021 -0.000021
