108
Energy=-1535275.752904 Lattice="9.527981 0.000000 0.000000 -4.766714 8.250594 0.000000 -0.003480 0.012308 15.387465" Stress="-0.000001 0.000000 -0.000000 0.000000 0.000001 0.000003 -0.000000 0.000003 -0.000002" Properties=species:S:1:pos:R:3:forces:R:3
Al 1.552646 0.881655 2.392571 0.000589 0.000343 0.000135
Al 1.553916 0.878559 7.540980 0.000038 0.000005 0.000306
Al 1.547867 0.856309 -2.686363 -0.000445 0.000632 -0.001345
Al -0.019834 3.612722 2.408342 -0.001122 -0.001138 0.000078
Al -0.024835 3.631038 7.537813 0.002507 -0.000475 -0.000133
Al -0.033356 3.622671 -2.704883 -0.000304 -0.000028 0.000056
Al 3.157476 -1.868674 2.389075 0.001891 0.002137 -0.000792
Al 3.152535 -1.866700 7.554983 -0.000123 0.000336 0.000658
Al 3.141712 -1.881468 -2.697193 -0.001179 -0.000442 0.000275
Al -4.798415 0.863736 2.412876 -0.000239 -0.000081 -0.000275
Ga -4.805158 0.869086 7.534063 0.000048 -0.000184 0.000084
Ga -4.795238 0.865277 -2.685434 0.000088 0.000019 -0.000013
Al -6.378968 3.625391 2.422991 -0.000101 -0.000291 0.000433
Ga -6.393567 3.636619 7.547344 -0.000229 -0.000107 0.000149
Ga -6.385437 3.632267 -2.712998 0.000057 0.000024 -0.000245
Ga -3.209897 -1.861358 2.416114 -0.000191 0.000372 0.000346
Ga -3.206932 -1.879359 7.531046 0.000005 0.000073 0.000371
Ga -3.192961 -1.876369 -2.698491 0.000142 0.000026 0.000199
Al -1.586140 0.880229 2.409557 -0.000636 0.001280 0.000060
Ga -1.591711 0.883371 7.539303 0.000390 -0.000310 0.000045
Al -1.585731 0.868971 -2.693633 0.000305 -0.000126 0.000313
Ga -3.197865 3.635325 2.399714 -0.000002 -0.000187 0.000194
Ga -3.192532 3.651170 7.558024 -0.000105 0.000010 0.000265
Ga -3.182549 3.647935 -2.696956 0.000185 0.000434 0.000087
Ga -0.018984 -1.864270 2.401445 0.000171 0.000033 0.000318
Ga -0.014911 -1.858662 7.558258 0.000356 0.000210 0.000480
Al -0.013936 -1.855691 -2.706047 0.001259 -0.001059 0.000131
Al -0.021486 1.800539 4.964011 0.000944 -0.000828 -0.000312
Ga -0.013765 1.794161 -5.260310 -0.000105 0.000062 0.000746
Al -0.027659 1.787597 -0.159065 -0.000772 0.000286 0.000545
Ga 3.175316 -3.695520 4.972799 -0.000306 0.000106 0.000254
Al 3.164860 -3.695936 -5.275487 0.000099 0.000309 0.000421
Al 3.162679 -3.693419 -0.138988 0.000549 0.000021 -0.002030
Ga 1.567591 -0.951684 4.969368 -0.000492 0.000527 0.000246
Al 1.561667 -0.973507 -5.259447 0.001086 0.000425 -0.000095
Al 1.564741 -0.964684 -0.160816 -0.000041 -0.000178 0.000226
Ga 3.137021 1.802708 4.949267 0.000094 0.000035 0.000290
Ga 3.135185 1.790992 -5.269121 -0.000140 -0.000175 0.000172
Ga 3.139582 1.788952 -0.119175 0.000179 -0.000110 0.000738
Al 6.327833 -3.705406 4.955669 -0.000043 0.000498 0.000042
Al 6.324467 -3.707798 -5.271695 -0.000077 -0.000051 0.000106
Ga 6.317873 -3.706672 -0.128597 -0.000164 -0.000114 -0.000556
Al 4.741077 -0.965053 4.967126 0.000029 0.000266 -0.000027
Ga 4.736232 -0.987513 -5.266385 -0.000426 0.000235 0.000033
Al 4.725675 -0.968112 -0.141752 0.000404 0.000014 0.001145
Ga -3.193210 1.785426 4.948048 -0.000068 0.000056 0.000164
Ga -3.187926 1.796295 -5.253550 -0.000164 0.000041 0.000147
Ga -3.179688 1.788024 -0.127170 0.000069 -0.000386 -0.000096
Al -0.041169 -3.693849 4.970222 0.000001 0.000176 0.000576
Al -0.020167 -3.687802 -5.257876 -0.000043 0.000135 0.000527
Al -0.019707 -3.683413 -0.151089 0.000156 0.000190 0.000340
Al -1.612803 -0.953794 4.958491 -0.000162 0.000270 0.000526
Al -1.593810 -0.974861 -5.249957 -0.000228 0.000156 0.000309
Al -1.595114 -0.950651 -0.151658 0.000157 0.000905 -0.001219
N 1.514380 0.897679 4.304822 -0.000782 0.000269 -0.000325
N 1.557497 0.820177 -5.927398 0.000007 -0.000615 -0.000333
N 1.523526 0.851147 -0.770450 -0.000042 -0.000542 0.000779
N 0.011012 3.600751 4.327681 0.000657 0.000036 0.000156
N -0.020875 3.666357 -5.918888 -0.000234 0.000176 -0.000479
N -0.067278 3.604770 -0.782800 -0.000356 0.000085 0.000263
N 3.191531 -1.847323 4.301066 0.000304 -0.000291 0.000026
N 3.110471 -1.898333 -5.910699 -0.000673 -0.000213 -0.000095
N 3.149625 -1.877180 -0.767429 0.000161 -0.000103 -0.000093
N -4.792892 0.826425 4.325453 0.000047 -0.000427 -0.000176
N -4.786197 0.869349 -5.885943 0.000251 -0.000233 -0.000045
N -4.789138 0.834726 -0.722292 -0.000059 -0.000563 -0.000075
N -6.375349 3.682393 4.339985 -0.000083 0.000162 -0.000547
N -6.373804 3.675181 -5.853248 -0.000026 0.000349 0.000019
N -6.339593 3.651724 -0.746628 0.000070 0.000066 0.000285
N -3.200457 -1.865808 4.403546 -0.000127 -0.000629 0.000346
N -3.149303 -1.899954 -5.862483 0.000296 -0.000104 -0.000141
N -3.195676 -1.827514 -0.718201 -0.000483 0.000357 0.000310
N -1.560524 0.857614 4.332701 0.000571 -0.000658 -0.000439
N -1.604095 0.822492 -5.873075 0.000400 -0.000482 -0.000245
N -1.568181 0.853541 -0.780942 0.000534 -0.000884 0.000323
N -3.239193 3.665563 4.372470 -0.000070 0.000112 -0.000140
N -3.199364 3.676203 -5.842267 0.000067 0.000076 -0.000237
N -3.195915 3.679767 -0.713580 0.000045 0.000103 0.000758
N -0.060730 -1.889584 4.379141 0.000033 -0.000273 -0.000362
N -0.019502 -1.872919 -5.838302 -0.000237 -0.000305 -0.000328
N -0.021454 -1.869310 -0.771414 0.000219 -0.000019 -0.000040
N -0.023445 1.798988 1.771336 -0.000233 -0.000562 -0.000166
N 0.019616 1.822130 6.894971 -0.000508 0.001325 0.000758
N -0.017462 1.794962 -3.272006 0.000150 -0.000323 0.000075
N 3.206530 -3.683376 1.776938 -0.000216 0.000491 0.000574
N 3.201146 -3.674116 6.956678 -0.000846 0.000168 -0.000055
N 3.202072 -3.679298 -3.347319 0.000429 -0.000191 -0.000532
N 1.608600 -0.934583 1.765055 -0.000718 0.000241 -0.000767
N 1.610140 -0.929307 6.952468 -0.000196 -0.000125 -0.000303
N 1.570637 -0.959079 -3.318279 -0.000094 0.000053 -0.000373
N 3.149038 1.797677 1.865197 -0.000221 -0.000000 -0.000098
N 3.103336 1.779292 6.930094 -0.000226 -0.000248 -0.000161
N 3.102533 1.763442 -3.297643 -0.000478 -0.000547 0.000134
N 6.325632 -3.752717 1.841943 0.001183 0.000487 0.000492
N 6.286298 -3.729178 6.876053 -0.001067 -0.000422 -0.000768
N 6.281179 -3.732040 -3.356011 -0.000292 -0.000009 -0.000141
N 4.700962 -0.932489 1.771288 -0.001173 -0.001430 -0.000451
N 4.695383 -0.981477 6.887078 -0.000522 -0.000120 -0.000461
N 4.696117 -0.989553 -3.300326 0.000384 0.000379 0.000020
N -3.194525 1.743314 1.850338 0.000655 -0.000198 0.000425
N -3.198822 1.801933 6.921810 0.000120 0.000004 -0.000282
N -3.154794 1.770315 -3.279107 0.000187 -0.000225 -0.000214
N -0.067840 -3.723850 1.756953 -0.000013 0.000119 -0.000638
N -0.026407 -3.698039 6.881613 0.000081 0.000065 -0.000628
N -0.019683 -3.656688 -3.346455 -0.000063 0.000757 -0.000064
N -1.609066 -0.905098 1.757813 0.000094 -0.000308 0.000146
N -1.608591 -0.952275 6.867905 -0.000153 0.000188 -0.000567
N -1.565571 -0.935831 -3.328346 -0.000649 0.000598 -0.000513
