108
Energy=-1443724.816796 Lattice="9.502859 0.000000 0.000000 -4.756720 8.225579 0.000000 0.001856 0.011262 15.338784" Stress="-0.000031 -0.000004 0.000000 -0.000004 -0.000034 0.000002 0.000000 0.000002 -0.000026" Properties=species:S:1:pos:R:3:forces:R:3
Al 1.560264 0.892595 2.432522 -0.000146 -0.000606 -0.000327
Al 1.541475 0.887622 7.550343 -0.000020 0.000426 0.000002
Al 1.546339 0.876408 -2.753830 0.000311 0.000023 0.000363
Al -0.019062 3.622639 2.408895 -0.000247 -0.001230 -0.000132
Al -0.037002 3.595199 7.508686 -0.000157 0.000157 0.000866
Al -0.014464 3.592577 -2.696139 -0.000231 0.000079 0.000760
Ga 3.172768 -1.876140 2.419961 0.000090 0.000175 0.000172
Ga 3.149585 -1.860188 7.521045 0.000145 -0.000404 0.000150
Ga 3.146078 -1.871015 -2.709721 -0.000424 0.000104 0.001109
Al -4.770159 0.883766 2.386133 -0.002190 -0.004339 0.004502
Al -4.775603 0.883387 7.542937 0.000176 -0.000199 0.000663
Ga -4.778960 0.882086 -2.717554 0.000378 0.000105 0.001231
Al -6.364450 3.595155 2.408229 -0.000350 0.007018 0.004247
Ga -6.343647 3.617580 7.531904 -0.000035 0.000164 0.000114
Al -6.369733 3.609319 -2.723270 0.000033 0.000011 0.000584
Al -3.168060 -1.874821 2.385451 -0.006868 0.000940 0.000296
Ga -3.189744 -1.849099 7.531746 -0.000248 -0.000154 0.000815
Ga -3.178185 -1.876652 -2.692175 -0.000176 -0.000025 0.000940
Ga -1.618185 0.889945 2.408367 0.001582 -0.000493 0.001053
Al -1.599494 0.903842 7.527683 0.000432 0.000047 0.000203
Al -1.603479 0.883830 -2.714615 0.000558 -0.000253 0.000573
Al -3.195156 3.613241 2.410363 0.001307 0.001038 0.000327
Al -3.199861 3.622852 7.530097 0.000994 0.000091 -0.001144
Ga -3.197823 3.607610 -2.713716 0.000198 -0.000302 0.000874
Ga -0.031627 -1.871038 2.417746 0.000737 -0.000434 0.000452
Al -0.010514 -1.864400 7.535093 -0.000054 -0.000195 0.000319
Al -0.021495 -1.859437 -2.721879 0.000223 -0.000496 0.000576
Al -0.023683 1.803612 4.979266 -0.000024 0.000364 0.000091
Al -0.029605 1.777477 -5.258994 0.000407 0.001696 -0.000056
Ga -0.031682 1.791104 -0.162751 -0.000160 0.000469 0.000043
Al 3.150554 -3.706541 4.973427 -0.000550 0.000266 0.000055
Ga 3.144724 -3.713742 -5.275487 0.000138 0.000430 0.000745
Al 3.163087 -3.708488 -0.146507 -0.000392 0.000344 0.000664
Ga 1.569882 -0.949022 4.991692 -0.000538 0.000685 -0.000119
Al 1.560782 -0.951131 -5.272275 -0.000606 0.000116 0.000400
Ga 1.568636 -0.955774 -0.154738 -0.000423 0.000234 0.000135
Ga 3.141908 1.786300 4.970156 0.000672 -0.000255 0.000464
Al 3.141353 1.772840 -5.270624 -0.000047 0.000282 0.000287
Ga 3.137901 1.787517 -0.136125 -0.000045 -0.000011 -0.002105
Ga 6.303916 -3.689598 4.951344 0.000416 -0.000041 -0.000332
Ga 6.310185 -3.717565 -5.256419 -0.000330 0.000091 0.001081
Al 6.307988 -3.692829 -0.144867 0.000090 -0.000046 0.000578
Al 4.740400 -0.945000 4.961083 -0.000263 0.000147 -0.001164
Al 4.722312 -0.936813 -5.266238 -0.000303 -0.000097 0.001149
Al 4.749508 -0.960145 -0.134886 -0.000473 -0.000248 0.000813
Ga -3.203089 1.809449 4.982421 -0.000494 -0.000349 0.000557
Al -3.204580 1.787867 -5.292501 0.000976 -0.001573 -0.000190
Al -3.193540 1.784723 -0.139941 0.000484 0.000077 -0.000124
Al -0.005575 -3.692098 4.969809 -0.000284 -0.000469 -0.000497
Al -0.017575 -3.698040 -5.256508 0.001302 -0.000336 0.000094
Ga -0.029254 -3.696043 -0.149065 0.000423 -0.000138 -0.000498
Ga -1.606369 -0.945688 4.992196 -0.000703 -0.000218 0.000350
Ga -1.590828 -0.938510 -5.267168 -0.000195 0.000026 0.000955
Al -1.618278 -0.948376 -0.168118 -0.000160 0.000054 -0.000355
N 1.513362 0.902285 4.337468 0.000228 0.000012 -0.001345
N 1.548441 0.873970 -5.863956 0.000395 0.000015 0.000163
N 1.559358 0.872966 -0.845741 0.000533 0.000209 0.000414
N -0.066675 3.595666 4.332412 -0.000455 -0.000167 -0.001215
N -0.025547 3.559126 -5.924750 0.000060 -0.001389 0.000066
N -0.020674 3.657853 -0.780978 -0.000049 0.000327 0.000111
N 3.194130 -1.892646 4.405771 -0.000162 -0.000153 -0.000521
N 3.149335 -1.829339 -5.842942 -0.000146 0.000474 -0.000439
N 3.194890 -1.894158 -0.726191 0.000014 -0.000045 0.000021
N -4.774736 0.835417 4.311355 0.000520 0.000666 -0.002588
N -4.783569 0.869753 -5.875840 0.000327 -0.000125 -0.000284
N -4.740723 0.851144 -0.733397 0.000412 0.000121 0.000157
N -6.317691 3.644514 4.334424 0.000026 -0.000737 -0.002415
N -6.315046 3.591061 -5.837862 -0.000293 -0.000724 -0.000030
N -6.403663 3.632861 -0.804592 -0.000257 0.000236 0.000333
N -3.219802 -1.835774 4.308777 0.000541 -0.000119 -0.001136
N -3.228068 -1.849489 -5.844599 -0.000190 0.000378 -0.000456
N -3.188781 -1.873355 -0.711212 -0.000046 -0.000076 0.000271
N -1.576960 0.909073 4.382345 0.000755 -0.000181 -0.001155
N -1.606446 0.928625 -5.899412 -0.000349 -0.000423 0.000103
N -1.658334 0.860019 -0.787739 0.000311 -0.000226 0.000024
N -3.189273 3.671114 4.335326 0.000027 -0.000525 -0.001206
N -3.239220 3.592037 -5.898407 -0.001641 0.001987 0.001312
N -3.155919 3.592604 -0.736426 0.000267 -0.000456 0.000152
N -0.023345 -1.901970 4.382054 0.000372 -0.000505 -0.000857
N 0.019478 -1.898896 -5.889589 0.000383 -0.000616 -0.000072
N -0.058985 -1.843367 -0.806616 0.000021 -0.000452 0.000603
N 0.018661 1.812275 1.816160 -0.000237 0.000605 -0.000782
N -0.019438 1.790323 6.902067 -0.000012 0.000065 -0.000826
N -0.031511 1.786804 -3.330549 -0.000400 0.000406 0.000083
N 3.149710 -3.746055 1.777104 0.000063 -0.000735 0.000132
N 3.145705 -3.742537 6.897521 -0.000567 -0.000202 -0.000394
N 3.193486 -3.731247 -3.309956 -0.000006 0.000294 -0.000183
N 1.570554 -0.906896 1.823346 -0.000617 0.001070 -0.000256
N 1.525082 -0.915823 6.962044 -0.000355 -0.000305 -0.000353
N 1.526734 -0.940036 -3.351277 -0.000739 0.000352 -0.000050
N 3.135593 1.792310 1.850876 0.000807 -0.004054 -0.001376
N 3.138395 1.741691 6.952838 0.000045 -0.000175 -0.000370
N 3.103998 1.806888 -3.352953 -0.000012 -0.000040 -0.000065
N 6.322202 -3.704850 1.796467 -0.000330 0.000157 -0.000213
N 6.276306 -3.713053 6.924822 0.000042 -0.000092 -0.000813
N 6.307372 -3.746225 -3.287216 0.000276 -0.000197 0.000123
N 4.774895 -0.932372 1.777621 0.002126 0.000788 0.000096
N 4.736902 -0.893854 6.872443 -0.000312 0.000425 -0.001716
N 4.736212 -0.955251 -3.368391 -0.000302 -0.000019 0.000006
N -3.236823 1.816432 1.781662 0.001701 0.001269 -0.001501
N -3.202075 1.798573 6.971497 0.000381 -0.000303 -0.000936
N -3.154952 1.763067 -3.380488 0.000021 0.000007 0.000230
N -0.025864 -3.743735 1.828464 0.000082 -0.000269 -0.001763
N 0.021951 -3.664932 6.888115 0.000438 0.000108 -0.000467
N -0.061882 -3.671697 -3.336444 0.000259 -0.000027 0.000074
N -1.636918 -0.965912 1.750172 0.001168 0.000386 -0.001107
N -1.561234 -0.919737 6.967527 0.000146 0.000210 -0.000394
N -1.564733 -0.924953 -3.291505 -0.000209 0.000021 0.000202
