108
Energy=-711317.144010 Lattice="9.428331 0.000000 0.000000 -4.715714 8.162806 0.000000 0.001272 0.002025 15.146885" Stress="0.000000 -0.000001 0.000000 -0.000001 -0.000002 0.000001 0.000000 0.000001 0.000006" Properties=species:S:1:pos:R:3:forces:R:3
Al 1.553654 0.874114 2.369394 -0.000131 -0.000027 0.000819
Al 1.561184 0.871896 7.442202 -0.000153 -0.000576 -0.000007
Al 1.548245 0.874459 -2.684628 0.000097 -0.000127 -0.000164
Al -0.016950 3.591580 2.354214 -0.000013 -0.000084 0.000168
Al -0.013194 3.592636 7.450218 -0.000494 0.000629 0.000241
Al -0.015562 3.586791 -2.677350 -0.000129 0.000065 -0.000243
Al 3.129740 -1.850839 2.373892 0.000011 -0.000065 -0.000142
Al 3.130571 -1.842522 7.437548 0.000467 0.000139 0.000542
Al 3.134111 -1.849536 -2.682757 -0.000093 0.000043 -0.000045
Al -4.738467 0.868024 2.373120 0.000128 -0.000163 -0.000126
Al -4.737005 0.870054 7.422415 0.000094 -0.000027 -0.000035
Al -4.743065 0.858984 -2.676280 0.000084 -0.000043 -0.000213
Al -6.317672 3.585390 2.360436 -0.000055 0.000110 -0.000183
Al -6.321456 3.579112 7.438185 -0.000098 -0.000118 0.000169
Al -6.317375 3.586718 -2.672458 0.000072 0.000098 -0.000180
Al -3.165141 -1.854841 2.366220 0.000016 0.000074 -0.000285
Al -3.171630 -1.852330 7.427259 0.000367 0.000272 0.000042
Al -3.166880 -1.851677 -2.674235 -0.000020 0.000015 -0.000253
Al -1.599321 0.866158 2.359511 0.000250 -0.000191 0.000019
Al -1.605025 0.873046 7.437899 -0.000455 -0.000092 0.000692
Al -1.591609 0.861861 -2.673087 0.000288 -0.000141 -0.000245
Al -3.165021 3.584150 2.345017 0.000075 -0.000090 0.000051
Al -3.160390 3.574436 7.453738 -0.000302 0.000062 0.000159
Ga -3.166482 3.589607 -2.666849 0.000127 0.000060 -0.000314
Al -0.028721 -1.849075 2.375603 -0.000312 -0.000093 0.000383
Ga -0.018857 -1.840804 7.443852 0.000188 0.000219 -0.000261
Al -0.032550 -1.849642 -2.685441 0.000210 -0.000108 -0.000457
Ga -0.018486 1.767386 4.909805 -0.000353 0.000070 -0.000331
Al -0.024717 1.772349 -5.198564 -0.000120 0.000088 -0.000306
Al -0.028181 1.780823 -0.155724 0.000078 0.000060 0.000277
Ga 3.125565 -3.660714 4.909671 -0.000136 0.000042 -0.000124
Al 3.126109 -3.665197 -5.204492 -0.000052 0.000188 -0.000486
Al 3.133157 -3.669155 -0.143761 0.000090 -0.000103 0.000065
Al 1.560647 -0.933629 4.888381 0.000083 -0.000551 0.000973
Al 1.557304 -0.943505 -5.175568 0.000263 0.000140 -0.000118
Ga 1.549873 -0.948951 -0.154910 -0.000272 0.000292 -0.000053
Al 3.123528 1.769921 4.901179 0.000725 0.000305 0.000401
Al 3.121615 1.774244 -5.195274 0.000047 -0.000096 -0.000094
Al 3.125163 1.781344 -0.157005 -0.000268 -0.000197 0.000026
Al 6.268422 -3.659105 4.898927 0.000333 0.000177 0.000246
Al 6.264827 -3.665991 -5.188326 0.000005 -0.000064 -0.000027
Al 6.263217 -3.665102 -0.162805 0.000054 -0.000135 0.000296
Al 4.699729 -0.938402 4.899088 -0.000129 -0.000005 -0.000062
Al 4.694301 -0.944295 -5.199487 -0.000219 0.000016 -0.000126
Al 4.701686 -0.944534 -0.152831 0.000076 -0.000023 0.000369
Al -3.174101 1.762902 4.897861 0.000179 -0.000281 0.000159
Al -3.168870 1.766674 -5.197201 0.000039 0.000005 -0.000040
Al -3.168973 1.764041 -0.148138 0.000018 0.000343 0.000046
Ga -0.030840 -3.673048 4.896061 0.000147 -0.000049 0.000083
Al -0.028987 -3.673387 -5.194557 0.000170 -0.000396 -0.000164
Al -0.036050 -3.668782 -0.139332 0.000241 -0.000071 -0.000222
Al -1.608495 -0.941794 4.890540 0.000243 -0.000137 0.000573
Al -1.602668 -0.941806 -5.181732 0.000130 -0.000017 -0.000229
Al -1.603530 -0.946801 -0.156464 0.000184 -0.000196 0.000138
N 1.592624 0.853410 4.284447 -0.000739 -0.000253 -0.002455
N 1.551704 0.864079 -5.786159 0.000082 -0.000062 0.000182
N 1.547302 0.916508 -0.774320 0.000282 0.000293 0.000383
N 0.019386 3.611705 4.263805 -0.000377 -0.000251 -0.000911
N -0.016125 3.588903 -5.786545 0.000027 0.000014 0.000224
N -0.023897 3.587901 -0.757164 0.000024 -0.000037 0.000238
N 3.128853 -1.807109 4.282966 0.000056 0.000122 -0.000163
N 3.120443 -1.846733 -5.793395 0.000140 0.000058 0.000380
N 3.166680 -1.877259 -0.771582 -0.000042 -0.000104 -0.000149
N -4.738728 0.869062 4.297603 0.000174 -0.000014 0.000080
N -4.739601 0.867497 -5.804918 0.000088 -0.000052 0.000026
N -4.739262 0.866171 -0.758250 0.000115 0.000003 0.000328
N -6.354467 3.562536 4.273891 -0.000143 -0.000018 -0.000070
N -6.315879 3.585344 -5.794394 -0.000195 0.000052 0.000136
N -6.308989 3.588553 -0.754905 -0.000149 -0.000035 0.000367
N -3.166783 -1.854895 4.290146 0.000080 0.000126 0.000159
N -3.164153 -1.854559 -5.797951 0.000076 -0.000025 0.000068
N -3.166729 -1.851896 -0.757806 0.000052 0.000037 0.000392
N -1.634969 0.847936 4.274122 -0.000069 0.000187 -0.000283
N -1.598781 0.865034 -5.794104 0.000227 -0.000245 0.000272
N -1.595394 0.867965 -0.753823 0.000172 -0.000064 0.000406
N -3.163056 3.540934 4.255017 0.000125 0.000086 -0.000502
N -3.167085 3.583695 -5.779384 0.000069 -0.000228 0.000288
N -3.166879 3.590982 -0.688974 -0.000190 -0.000298 0.000623
N -0.023739 -1.803814 4.292613 -0.000222 0.000222 -0.000623
N -0.019922 -1.847845 -5.729731 -0.000753 0.000542 0.000118
N -0.065401 -1.878925 -0.774531 -0.000302 0.000194 0.000639
N -0.023009 1.772844 1.766862 0.000004 -0.000044 -0.000057
N -0.024723 1.774807 6.891658 0.001308 0.000043 -0.000590
N -0.026332 1.774137 -3.279254 -0.000189 -0.000017 0.000170
N 3.126168 -3.662082 1.770461 -0.000034 0.000035 0.000103
N 3.120650 -3.664348 6.891835 0.000678 -0.001050 -0.000093
N 3.163007 -3.645914 -3.296273 0.000021 -0.000009 0.000383
N 1.548966 -0.947802 1.819406 0.000349 0.000385 -0.000133
N 1.596907 -0.922526 6.807459 -0.001121 0.001443 -0.000651
N 1.553943 -0.946654 -3.259873 -0.000137 0.000253 0.000281
N 3.122853 1.773474 1.760859 -0.000066 -0.000159 -0.000125
N 3.119792 1.776777 6.824115 -0.000037 -0.000038 0.000181
N 3.122556 1.775772 -3.278023 0.000016 -0.000096 0.000140
N 6.264908 -3.663473 1.754182 0.000001 0.000019 -0.000306
N 6.264170 -3.665433 6.823499 0.000054 0.000021 0.000030
N 6.264230 -3.665856 -3.270516 0.000076 -0.000010 0.000271
N 4.695206 -0.943833 1.767894 -0.000145 0.000143 -0.000278
N 4.694964 -0.944564 6.822447 0.000100 0.000122 -0.000017
N 4.695962 -0.944983 -3.283136 -0.000031 0.000140 0.000127
N -3.169910 1.766280 1.763003 0.000022 0.000035 -0.000199
N -3.165138 1.777254 6.822775 -0.000080 0.000068 -0.000048
N -3.167428 1.725975 -3.287460 -0.000055 -0.000237 0.000157
N -0.029288 -3.662684 1.778662 0.000064 0.000081 -0.000088
N -0.022191 -3.714467 6.869919 0.000416 -0.000151 -0.000048
N -0.065064 -3.650139 -3.289418 -0.000191 -0.000022 0.000195
N -1.595109 -0.948145 1.763606 -0.000116 0.000198 -0.000350
N -1.632650 -0.917952 6.808217 -0.001066 -0.000830 -0.000822
N -1.600311 -0.943388 -3.270428 -0.000223 0.000176 0.000209
