108
Energy=-2725439.061084 Lattice="9.681690 0.000000 0.000000 -4.843029 8.383696 0.000000 0.003365 0.002439 15.714715" Stress="-0.000001 -0.000000 0.000001 -0.000000 0.000000 0.000000 0.000001 0.000000 -0.000003" Properties=species:S:1:pos:R:3:forces:R:3
Al 1.590621 0.893549 2.477170 -0.000115 -0.000052 0.000108
Ga 1.595562 0.899928 7.707112 0.000091 -0.000149 0.000251
Ga 1.589968 0.892686 -2.769533 0.000074 -0.000215 0.000078
Ga -0.019002 3.678276 2.471262 -0.000153 0.000080 0.000323
Al -0.020955 3.684888 7.707125 -0.000058 -0.000046 0.000079
Ga -0.024515 3.684025 -2.761172 -0.000097 -0.000192 0.000216
Ga 3.202850 -1.895845 2.476926 -0.000173 0.000159 0.000302
Ga 3.215389 -1.900564 7.705084 -0.000007 -0.000025 0.000144
Ga 3.205272 -1.903848 -2.767289 -0.000050 -0.000171 0.000147
Ga -4.874130 0.892857 2.470132 -0.000093 0.000157 0.000319
Al -4.863161 0.892784 7.706240 0.000050 -0.000255 0.000021
Ga -4.867450 0.892707 -2.761260 0.000062 -0.000155 0.000251
Ga -6.484338 3.678420 2.477513 -0.000141 0.000011 0.000286
Ga -6.481789 3.679097 7.705026 -0.000012 -0.000023 0.000189
Ga -6.480386 3.682983 -2.767729 -0.000033 -0.000172 0.000190
Ga -3.243568 -1.898667 2.467392 0.000032 0.000088 0.000170
Ga -3.256626 -1.902247 7.708795 -0.000033 0.000020 0.000162
Ga -3.246290 -1.900562 -2.761065 -0.000017 -0.000073 0.000023
Ga -1.628711 0.886951 2.465897 0.000044 -0.000066 0.000215
Ga -1.639432 0.902513 7.705572 0.000115 -0.000182 0.000144
Ga -1.637699 0.889479 -2.757197 0.000109 -0.000352 0.000232
Ga -3.250004 3.686559 2.479260 -0.000088 0.000058 0.000282
Ga -3.246150 3.680155 7.709472 0.000024 -0.000185 0.000189
Ga -3.250783 3.686142 -2.770658 0.000038 -0.000246 0.000163
Ga -0.024430 -1.889478 2.457471 -0.000203 0.000061 0.000151
Ga -0.019216 -1.899698 7.708681 0.000062 -0.000155 0.000119
Ga -0.026585 -1.898714 -2.747349 -0.000012 -0.000170 -0.000091
Ga -0.016319 1.823939 5.088830 -0.000174 0.000048 0.000176
Ga -0.026134 1.829380 -5.396080 -0.000242 -0.000040 0.000143
Ga -0.022286 1.808604 -0.133241 -0.000433 0.000260 -0.000124
Ga 3.212402 -3.769396 5.105333 -0.000183 0.000027 0.000066
Ga 3.212670 -3.771055 -5.399191 -0.000221 0.000054 0.000140
Ga 3.205346 -3.768869 -0.142710 -0.000411 0.000407 -0.000144
Ga 1.591249 -0.963915 5.077589 -0.000297 -0.000046 0.000179
Ga 1.589230 -0.973875 -5.383564 -0.000289 -0.000005 0.000091
Ga 1.585042 -0.968317 -0.133867 -0.000413 0.000503 -0.000043
Ga 3.202641 1.816715 5.092990 -0.000144 -0.000129 0.000175
Ga 3.209573 1.818289 -5.400968 -0.000145 -0.000064 0.000135
Ga 3.197506 1.818476 -0.132311 -0.000323 0.000237 -0.000006
Ga 6.428622 -3.766867 5.100930 -0.000175 -0.000084 0.000156
Ga 6.423932 -3.770159 -5.396258 -0.000109 -0.000056 0.000165
Ga 6.438657 -3.759303 -0.145010 -0.000313 0.000232 -0.000072
Ga 4.821999 -0.965611 5.100735 -0.000293 -0.000034 0.000202
Ga 4.818088 -0.963601 -5.395938 -0.000227 -0.000104 0.000122
Ga 4.829409 -0.975247 -0.145232 -0.000433 0.000276 -0.000133
Ga -3.254432 1.820144 5.100860 -0.000210 -0.000041 0.000149
Ga -3.259418 1.817628 -5.395626 -0.000056 -0.000039 0.000131
Ga -3.245513 1.815084 -0.145169 -0.000191 0.000226 -0.000167
Ga -0.021472 -3.762066 5.089604 -0.000085 -0.000029 0.000125
Ga -0.024383 -3.763290 -5.383336 -0.000059 -0.000042 0.000100
Ga -0.026107 -3.761418 -0.145194 -0.000244 0.000203 -0.000075
Ga -1.634228 -0.970633 5.092357 -0.000205 -0.000097 -0.000004
Ga -1.635949 -0.971188 -5.386071 -0.000206 -0.000009 0.000061
Al -1.637548 -0.971801 -0.146641 -0.000236 0.000494 0.000674
N 1.590473 0.894819 4.402737 0.000271 0.000101 -0.000097
N 1.586957 0.889461 -6.026089 0.000247 0.000090 -0.000149
N 1.589431 0.890344 -0.790193 0.000364 -0.000140 -0.000168
N -0.023316 3.686128 4.449622 0.000142 0.000062 -0.000132
N -0.024715 3.683476 -6.084692 0.000159 0.000009 -0.000022
N -0.023664 3.680837 -0.776916 0.000358 -0.000167 -0.000282
N 3.208563 -1.905076 4.461892 0.000223 0.000071 -0.000165
N 3.203022 -1.902542 -6.026776 0.000204 -0.000043 -0.000128
N 3.202378 -1.902500 -0.781070 0.000413 -0.000235 -0.000312
N -4.864751 0.891818 4.448449 0.000244 0.000161 -0.000248
N -4.866167 0.890394 -6.085386 0.000216 0.000076 -0.000043
N -4.868698 0.892228 -0.778996 0.000370 -0.000114 -0.000284
N -6.480838 3.685091 4.462188 0.000118 0.000094 -0.000180
N -6.480113 3.686290 -6.026744 0.000084 0.000038 -0.000200
N -6.479507 3.680947 -0.783666 0.000209 -0.000071 -0.000251
N -3.248447 -1.902701 4.454103 0.000212 0.000142 -0.000079
N -3.251338 -1.903444 -6.025168 0.000205 0.000039 -0.000130
N -3.206156 -1.879201 -0.770504 0.000151 -0.000123 -0.000138
N -1.637336 0.892341 4.453236 0.000241 0.000059 -0.000055
N -1.639901 0.891946 -6.027800 0.000261 -0.000004 -0.000193
N -1.636093 0.843540 -0.764186 0.000321 -0.000311 -0.000075
N -3.248143 3.686127 4.463378 0.000169 -0.000008 -0.000178
N -3.254588 3.686017 -6.022965 0.000161 -0.000060 -0.000161
N -3.252863 3.685334 -0.786449 0.000291 -0.000243 -0.000317
N -0.024829 -1.899689 4.440746 0.000165 0.000010 -0.000055
N -0.023851 -1.902394 -6.026485 0.000195 -0.000014 -0.000088
N -0.064759 -1.876562 -0.756825 0.000365 -0.000244 -0.000098
N 0.020326 1.796900 1.854771 0.000130 -0.000026 -0.000011
N -0.019041 1.871081 7.081709 -0.000066 0.000070 -0.000203
N -0.026702 1.823837 -3.409346 -0.000006 0.000238 -0.000200
N 3.205555 -3.764508 1.837275 0.000208 -0.000187 0.000082
N 3.250264 -3.791130 7.093958 -0.000036 0.000205 -0.000233
N 3.209066 -3.768994 -3.412933 0.000043 0.000200 -0.000123
N 1.593582 -0.919191 1.855132 0.000093 -0.000069 0.000236
N 1.594171 -0.967711 7.061175 -0.000122 0.000177 -0.000174
N 1.588309 -0.975019 -3.400263 -0.000066 0.000224 -0.000096
N 3.157649 1.800106 1.855234 0.000263 -0.000251 -0.000041
N 3.246729 1.796726 7.082928 -0.000146 0.000091 -0.000223
N 3.205645 1.820494 -3.416489 0.000013 0.000073 -0.000145
N 6.433051 -3.763877 1.833800 0.000134 -0.000175 0.000104
N 6.390867 -3.789607 7.090172 0.000128 0.000107 -0.000188
N 6.428300 -3.766753 -3.407831 0.000051 0.000067 -0.000176
N 4.818983 -0.970958 1.833467 0.000058 -0.000333 0.000131
N 4.821622 -0.920740 7.087863 -0.000061 0.000139 -0.000082
N 4.819758 -0.969440 -3.407788 -0.000064 0.000128 -0.000164
N -3.250399 1.824058 1.835505 0.000045 -0.000117 0.000127
N -3.293009 1.799016 7.088055 0.000037 0.000135 -0.000081
N -3.252754 1.818826 -3.407480 -0.000101 0.000135 -0.000195
N -0.023692 -3.766288 1.837282 0.000184 -0.000100 0.000133
N -0.020186 -3.764798 7.070012 -0.000034 0.000111 -0.000102
N -0.023700 -3.761954 -3.398446 0.000006 0.000114 -0.000118
N -1.638766 -0.968105 1.778737 0.000052 -0.000288 -0.000847
N -1.634818 -0.969756 7.070878 -0.000128 0.000098 -0.000053
N -1.634809 -0.971303 -3.405962 -0.000072 0.000161 -0.000019
