108
Energy=-711317.145297 Lattice="9.428549 0.000000 0.000000 -4.715855 8.162780 0.000000 0.001420 0.002117 15.147600" Stress="0.000001 -0.000000 0.000000 -0.000000 -0.000001 0.000001 0.000000 0.000001 0.000005" Properties=species:S:1:pos:R:3:forces:R:3
Al 1.553766 0.873827 2.369868 -0.000126 0.000328 -0.000182
Al 1.561404 0.871910 7.442945 -0.000102 -0.000085 -0.000009
Al 1.548290 0.874483 -2.684541 0.000086 -0.000101 -0.000059
Al -0.016860 3.591596 2.355219 0.000031 -0.000183 -0.000847
Al -0.013058 3.592720 7.451015 -0.000012 0.000002 -0.000058
Al -0.015462 3.586842 -2.677117 -0.000129 0.000013 -0.000127
Al 3.130023 -1.850681 2.374565 -0.000051 0.000075 -0.000330
Al 3.131206 -1.842916 7.438387 -0.000252 0.000191 -0.000105
Al 3.134361 -1.849549 -2.682445 -0.000124 -0.000023 -0.000125
Al -4.738496 0.868038 2.373746 0.000074 -0.000100 -0.000232
Al -4.737034 0.870046 7.423182 0.000087 -0.000052 -0.000085
Al -4.743189 0.858950 -2.676178 0.000084 -0.000036 -0.000092
Al -6.317883 3.585217 2.361112 -0.000136 0.000012 -0.000313
Al -6.321558 3.579070 7.438976 0.000223 0.000106 -0.000067
Al -6.317511 3.586703 -2.672298 0.000036 0.000073 -0.000056
Al -3.165095 -1.854878 2.366921 0.000030 0.000052 -0.000332
Al -3.171401 -1.852296 7.427996 -0.000016 -0.000011 0.000038
Al -3.166838 -1.851693 -2.674041 -0.000016 0.000023 -0.000178
Al -1.599347 0.866168 2.360214 0.000223 -0.000177 -0.000312
Al -1.605135 0.873239 7.438642 0.000250 -0.000195 0.000020
Al -1.591703 0.861889 -2.672972 0.000305 -0.000140 -0.000107
Al -3.165083 3.584181 2.345720 0.000097 -0.000167 -0.000448
Al -3.160422 3.574504 7.454523 -0.000034 0.000087 -0.000049
Ga -3.166848 3.589234 -2.666899 0.000192 0.000066 -0.000148
Al -0.028934 -1.849362 2.376609 0.000097 0.000322 -0.000222
Ga -0.020385 -1.839730 7.442449 0.000242 0.000135 -0.000094
Al -0.032469 -1.849725 -2.685249 0.000172 -0.000032 -0.000213
Ga -0.018436 1.766981 4.906109 -0.000252 -0.000014 -0.000097
Al -0.024729 1.772302 -5.198469 -0.000074 0.000056 -0.000180
Al -0.028189 1.780952 -0.155477 0.000053 0.000017 0.000497
Ga 3.126230 -3.661462 4.908196 -0.000116 -0.000054 -0.000120
Al 3.126256 -3.665303 -5.204261 -0.000043 0.000094 -0.000279
Al 3.133779 -3.668553 -0.143140 -0.000383 -0.000439 -0.000061
Al 1.561134 -0.934906 4.889614 -0.000255 0.000273 -0.000077
Al 1.557556 -0.943649 -5.175418 -0.000173 0.000130 -0.000221
Ga 1.550020 -0.948297 -0.154710 -0.000305 0.000283 0.000164
Al 3.123812 1.769939 4.901932 0.000013 -0.000112 -0.000178
Al 3.121649 1.774206 -5.195196 0.000046 -0.000112 -0.000035
Al 3.125318 1.781448 -0.156759 -0.000259 -0.000224 0.000204
Al 6.268804 -3.659108 4.899637 -0.000023 -0.000011 -0.000078
Al 6.265019 -3.666026 -5.188240 0.000040 -0.000030 0.000023
Al 6.263448 -3.665076 -0.162480 0.000085 -0.000152 0.000462
Al 4.700153 -0.938534 4.899795 -0.000037 0.000020 -0.000172
Al 4.694517 -0.944395 -5.199366 -0.000108 0.000076 -0.000058
Al 4.701930 -0.944495 -0.152524 -0.000040 -0.000018 0.000396
Al -3.174193 1.763045 4.898585 0.000051 -0.000095 -0.000066
Al -3.169032 1.766647 -5.197201 -0.000003 -0.000025 0.000041
Al -3.169028 1.764024 -0.147797 -0.000014 0.000160 0.000196
Ga -0.030581 -3.672638 4.895457 0.000120 -0.000145 0.000056
Al -0.029017 -3.673429 -5.194411 0.000063 0.000016 -0.000346
Al -0.036228 -3.668617 -0.138612 0.000284 0.000002 -0.000290
Al -1.608148 -0.942049 4.891229 -0.000113 0.000100 -0.000074
Al -1.602665 -0.941832 -5.181630 -0.000111 0.000077 -0.000117
Al -1.603522 -0.946782 -0.156124 0.000037 -0.000009 0.000346
N 1.591022 0.852398 4.277802 0.000262 -0.000190 0.000077
N 1.551742 0.863997 -5.786108 0.000094 -0.000063 0.000148
N 1.547364 0.916748 -0.774290 0.000298 0.000369 0.000261
N 0.018865 3.611092 4.259684 0.000115 0.000121 0.000634
N -0.016106 3.588842 -5.786456 -0.000038 -0.000036 0.000127
N -0.023782 3.588038 -0.756862 -0.000008 0.000007 0.000155
N 3.129423 -1.807431 4.283421 -0.000020 0.000132 0.000093
N 3.120714 -1.846896 -5.793268 -0.000043 -0.000006 0.000153
N 3.166107 -1.877069 -0.772383 0.000196 -0.000116 0.000178
N -4.738715 0.869034 4.298252 0.000091 -0.000027 0.000248
N -4.739762 0.867437 -5.804857 0.000083 -0.000064 -0.000014
N -4.739337 0.866229 -0.758074 0.000089 -0.000103 0.000251
N -6.354496 3.562503 4.274453 -0.000166 -0.000045 0.000088
N -6.316041 3.585267 -5.794318 -0.000141 0.000054 0.000058
N -6.309083 3.588605 -0.754632 -0.000187 0.000038 0.000262
N -3.166576 -1.854953 4.290820 -0.000038 0.000055 0.000146
N -3.164133 -1.854613 -5.797884 -0.000000 0.000009 0.000028
N -3.166702 -1.851889 -0.757586 -0.000003 0.000033 0.000332
N -1.636699 0.848364 4.273587 0.000272 -0.000124 0.000115
N -1.598933 0.865062 -5.794047 0.000293 -0.000177 0.000023
N -1.595458 0.868034 -0.753637 0.000161 -0.000066 0.000321
N -3.163304 3.541406 4.253390 0.000131 -0.000118 0.000268
N -3.167213 3.583680 -5.779324 0.000089 -0.000097 0.000220
N -3.168166 3.589366 -0.689349 0.000301 0.000471 0.000810
N -0.024473 -1.803620 4.291543 0.000148 0.000151 -0.000006
N -0.022109 -1.846226 -5.732023 0.000112 -0.000043 0.000509
N -0.065974 -1.877459 -0.773613 -0.000010 -0.000365 0.000364
N -0.022938 1.772827 1.767489 -0.000127 -0.000009 -0.000348
N -0.020744 1.774499 6.887919 -0.000210 0.000116 0.000268
N -0.026312 1.774156 -3.279139 -0.000204 -0.000027 0.000074
N 3.126455 -3.661960 1.771193 -0.000160 0.000146 -0.000110
N 3.123020 -3.667301 6.890236 -0.000128 0.000073 0.000363
N 3.163096 -3.646319 -3.295611 -0.000016 0.000117 0.000109
N 1.550418 -0.945602 1.819735 -0.000172 -0.000743 -0.000332
N 1.593699 -0.918579 6.806106 0.000325 -0.000233 0.000053
N 1.554128 -0.946757 -3.259697 -0.000188 0.000192 0.000097
N 3.122939 1.773370 1.761388 0.000088 -0.000019 -0.000311
N 3.119980 1.776779 6.824850 0.000078 -0.000092 0.000106
N 3.122607 1.775765 -3.277930 0.000032 -0.000095 0.000055
N 6.265102 -3.663521 1.754874 0.000063 0.000081 -0.000479
N 6.264505 -3.665409 6.824246 0.000049 -0.000009 0.000020
N 6.264451 -3.665843 -3.270396 0.000073 -0.000016 0.000186
N 4.695503 -0.943803 1.768492 -0.000119 0.000090 -0.000349
N 4.695387 -0.944666 6.823185 -0.000166 0.000123 0.000078
N 4.696180 -0.945050 -3.282971 -0.000059 0.000121 0.000009
N -3.169938 1.766290 1.763598 -0.000005 0.000036 -0.000322
N -3.165229 1.777338 6.823527 -0.000033 0.000085 -0.000003
N -3.167599 1.725884 -3.287531 -0.000034 -0.000292 0.000021
N -0.029402 -3.662816 1.779424 0.000141 0.000172 -0.000180
N -0.020347 -3.713465 6.869178 -0.000133 -0.000401 0.000226
N -0.065068 -3.650233 -3.289350 -0.000178 0.000106 0.000065
N -1.595098 -0.948227 1.764276 -0.000128 0.000196 -0.000439
N -1.635455 -0.920010 6.806149 -0.000368 0.000259 -0.000012
N -1.600241 -0.943435 -3.270291 -0.000211 0.000174 0.000103
