108
Energy=-5.739880e+05 Lattice="9.474448e+00 0.000000e+00 0.000000e+00 -4.738904e+00 8.200896e+00 0.000000e+00 -1.411096e-04 -1.625657e-04 1.528353e+01" Stress="1.781316e-02 4.492585e-03 -1.862402e-04 4.479873e-03 2.217523e-02 -2.770724e-04 -1.820057e-04 -2.705872e-04 3.139378e-02" Properties=species:S:1:pos:R:3:forces:R:3 Config_type=AlGaN_super3_3_2_1.xyz
Al 1.563093e+00 8.998397e-01 2.475800e+00 -1.252360e-03 -1.380611e-02 -9.036249e-03
Al 1.562438e+00 8.997874e-01 7.502471e+00 -9.276040e-04 -1.316191e-02 -4.695886e-03
Al 1.562371e+00 9.012519e-01 -2.755046e+00 -1.245875e-03 -1.304735e-02 -3.859024e-03
Al -3.130372e-03 3.607473e+00 2.469016e+00 -2.634431e-03 -1.699573e-03 -6.894203e-03
Al -2.673116e-03 3.608964e+00 7.502439e+00 -2.544400e-03 -1.060477e-03 -2.819558e-03
Al -3.067332e-03 3.608667e+00 -2.752110e+00 -2.493916e-03 -1.299157e-03 -1.735902e-03
Al 3.172080e+00 -1.883211e+00 2.475942e+00 -3.279233e-03 1.739869e-03 -8.836208e-03
Al 3.171393e+00 -1.882301e+00 7.502402e+00 -2.647313e-03 1.464599e-03 -3.968123e-03
Al 3.173258e+00 -1.882501e+00 -2.754965e+00 -2.725464e-03 1.207075e-03 -3.491637e-03
Al -4.782161e+00 8.996295e-01 2.470620e+00 1.048638e-03 -1.219055e-02 -6.925542e-03
Al -4.782498e+00 9.000676e-01 7.502343e+00 1.570341e-03 -1.202573e-02 -3.915097e-03
Al -4.781832e+00 9.004284e-01 -2.750326e+00 1.168270e-03 -1.201186e-02 -2.211519e-03
Al -6.347028e+00 3.610040e+00 2.469444e+00 -3.217813e-04 -3.528705e-04 -5.541788e-03
Al -6.346955e+00 3.609631e+00 7.502507e+00 -1.293735e-04 1.243951e-04 -1.839647e-03
Al -6.346883e+00 3.609680e+00 -2.751115e+00 -3.326293e-04 1.002375e-04 -8.158087e-04
Al -3.175313e+00 -1.882320e+00 2.471949e+00 1.955172e-03 4.343121e-03 -8.084985e-03
Al -3.173199e+00 -1.881534e+00 7.502435e+00 -3.153962e-04 2.697923e-03 -2.841494e-03
Al -3.173694e+00 -1.880779e+00 -2.752620e+00 -1.767098e-04 2.456522e-03 -2.107777e-03
Al -1.651854e+00 8.966429e-01 2.472780e+00 1.348939e-02 -4.554357e-03 -8.676595e-03
Al -1.651832e+00 9.007199e-01 7.502238e+00 1.265759e-02 -7.182934e-03 -5.738082e-03
Al -1.652039e+00 9.009846e-01 -2.757573e+00 1.376815e-02 -6.873988e-03 -9.102428e-04
Al -3.217471e+00 3.609764e+00 2.469743e+00 1.150762e-02 4.897041e-03 -6.673768e-03
Al -3.217164e+00 3.610775e+00 7.502161e+00 1.129129e-02 4.741193e-03 -3.873207e-03
Al -3.217616e+00 3.609643e+00 -2.749767e+00 1.138704e-02 5.086074e-03 -1.743753e-03
Al -4.277055e-02 -1.878016e+00 2.476014e+00 1.206924e-02 7.892106e-03 -8.897108e-03
Al -4.333366e-02 -1.880977e+00 7.502688e+00 1.103625e-02 7.393987e-03 -4.414480e-03
Ga -4.347085e-02 -1.880603e+00 -2.755458e+00 1.352329e-02 9.470124e-03 -4.616299e-03
Al -2.291927e-03 1.802536e+00 4.989116e+00 -1.097126e-02 -7.448475e-03 -4.838527e-03
Al -1.434206e-03 1.802492e+00 -5.268942e+00 -1.083351e-02 -7.252421e-03 -4.164827e-03
Al -4.445012e-03 1.799914e+00 -2.274341e-01 -8.927913e-03 -6.457576e-03 2.610538e-02
Al 3.171811e+00 -3.689420e+00 4.989035e+00 -1.114175e-02 -4.998301e-03 -3.702287e-03
Al 3.171702e+00 -3.688412e+00 -5.267768e+00 -1.106162e-02 -4.905607e-03 -3.218197e-03
Al 3.170863e+00 -3.688064e+00 -2.289472e-01 -1.104712e-02 -5.370099e-03 2.663191e-02
Al 1.606780e+00 -9.794345e-01 4.990659e+00 -1.263874e-02 7.501836e-03 -6.303789e-03
Al 1.607464e+00 -9.788950e-01 -5.268774e+00 -1.313650e-02 7.286010e-03 -5.412596e-03
Al 1.607832e+00 -9.799792e-01 -2.492541e-01 -1.340093e-02 7.913786e-03 2.838390e-02
Al 3.127685e+00 1.803327e+00 4.988779e+00 2.794925e-04 -2.794840e-03 -3.090322e-03
Al 3.127225e+00 1.803018e+00 -5.267925e+00 9.790594e-05 -2.469261e-03 -2.394802e-03
Al 3.124445e+00 1.801088e+00 -2.305133e-01 1.350070e-04 -2.758194e-03 2.743521e-02
Al 6.301120e+00 -3.688545e+00 4.988488e+00 7.328441e-05 -4.387086e-04 -1.907649e-03
Al 6.301533e+00 -3.688148e+00 -5.267614e+00 1.480217e-04 -1.646709e-04 -1.572429e-03
Al 6.299864e+00 -3.688290e+00 -2.287063e-01 1.560812e-05 -4.000902e-04 2.797196e-02
Al 4.736558e+00 -9.792042e-01 4.989662e+00 -1.590323e-03 1.232856e-02 -3.658009e-03
Al 4.736302e+00 -9.789411e-01 -5.267943e+00 -1.337311e-03 1.197521e-02 -3.377446e-03
Al 4.735029e+00 -9.788802e-01 -2.294325e-01 -1.253707e-03 1.218053e-02 2.686286e-02
Al -3.216951e+00 1.803531e+00 4.988207e+00 2.651547e-03 -1.598917e-03 -3.792948e-03
Ga -3.217127e+00 1.803987e+00 -5.267591e+00 2.615240e-03 -1.522506e-03 -2.747950e-03
Al -3.221039e+00 1.804890e+00 -2.203645e-01 6.049463e-03 -2.921975e-03 2.478462e-02
Al -4.325930e-02 -3.687596e+00 4.988523e+00 2.505501e-03 9.458170e-04 -2.893666e-03
Al -4.287262e-02 -3.687621e+00 -5.268378e+00 2.174876e-03 1.335108e-03 -2.589599e-03
Al -4.386466e-02 -3.692392e+00 -2.193845e-01 2.649307e-03 2.728301e-03 2.592585e-02
Al -1.608478e+00 -9.782985e-01 4.989791e+00 9.302955e-04 1.333894e-02 -4.326465e-03
Al -1.607971e+00 -9.782971e-01 -5.269299e+00 1.100659e-03 1.292901e-02 -4.550214e-03
Ga -1.603545e+00 -9.765114e-01 -2.271143e-01 1.444451e-03 1.774494e-02 3.314803e-02
N 1.562590e+00 9.007247e-01 4.393980e+00 -3.738976e-04 -1.261066e-02 4.383113e-03
N 1.562763e+00 9.000756e-01 -5.864339e+00 -3.751685e-04 -1.285239e-02 4.115042e-03
N 1.560444e+00 8.993861e-01 -8.361888e-01 2.660323e-04 -1.261784e-02 5.946441e-03
N -2.643783e-03 3.608717e+00 4.391064e+00 -1.763896e-03 1.713441e-04 1.434128e-03
N -2.420236e-03 3.609295e+00 -5.864115e+00 -1.986606e-03 1.742636e-05 1.965637e-03
N -4.336377e-03 3.607923e+00 -8.293025e-01 -1.163314e-03 8.008352e-04 2.942447e-03
N 3.172254e+00 -1.883070e+00 4.394175e+00 -2.162855e-03 1.356841e-03 1.645697e-03
N 3.171700e+00 -1.882065e+00 -5.864128e+00 -2.260916e-03 1.377974e-03 1.437583e-03
N 3.172445e+00 -1.882641e+00 -8.362185e-01 -2.003854e-03 1.021860e-03 3.468829e-03
N -4.782134e+00 9.000052e-01 4.391634e+00 9.762367e-04 -1.249940e-02 4.072418e-03
N -4.784364e+00 8.990815e-01 -5.864711e+00 -1.703615e-02 -2.316355e-02 -2.700131e-03
N -4.783424e+00 8.999871e-01 -8.284053e-01 1.657201e-03 -1.251199e-02 5.397338e-03
N -6.347119e+00 3.609940e+00 4.391071e+00 -3.113227e-04 3.354962e-04 1.648943e-03
N -6.346798e+00 3.609689e+00 -5.864074e+00 -3.578076e-04 1.076189e-04 2.297083e-03
N -6.348000e+00 3.609075e+00 -8.281396e-01 -2.671368e-04 6.237353e-04 3.372657e-03
N -3.173850e+00 -1.882082e+00 4.392434e+00 -4.294552e-04 1.854842e-03 1.016043e-03
N -3.173195e+00 -1.881459e+00 -5.864359e+00 -1.059262e-03 1.764159e-03 1.969278e-03
N -3.174157e+00 -1.880431e+00 -8.302246e-01 -1.802448e-02 -8.344430e-03 -3.789338e-03
N -1.652224e+00 9.005666e-01 4.392588e+00 1.258200e-02 -7.508206e-03 6.660864e-03
N -1.649940e+00 8.998768e-01 -5.865280e+00 3.060153e-02 -1.757448e-02 -4.627639e-04
N -1.633442e+00 9.109537e-01 -8.234238e-01 5.176799e-03 7.692825e-03 -8.462198e-04
N -3.217250e+00 3.610315e+00 4.391117e+00 1.110787e-02 5.482138e-03 3.944162e-03
N -3.217024e+00 3.613161e+00 -5.865003e+00 1.165716e-02 2.624108e-02 -3.020396e-03
N -3.218104e+00 3.610134e+00 -8.266004e-01 1.097512e-02 5.540442e-03 5.263129e-03
N -4.425584e-02 -1.880731e+00 4.394130e+00 1.040113e-02 6.561683e-03 4.034478e-03
N -4.316667e-02 -1.880914e+00 -5.863984e+00 1.097925e-02 6.877729e-03 3.415809e-03
N -3.991528e-02 -1.882691e+00 -8.355794e-01 2.807687e-02 -4.617207e-03 2.196704e-02
N -1.993112e-03 1.799037e+00 1.871456e+00 -1.051859e-02 -5.573885e-03 -2.269623e-02
N -2.223572e-03 1.802456e+00 6.906528e+00 -1.080473e-02 -6.799006e-03 4.067125e-03
N -2.197999e-03 1.802789e+00 -3.351918e+00 -1.081107e-02 -6.803815e-03 3.807620e-03
N 3.170919e+00 -3.689135e+00 1.870898e+00 -1.126995e-02 -5.450717e-03 -2.279584e-02
N 3.171617e+00 -3.689135e+00 6.906476e+00 -1.128743e-02 -5.440056e-03 4.344430e-03
N 3.171584e+00 -3.689326e+00 -3.349519e+00 -1.172010e-02 -5.567418e-03 4.662261e-03
N 1.607999e+00 -9.795844e-01 1.890804e+00 -1.304480e-02 7.479063e-03 -2.361165e-02
N 1.606686e+00 -9.794452e-01 6.907369e+00 -1.284218e-02 7.293928e-03 6.878656e-03
N 1.609648e+00 -9.777288e-01 -3.352451e+00 2.285027e-03 1.559094e-02 1.470438e-03
N 3.127523e+00 1.802339e+00 1.871306e+00 9.913295e-04 -1.359620e-03 -2.562680e-02
N 3.127593e+00 1.803136e+00 6.906364e+00 8.123923e-04 -1.573267e-03 1.650051e-03
N 3.127805e+00 1.803637e+00 -3.349288e+00 1.426983e-03 -1.708456e-03 1.830990e-03
N 6.300889e+00 -3.688641e+00 1.869735e+00 8.037946e-04 5.003458e-04 -2.488403e-02
N 6.301300e+00 -3.688420e+00 6.906455e+00 3.955777e-04 -1.761265e-04 2.082660e-03
N 6.301280e+00 -3.688048e+00 -3.348930e+00 6.086379e-04 -1.916653e-04 2.404944e-03
N 4.735214e+00 -9.793599e-01 1.871915e+00 -3.958732e-04 1.246287e-02 -2.285239e-02
N 4.736486e+00 -9.788619e-01 6.906720e+00 -8.865642e-04 1.238212e-02 4.283530e-03
N 4.737034e+00 -9.786291e-01 -3.349861e+00 -9.040917e-04 1.303254e-02 4.412289e-03
N -3.216449e+00 1.801229e+00 1.870359e+00 1.993672e-03 -7.060867e-04 -2.563597e-02
N -3.216933e+00 1.803644e+00 6.906510e+00 2.299836e-03 -1.349587e-03 7.772877e-04
N -3.217080e+00 1.803842e+00 -3.346829e+00 2.041707e-03 -1.606617e-03 2.378086e-02
N -4.340781e-02 -3.685463e+00 1.870809e+00 1.627549e-03 -1.873150e-05 -2.530714e-02
N -4.309793e-02 -3.687714e+00 6.906301e+00 1.755658e-03 7.950301e-05 1.596090e-03
N -4.296185e-02 -3.690352e+00 -3.350479e+00 2.095092e-03 -2.110888e-02 -5.901483e-03
N -1.598171e+00 -9.604535e-01 1.870203e+00 -3.438236e-03 6.266083e-03 -8.400287e-03
N -1.608023e+00 -9.782566e-01 6.906831e+00 4.016320e-04 1.259519e-02 3.967115e-03
N -1.610417e+00 -9.768118e-01 -3.352824e+00 -1.747210e-02 2.316965e-02 -3.427842e-03
