108
Energy=-619766.212454 Lattice="9.421488 0.000000 0.000000 -4.719296 8.154920 0.000000 0.006535 0.020572 15.109626" Stress="0.000003 -0.000002 0.000002 -0.000002 -0.000000 0.000005 0.000002 0.000005 -0.000001" Properties=species:S:1:pos:R:3:forces:R:3
Al 1.548158 0.876246 2.367070 0.000328 -0.000511 0.000253
Al 1.553443 0.884043 7.401103 0.000351 0.000078 0.000208
Al 1.549405 0.868269 -2.667438 0.000380 0.000239 0.000153
Al -0.029419 3.586268 2.377970 -0.000122 -0.000206 0.001009
Al -0.022231 3.595362 7.403930 0.000164 -0.000081 -0.000077
Al -0.034236 3.574529 -2.682176 0.000270 0.000023 -0.000091
Al 3.128318 -1.846595 2.368645 0.000088 -0.000153 -0.000027
Al 3.133174 -1.841023 7.402715 0.000133 -0.000378 0.000124
Al 3.129628 -1.860982 -2.667909 0.000219 -0.000209 -0.000079
Al -4.733111 0.873150 2.369907 0.000567 -0.000382 -0.000248
Al -4.731165 0.877797 7.403489 0.000158 0.000030 -0.000151
Al -4.740525 0.859986 -2.672758 0.000411 0.000062 -0.000146
Al -6.297846 3.584994 2.381338 -0.000838 0.000316 0.000493
Al -6.308715 3.588845 7.401179 0.000035 0.000211 0.000034
Al -6.309587 3.566090 -2.676509 -0.000202 0.000235 0.000082
Al -3.164873 -1.840102 2.376081 0.000307 -0.000045 -0.000364
Al -3.173872 -1.846851 7.416528 0.000113 0.000164 -0.000177
Al -3.172647 -1.852781 -2.676743 0.000236 -0.000287 -0.000086
Al -1.594800 0.885339 2.359673 0.000300 -0.000878 0.000048
Al -1.595527 0.898145 7.415330 0.000044 -0.000268 0.000326
Al -1.604888 0.870356 -2.667913 0.000721 -0.000238 0.000176
Al -3.164003 3.592179 2.368296 0.000542 -0.000659 0.000220
Al -3.160490 3.589840 7.402266 0.000435 0.000108 0.000310
Al -3.166002 3.572610 -2.668324 0.000280 -0.000132 0.000414
Al -0.012804 -1.846021 2.357974 0.000049 0.000140 -0.000012
Ga -0.010284 -1.841314 7.427443 0.000756 -0.000506 -0.000760
Ga -0.024945 -1.855704 -2.659950 0.000614 -0.000561 -0.001190
Al -0.017889 1.788166 4.885690 -0.000150 0.000185 0.000644
Al -0.025956 1.762212 -5.187645 -0.000261 0.000298 0.000029
Al -0.029071 1.762260 -0.155138 -0.000155 0.000470 0.000463
Al 3.126085 -3.655838 4.887230 -0.000416 0.000326 -0.000366
Al 3.117729 -3.672426 -5.192229 -0.000263 0.000218 -0.000119
Al 3.112485 -3.669700 -0.150563 0.000126 0.000620 0.000092
Al 1.568840 -0.934861 4.875634 -0.000831 0.000215 -0.000372
Al 1.560728 -0.946872 -5.180047 0.000191 -0.000158 0.000188
Al 1.557595 -0.944496 -0.144327 0.000029 0.000140 0.001323
Al 3.117996 1.781155 4.886787 0.000069 0.000029 0.000055
Al 3.112020 1.763610 -5.192420 -0.000096 0.000078 0.000029
Al 3.119339 1.762627 -0.147340 0.000032 -0.000040 -0.000271
Al 6.260274 -3.661175 4.884991 0.000340 -0.000015 -0.000281
Al 6.259523 -3.673897 -5.184725 0.000041 -0.000095 -0.000401
Ga 6.260909 -3.668961 -0.147774 -0.000101 0.000177 0.000807
Al 4.685268 -0.935307 4.889866 -0.000359 0.000119 0.000027
Al 4.684702 -0.954662 -5.187929 -0.000327 0.000281 -0.000045
Al 4.684245 -0.940841 -0.152048 -0.000071 0.000110 0.000171
Al -3.167783 1.792002 4.886253 -0.000280 0.000002 0.000037
Al -3.170355 1.767087 -5.186689 -0.000168 0.000245 0.000251
Al -3.170351 1.770581 -0.153133 -0.000124 0.000280 -0.000578
Al -0.009852 -3.664021 4.879329 -0.000267 0.000295 0.000006
Al -0.021448 -3.684389 -5.183488 0.000398 -0.000872 0.000159
Al -0.013536 -3.676027 -0.135123 0.000343 0.000218 -0.001828
Ga -1.589062 -0.930669 4.886413 -0.000498 0.000207 -0.000322
Al -1.605108 -0.946025 -5.185419 0.000860 -0.000201 -0.000860
Al -1.594152 -0.936841 -0.138633 -0.001191 0.000544 0.001627
N 1.547266 0.878802 4.285485 0.000402 0.000173 -0.000076
N 1.542127 0.859529 -5.790602 0.000119 -0.000155 -0.000116
N 1.545757 0.865173 -0.746896 0.000178 -0.000177 -0.000418
N -0.026797 3.592718 4.294783 -0.000085 -0.000261 0.000112
N -0.029341 3.575773 -5.784813 0.000114 -0.000065 0.000294
N -0.070310 3.557495 -0.770583 -0.000124 -0.000093 -0.000349
N 3.127625 -1.845046 4.284273 0.000426 -0.000391 0.000268
N 3.117878 -1.860963 -5.790278 0.000487 -0.000078 0.000012
N 3.119917 -1.857815 -0.749246 0.000207 0.000075 0.000277
N -4.733236 0.876014 4.290180 0.000260 0.000088 0.000000
N -4.739021 0.858354 -5.786512 0.000438 -0.000030 0.000087
N -4.739441 0.863035 -0.753571 0.000426 0.000316 0.000101
N -6.303645 3.592292 4.294874 0.000003 -0.000227 0.000130
N -6.312880 3.576326 -5.789691 -0.000133 -0.000034 0.000076
N -6.268645 3.556029 -0.766019 0.000419 0.000098 0.000053
N -3.201131 -1.862219 4.278340 -0.000196 -0.000322 0.000506
N -3.169335 -1.863516 -5.779755 0.000045 -0.000215 0.000303
N -3.162373 -1.807719 -0.765492 0.000125 0.000303 -0.000004
N -1.594628 0.931616 4.268323 0.000536 -0.000208 -0.000222
N -1.600067 0.867169 -5.781352 0.000460 -0.000295 0.000113
N -1.599512 0.864989 -0.747429 0.000405 -0.000000 -0.000309
N -3.162627 3.596265 4.284789 0.000404 -0.000382 -0.000210
N -3.170294 3.577278 -5.790479 0.000213 -0.000687 -0.000112
N -3.170005 3.582928 -0.749385 -0.000027 -0.000221 -0.000051
N 0.023334 -1.862971 4.271611 0.000624 -0.000753 0.000054
N -0.014901 -1.864434 -5.712020 -0.002018 0.002077 0.000250
N -0.025253 -1.853653 -0.683752 0.001108 -0.000365 0.000254
N -0.019350 1.778709 1.764214 -0.000154 0.000561 -0.000073
N -0.019629 1.782590 6.806787 -0.000295 0.000163 -0.000037
N -0.025570 1.759998 -3.268407 -0.000253 0.000373 -0.000327
N 3.126812 -3.660125 1.770715 -0.000312 0.000072 -0.000110
N 3.126794 -3.654542 6.806860 -0.000132 0.000263 0.000174
N 3.117741 -3.671646 -3.273355 -0.000221 0.000489 0.000016
N 1.562306 -0.937051 1.776204 -0.000811 -0.000103 -0.001078
N 1.597034 -0.912878 6.787425 -0.000383 0.000533 -0.000064
N 1.595739 -0.928003 -3.273022 -0.000535 0.000410 0.000419
N 3.120454 1.777714 1.772323 -0.000511 0.000195 0.000019
N 3.120620 1.782494 6.804709 -0.000036 -0.000089 0.000091
N 3.113227 1.763242 -3.275070 -0.000119 -0.000111 -0.000146
N 6.265254 -3.660237 1.832977 0.000428 -0.000564 -0.001623
N 6.266271 -3.653308 6.806340 -0.000187 -0.000068 0.000119
N 6.261150 -3.671741 -3.263959 -0.000029 0.000007 0.000111
N 4.693776 -0.937769 1.766980 -0.000795 -0.000095 -0.000346
N 4.694637 -0.934017 6.806784 -0.000260 0.000038 0.000220
N 4.686575 -0.951852 -3.271877 -0.000554 0.000245 -0.000008
N -3.167316 1.781097 1.764108 -0.000432 0.000101 0.000331
N -3.162604 1.784699 6.804519 -0.000299 -0.000029 -0.000102
N -3.169844 1.766837 -3.267007 -0.000358 0.000177 0.000057
N -0.016084 -3.664316 1.773549 -0.000325 -0.000033 0.001543
N -0.013945 -3.696714 6.790135 -0.000417 -0.000584 0.000065
N -0.019337 -3.719412 -3.279252 -0.000051 -0.000182 0.000143
N -1.592465 -0.935824 1.785985 -0.000131 -0.000206 -0.001422
N -1.628976 -0.908831 6.854723 -0.000107 0.000091 -0.000125
N -1.634535 -0.924889 -3.280684 -0.000747 0.000392 0.000221
