108
Energy=-1.123296e+06 Lattice="9.476296e+00 0.000000e+00 0.000000e+00 -4.739158e+00 8.203503e+00 0.000000e+00 -1.778492e-03 -3.286636e-02 1.527505e+01" Stress="3.810048e-05 -7.069738e-05 -7.645796e-05 -7.161471e-05 -4.549504e-04 -1.423054e-03 -8.102633e-05 -1.427912e-03 5.850969e-04" Properties=species:S:1:pos:R:3:forces:R:3 Config_type=AlGaN_super3_15_1_29.xyz
Al 1.554190e+00 8.674008e-01 2.398872e+00 1.004884e-04 2.087984e-04 3.546165e-05
Al 1.554022e+00 8.588497e-01 7.463320e+00 1.511327e-05 -9.865656e-05 -2.710077e-04
Al 1.559396e+00 8.777897e-01 -2.670017e+00 5.710264e-05 -8.846919e-05 3.020418e-05
Al -3.887681e-02 3.598008e+00 2.386229e+00 7.283702e-05 7.304481e-05 -1.275403e-04
Al -2.208321e-02 3.581176e+00 7.471932e+00 -1.396927e-04 -1.087869e-04 1.730869e-04
Al -1.621738e-02 3.615719e+00 -2.664760e+00 -1.033311e-04 -6.275279e-05 9.371168e-05
Al 3.129537e+00 -1.878376e+00 2.379887e+00 1.941644e-04 8.954444e-05 7.358980e-05
Al 3.132091e+00 -1.874986e+00 7.497355e+00 -9.398408e-05 2.304629e-04 1.671890e-04
Ga 3.138302e+00 -1.846150e+00 -2.682305e+00 4.218193e-06 -1.593036e-06 -4.510515e-05
Al -4.767227e+00 8.689329e-01 2.415232e+00 -2.327437e-05 -1.676313e-05 5.535597e-05
Al -4.762072e+00 8.596400e-01 7.481199e+00 -9.523112e-05 -3.008596e-05 -1.394007e-05
Al -4.756799e+00 8.791001e-01 -2.698885e+00 2.582776e-05 3.533928e-06 -8.546077e-05
Ga -6.335240e+00 3.595065e+00 2.384864e+00 4.168659e-05 -1.211781e-04 -6.783306e-05
Al -6.339622e+00 3.585883e+00 7.485464e+00 -6.869725e-05 1.038566e-04 3.853831e-05
Ga -6.346059e+00 3.614238e+00 -2.673694e+00 2.317927e-05 -3.255393e-05 1.709070e-05
Al -3.175276e+00 -1.860360e+00 2.401189e+00 -9.190521e-05 2.079801e-04 -1.416949e-04
Ga -3.176397e+00 -1.875559e+00 7.502316e+00 4.241554e-06 -4.784377e-06 2.853587e-05
Al -3.184436e+00 -1.856411e+00 -2.707790e+00 -9.118045e-06 6.112763e-05 2.962040e-06
Al -1.593968e+00 8.625261e-01 2.401703e+00 -3.334231e-05 -7.960018e-05 1.930129e-05
Al -1.598452e+00 8.557890e-01 7.468940e+00 1.583039e-04 -9.986334e-05 8.118171e-05
Ga -1.608366e+00 8.829217e-01 -2.680015e+00 5.459481e-06 -3.940512e-05 -4.806899e-05
Al -3.171171e+00 3.609880e+00 2.422268e+00 -8.046175e-05 -1.604263e-05 -4.043905e-05
Ga -3.184932e+00 3.585741e+00 7.466034e+00 -3.228134e-05 1.110741e-05 -1.176278e-05
Al -3.184883e+00 3.605762e+00 -2.694523e+00 1.914271e-05 -2.187802e-05 1.506108e-04
Al -2.441223e-02 -1.862660e+00 2.389115e+00 -3.161442e-05 -2.387209e-04 -1.017919e-04
Al -2.367718e-02 -1.873288e+00 7.490330e+00 1.039130e-05 -1.050897e-04 -6.968672e-05
Ga -1.997596e-02 -1.850178e+00 -2.683180e+00 1.870391e-05 -2.221776e-05 2.234655e-05
Al -3.375119e-02 1.773358e+00 4.932045e+00 -3.594948e-05 -1.495247e-04 1.177200e-04
Ga -2.151665e-02 1.790748e+00 -5.245583e+00 -9.460295e-05 2.443254e-06 -4.022356e-05
Al -8.104837e-03 1.786704e+00 -1.314652e-01 1.352492e-05 -7.295453e-05 -3.743843e-05
Al 3.133251e+00 -3.706894e+00 4.934160e+00 -5.556839e-05 2.391580e-04 -9.000138e-05
Ga 3.139796e+00 -3.671807e+00 -5.235499e+00 3.145874e-05 5.163811e-05 -2.499055e-05
Al 3.131461e+00 -3.693830e+00 -1.394973e-01 -6.299835e-05 -2.047093e-04 8.749230e-06
Ga 1.546195e+00 -9.662950e-01 4.934797e+00 -1.928139e-05 -1.945179e-05 4.296869e-05
Al 1.550975e+00 -9.384345e-01 -5.266485e+00 7.247230e-05 -5.693142e-05 -8.878180e-05
Al 1.544100e+00 -9.397971e-01 -1.119193e-01 3.650115e-05 -6.394304e-05 -9.591326e-05
Al 3.140197e+00 1.776448e+00 4.956356e+00 -2.477764e-05 3.748831e-05 -4.297543e-06
Ga 3.143133e+00 1.791792e+00 -5.249775e+00 5.677886e-07 -1.222161e-05 -5.980043e-06
Al 3.123535e+00 1.777281e+00 -1.472478e-01 3.858881e-05 9.384911e-05 1.751533e-04
Ga 6.293621e+00 -3.707342e+00 4.937489e+00 3.509492e-05 -5.985552e-06 2.037532e-05
Al 6.299343e+00 -3.666358e+00 -5.240920e+00 -1.111381e-04 6.446626e-05 -1.304390e-04
Al 6.289764e+00 -3.681523e+00 -1.378224e-01 -2.781331e-05 3.150223e-05 1.360985e-04
Ga 4.712277e+00 -9.544508e-01 4.932791e+00 -5.276588e-05 -4.157190e-05 -3.810716e-05
Al 4.724212e+00 -9.321793e-01 -5.241713e+00 -3.926917e-05 -1.025259e-04 1.256153e-04
Ga 4.722645e+00 -9.511143e-01 -1.287175e-01 5.997849e-06 -4.724555e-05 9.928985e-06
Al -3.175998e+00 1.773057e+00 4.919020e+00 -2.981708e-07 1.162505e-05 -5.921598e-05
Al -3.186791e+00 1.784335e+00 -5.244745e+00 5.689910e-05 -1.335811e-04 -2.867380e-06
Ga -3.185108e+00 1.799731e+00 -1.179918e-01 -2.892064e-06 3.349614e-05 -2.754571e-05
Al -1.969870e-02 -3.694303e+00 4.938697e+00 7.868391e-05 1.062316e-04 7.188915e-06
Al -2.743470e-02 -3.663733e+00 -5.251923e+00 -4.902109e-05 -3.802867e-05 -8.147673e-05
Al -1.240193e-02 -3.677312e+00 -1.305084e-01 -2.823178e-05 -8.145381e-05 8.575449e-05
Al -1.590176e+00 -9.536180e-01 4.934177e+00 -1.690463e-05 1.142143e-04 -5.445414e-05
Al -1.601272e+00 -9.433164e-01 -5.252670e+00 -9.762021e-06 1.944911e-04 -8.112770e-05
Al -1.596762e+00 -9.612706e-01 -1.250806e-01 8.165439e-06 -2.517845e-04 3.870832e-05
N 1.558620e+00 9.139454e-01 4.321401e+00 -2.157922e-05 -1.646929e-04 -1.306003e-04
N 1.556501e+00 8.441642e-01 -5.908682e+00 1.832289e-05 -1.895325e-05 1.622747e-04
N 1.552842e+00 8.673696e-01 -7.471354e-01 4.733781e-05 -4.226165e-06 3.268561e-05
N -6.826387e-02 3.570005e+00 4.302765e+00 -1.749200e-05 1.879536e-04 -1.408212e-05
N 1.727795e-02 3.640593e+00 -5.895972e+00 5.387375e-05 -1.227163e-05 2.684025e-05
N -2.172851e-02 3.608389e+00 -7.409513e-01 2.233952e-05 -1.142630e-05 4.643159e-05
N 3.131227e+00 -1.923678e+00 4.286594e+00 1.178961e-05 -2.561823e-04 -2.876297e-05
N 3.140025e+00 -1.805599e+00 -5.858915e+00 2.689560e-05 3.644274e-05 -6.661348e-05
N 3.090307e+00 -1.878422e+00 -7.025954e-01 -3.892491e-06 1.138646e-04 -3.877310e-05
N -4.769271e+00 9.137528e-01 4.321235e+00 7.517683e-05 -4.631530e-05 -7.251535e-05
N -4.717505e+00 8.626684e-01 -5.878357e+00 -3.493869e-05 9.507714e-05 -1.350832e-04
N -4.795238e+00 8.973218e-01 -7.901737e-01 -6.414893e-06 3.650184e-06 9.333979e-05
N -6.297687e+00 3.569055e+00 4.356442e+00 -4.857105e-05 1.118100e-04 7.056071e-05
N -6.340286e+00 3.666421e+00 -5.867672e+00 6.888598e-05 -4.233231e-05 -6.308808e-05
N -6.339834e+00 3.612600e+00 -6.847539e-01 7.041068e-05 -4.457241e-05 -1.613660e-04
N -3.136818e+00 -1.849740e+00 4.305768e+00 5.771101e-05 -5.498495e-05 2.557519e-04
N -3.179912e+00 -1.849649e+00 -5.797406e+00 2.392644e-05 3.654041e-05 1.573606e-05
N -3.137434e+00 -1.882455e+00 -7.814343e-01 -1.885174e-05 -5.748501e-06 -5.630612e-05
N -1.596589e+00 8.582314e-01 4.324259e+00 1.232411e-05 6.731275e-05 9.300641e-06
N -1.642078e+00 8.637166e-01 -5.878735e+00 6.934843e-06 -2.050536e-04 -2.275814e-05
N -1.564324e+00 8.495145e-01 -7.027459e-01 4.521484e-05 2.093336e-04 -8.543671e-05
N -3.182319e+00 3.601620e+00 4.345808e+00 3.758388e-05 3.833555e-05 1.623285e-05
N -3.221652e+00 3.592728e+00 -5.832446e+00 -5.726085e-05 1.543948e-04 -5.782109e-05
N -3.185910e+00 3.652946e+00 -7.776320e-01 2.848353e-05 2.335995e-05 -3.972202e-05
N -6.589139e-02 -1.897214e+00 4.302384e+00 6.543362e-05 -1.792503e-04 -1.335959e-04
N -2.449584e-02 -1.849800e+00 -5.860379e+00 1.384465e-05 -2.675982e-05 1.406085e-05
N -2.066535e-02 -1.857332e+00 -6.980127e-01 -1.314584e-05 -6.068499e-07 -4.084100e-05
N -1.931478e-02 1.777695e+00 1.789697e+00 -3.592533e-05 8.105231e-05 3.854002e-05
N -2.690071e-02 1.768001e+00 6.859809e+00 -2.108555e-05 3.852902e-05 1.085990e-05
N 2.114089e-02 1.816172e+00 -3.263460e+00 -5.868579e-05 5.626497e-05 -3.363475e-05
N 3.131090e+00 -3.699440e+00 1.779884e+00 2.111263e-05 1.229089e-05 6.513204e-05
N 3.178923e+00 -3.673432e+00 6.854493e+00 2.635603e-05 -1.487401e-04 -7.211699e-05
N 3.141972e+00 -3.726022e+00 -3.259681e+00 -9.181129e-06 2.584860e-05 -5.547525e-05
N 1.552438e+00 -9.487863e-01 1.805533e+00 1.800315e-05 6.848426e-05 3.424809e-05
N 1.555575e+00 -9.724686e-01 6.916965e+00 -9.206372e-06 1.522407e-04 5.491482e-05
N 1.555000e+00 -8.916652e-01 -3.349203e+00 -1.283796e-05 2.471850e-05 3.207497e-05
N 3.135212e+00 1.723436e+00 1.762648e+00 3.731658e-06 -2.058533e-04 -9.696216e-05
N 3.138954e+00 1.768230e+00 6.880303e+00 7.528356e-06 9.452281e-05 5.416369e-05
N 3.132329e+00 1.745184e+00 -3.270289e+00 3.891284e-06 3.332204e-05 2.188446e-05
N 6.249535e+00 -3.662799e+00 1.778175e+00 -1.207598e-04 -2.781009e-04 3.083670e-05
N 6.294783e+00 -3.746463e+00 6.904921e+00 2.139095e-04 6.625841e-05 -7.686844e-05
N 6.251540e+00 -3.660933e+00 -3.317176e+00 1.019803e-04 3.733184e-05 7.384532e-05
N 4.719685e+00 -9.519803e-01 1.849890e+00 -2.023033e-04 4.538663e-05 1.516158e-07
N 4.673728e+00 -9.458099e-01 6.905372e+00 3.861660e-05 6.466409e-05 8.123114e-05
N 4.754106e+00 -9.176713e-01 -3.318771e+00 2.170680e-06 -1.094776e-04 -4.302916e-05
N -3.183619e+00 1.783242e+00 1.862959e+00 1.138661e-04 8.966508e-06 4.604449e-06
N -3.180408e+00 1.715918e+00 6.836750e+00 -8.452393e-05 6.232232e-05 -6.390215e-05
N -3.220199e+00 1.812315e+00 -3.323500e+00 -8.527667e-06 4.802223e-06 1.021413e-04
N 2.959082e-02 -3.669815e+00 1.778699e+00 -8.744456e-06 2.999233e-04 1.238666e-04
N -6.472665e-02 -3.671525e+00 6.854779e+00 -4.708586e-05 2.407253e-05 9.507208e-05
N 1.380173e-02 -3.697166e+00 -3.338324e+00 5.203629e-06 -1.848477e-05 4.303316e-05
N -1.604675e+00 -9.557748e-01 1.790287e+00 1.488628e-05 2.085878e-05 -6.844448e-06
N -1.558555e+00 -9.445484e-01 6.853209e+00 -8.613877e-05 5.498475e-05 8.744451e-05
N -1.636455e+00 -9.630612e-01 -3.342851e+00 -2.520011e-05 -2.059236e-05 2.870333e-05
