108
Energy=-2.084582e+06 Lattice="9.598891e+00 0.000000e+00 0.000000e+00 -4.801196e+00 8.304660e+00 0.000000e+00 5.759608e-03 2.606359e-03 1.555509e+01" Stress="8.045402e-05 -3.785049e-06 1.915574e-04 1.854139e-06 -1.058209e-03 9.848949e-05 2.075669e-04 1.071046e-04 1.503517e-03" Properties=species:S:1:pos:R:3:forces:R:3 Config_type=AlGaN_super3_36_0_14.xyz
Al 1.581280e+00 8.968319e-01 2.432726e+00 -5.646262e-05 -1.086839e-04 3.559901e-04
Al 1.590419e+00 9.056948e-01 7.657813e+00 3.196473e-04 1.634014e-04 4.314734e-04
Al 1.585228e+00 8.869994e-01 -2.763275e+00 -2.008607e-04 -2.226304e-04 5.247813e-04
Al -1.571249e-02 3.641044e+00 2.446786e+00 -1.622357e-04 -6.077874e-06 1.287010e-04
Al 1.926043e-03 3.639682e+00 7.657452e+00 -1.549985e-05 4.462984e-05 2.542701e-04
Ga -5.069242e-03 3.643544e+00 -2.764356e+00 -2.986651e-05 1.375114e-04 3.009275e-04
Ga 3.191272e+00 -1.876895e+00 2.440249e+00 -1.455057e-04 -9.146461e-05 1.136177e-04
Ga 3.189122e+00 -1.868950e+00 7.629495e+00 -5.407500e-05 9.153297e-05 2.369135e-04
Ga 3.180436e+00 -1.866921e+00 -2.733321e+00 -8.349583e-05 -5.470390e-05 3.299043e-04
Ga -4.845884e+00 8.723300e-01 2.431638e+00 2.054124e-04 5.887217e-05 3.920897e-04
Al -4.841738e+00 8.876372e-01 7.637488e+00 -3.814492e-05 1.955954e-04 1.438894e-04
Al -4.842884e+00 8.765620e-01 -2.736897e+00 4.924180e-04 -1.739952e-04 5.216836e-04
Ga -6.432056e+00 3.635440e+00 2.416232e+00 -1.274156e-05 2.639421e-05 4.713693e-04
Al -6.436900e+00 3.630272e+00 7.660399e+00 -3.000354e-05 -1.222033e-04 7.271584e-04
Ga -6.427997e+00 3.641230e+00 -2.748711e+00 1.814977e-05 5.791509e-04 3.527845e-04
Ga -3.235572e+00 -1.883218e+00 2.459033e+00 2.708760e-05 -5.186351e-06 1.746039e-04
Ga -3.223392e+00 -1.888910e+00 7.625319e+00 4.395199e-05 1.282615e-04 3.563571e-04
Al -3.223049e+00 -1.885958e+00 -2.750416e+00 8.461626e-05 -1.545555e-05 2.020239e-04
Ga -1.607763e+00 8.878467e-01 2.453205e+00 8.359955e-05 -1.512010e-04 -1.807071e-05
Ga -1.611256e+00 8.881844e-01 7.642080e+00 2.490554e-04 -7.050308e-05 1.806503e-04
Ga -1.613099e+00 8.758339e-01 -2.755166e+00 3.030452e-04 -1.501431e-05 1.254783e-04
Ga -3.224598e+00 3.656736e+00 2.441427e+00 9.003946e-05 -1.007233e-04 1.007937e-04
Ga -3.226284e+00 3.644639e+00 7.638005e+00 8.201893e-05 -2.558142e-06 1.792330e-04
Ga -3.237015e+00 3.654714e+00 -2.731451e+00 7.510249e-05 2.872248e-05 8.283680e-05
Ga -2.234492e-02 -1.881361e+00 2.445322e+00 6.917358e-05 -1.531207e-04 3.393935e-05
Ga -2.514519e-02 -1.875910e+00 7.627411e+00 1.456843e-04 4.056865e-05 2.691895e-04
Al -2.684031e-02 -1.882118e+00 -2.729937e+00 5.992423e-05 -3.182380e-05 2.822074e-05
Ga -9.612307e-03 1.803792e+00 5.048609e+00 -1.712606e-04 9.248169e-05 3.631440e-04
Al 1.244546e-03 1.810982e+00 -5.345472e+00 3.101859e-05 2.400899e-04 1.984029e-04
Ga 1.528081e-03 1.806725e+00 -1.433923e-01 -3.001401e-04 -1.624007e-04 5.742380e-04
Ga 3.198645e+00 -3.729176e+00 5.045426e+00 -1.506822e-04 5.695929e-06 1.172185e-04
Ga 3.196382e+00 -3.741887e+00 -5.337754e+00 -1.498593e-04 -4.730071e-05 1.448475e-04
Ga 3.181232e+00 -3.726028e+00 -1.402996e-01 -2.889640e-04 -1.022150e-04 5.388418e-04
Ga 1.582568e+00 -9.468477e-01 5.037556e+00 -3.056479e-04 -1.029842e-05 1.745791e-04
Ga 1.568637e+00 -9.384826e-01 -5.315844e+00 -1.030608e-04 1.945510e-04 2.480564e-04
Ga 1.580870e+00 -9.496975e-01 -1.642647e-01 -3.270429e-04 -1.159282e-04 6.118109e-04
Ga 3.175984e+00 1.795303e+00 5.063593e+00 -5.014599e-05 -4.066916e-05 6.332665e-04
Al 3.166223e+00 1.800348e+00 -5.335240e+00 -1.793921e-03 1.680257e-03 -2.879538e-03
Al 3.178211e+00 1.795740e+00 -1.745258e-01 -2.964325e-04 -1.534740e-04 8.443363e-04
Ga 6.375280e+00 -3.727029e+00 5.050481e+00 -5.839782e-05 -2.410357e-05 3.774529e-04
Al 6.377229e+00 -3.748564e+00 -5.343200e+00 3.616414e-04 -2.312521e-04 9.089421e-05
Ga 6.383315e+00 -3.721583e+00 -1.536370e-01 -3.226682e-04 -3.039888e-04 7.244668e-04
Al 4.787872e+00 -9.541292e-01 5.056829e+00 -6.269927e-05 -5.887907e-05 3.129393e-04
Ga 4.781479e+00 -9.499078e-01 -5.320780e+00 1.000851e-04 -3.420760e-04 1.567599e-04
Al 4.781867e+00 -9.505358e-01 -1.813553e-01 -3.172063e-04 -2.639446e-04 7.776329e-04
Ga -3.229215e+00 1.784853e+00 5.050999e+00 -3.604857e-05 -4.417583e-05 1.694099e-04
Ga -3.240961e+00 1.795209e+00 -5.325599e+00 2.735999e-04 2.235779e-04 1.509896e-04
Ga -3.248562e+00 1.802786e+00 -1.619597e-01 -1.008349e-04 -1.416186e-04 7.092191e-04
Ga -3.562449e-02 -3.727017e+00 5.057764e+00 2.113473e-05 2.176241e-05 3.559636e-04
Ga -4.685892e-02 -3.737028e+00 -5.327919e+00 -2.838108e-04 -1.824907e-05 1.131837e-04
Al -2.882642e-02 -3.729082e+00 -1.646643e-01 -3.832061e-05 -1.360692e-04 7.007489e-04
Al -1.631305e+00 -9.605429e-01 5.043379e+00 -6.137292e-05 -3.119270e-05 1.626862e-04
Ga -1.626607e+00 -9.703271e-01 -5.304025e+00 -1.583248e-04 2.128658e-05 1.370341e-04
Ga -1.628761e+00 -9.764772e-01 -1.751925e-01 -3.672194e-04 -1.791674e-04 7.645764e-04
N 1.584821e+00 8.910227e-01 4.349633e+00 2.000402e-04 6.398356e-05 -3.874806e-04
N 1.577727e+00 9.292045e-01 -5.973831e+00 7.255438e-04 9.072031e-05 1.689029e-04
N 1.616796e+00 9.132949e-01 -8.392347e-01 4.005500e-04 1.874836e-04 -4.292878e-04
N -1.677792e-02 3.647454e+00 4.359968e+00 1.211491e-04 1.822427e-06 -3.267799e-04
N 2.090687e-02 3.624163e+00 -5.971622e+00 -5.210738e-05 -5.841990e-05 -1.396086e-04
N -1.922703e-02 3.649773e+00 -7.936834e-01 1.995124e-04 1.072898e-04 -1.798170e-04
N 3.226994e+00 -1.856675e+00 4.432965e+00 9.639649e-05 -1.591533e-06 -1.790631e-04
N 3.174369e+00 -1.877735e+00 -5.948997e+00 2.059631e-04 -1.728734e-05 -1.681636e-04
N 3.216654e+00 -1.861327e+00 -7.572702e-01 2.930214e-04 1.465052e-04 -1.344903e-04
N -4.831637e+00 8.342767e-01 4.417222e+00 1.049003e-04 1.473369e-04 -4.254526e-04
N -4.873452e+00 9.051850e-01 -5.997905e+00 4.922196e-04 -5.800957e-04 1.615904e-04
N -4.872559e+00 8.618035e-01 -8.091201e-01 1.124742e-04 1.674171e-04 -4.635766e-04
N -6.423360e+00 3.643185e+00 4.398828e+00 1.023376e-05 -1.141336e-05 -4.835702e-04
N -6.469149e+00 3.619444e+00 -5.964327e+00 4.954189e-05 -4.587393e-04 4.871178e-04
N -6.385519e+00 3.623959e+00 -7.520151e-01 6.831058e-05 1.526661e-05 -4.902209e-04
N -3.226390e+00 -1.836668e+00 4.454853e+00 5.839626e-05 1.077752e-05 -2.113545e-04
N -3.224814e+00 -1.931830e+00 -5.946489e+00 -1.415852e-05 7.024685e-05 -2.645861e-04
N -3.266176e+00 -1.866638e+00 -8.304700e-01 1.490637e-04 1.219367e-04 -2.678464e-04
N -1.616978e+00 8.405156e-01 4.437672e+00 1.924286e-04 -2.556336e-05 -1.725168e-04
N -1.583309e+00 9.033771e-01 -5.924983e+00 1.285169e-04 -7.241132e-05 -1.905053e-04
N -1.616517e+00 8.918543e-01 -7.798548e-01 2.549079e-04 7.757452e-05 -1.510323e-04
N -3.225476e+00 3.653521e+00 4.424391e+00 8.092534e-05 -1.636724e-05 -1.714609e-04
N -3.228677e+00 3.650836e+00 -5.948515e+00 1.202459e-04 -1.931507e-04 -2.060256e-04
N -3.262919e+00 3.679360e+00 -7.547160e-01 1.159658e-04 -8.872547e-05 -1.587735e-04
N -6.239577e-02 -1.861347e+00 4.431941e+00 1.194900e-04 -1.060032e-04 -1.693176e-04
N -2.653295e-02 -1.880239e+00 -5.959130e+00 4.840567e-05 -1.678498e-04 -2.495420e-04
N -1.930357e-02 -1.930953e+00 -8.120841e-01 2.089950e-04 1.022727e-04 -1.446858e-04
N 2.220604e-02 1.827368e+00 1.846579e+00 6.101912e-05 2.414010e-04 -5.986310e-04
N 2.890964e-02 1.830609e+00 7.042067e+00 -1.221311e-04 8.423353e-05 -2.550033e-04
N 2.548107e-02 1.779352e+00 -3.423784e+00 -7.023204e-05 1.051197e-04 -2.310640e-04
N 3.222214e+00 -3.755967e+00 1.842090e+00 1.101025e-04 2.096987e-04 -5.108242e-04
N 3.232951e+00 -3.758564e+00 7.033906e+00 -3.255322e-05 2.498184e-05 -2.160859e-04
N 3.178552e+00 -3.730612e+00 -3.367209e+00 3.510953e-05 4.252338e-05 -2.010328e-04
N 1.576816e+00 -9.126298e-01 1.828149e+00 -4.221443e-05 1.468773e-04 -6.126983e-04
N 1.581036e+00 -9.000213e-01 7.023181e+00 -1.302631e-04 -8.102627e-05 -3.472561e-04
N 1.532066e+00 -9.374961e-01 -3.326175e+00 -1.674991e-05 7.873759e-05 -1.393243e-04
N 3.132798e+00 1.774886e+00 1.752613e+00 1.352735e-04 9.967970e-05 -7.371728e-04
N 3.174974e+00 1.807049e+00 7.060781e+00 -1.295257e-04 -2.334628e-04 -4.769319e-04
N 3.178718e+00 1.755578e+00 -3.406908e+00 -2.059201e-05 -5.051147e-04 7.646103e-04
N 6.333060e+00 -3.747062e+00 1.830615e+00 2.667569e-04 1.130385e-04 -6.316146e-04
N 6.381202e+00 -3.783425e+00 7.042639e+00 2.924788e-06 -3.601309e-05 -3.512113e-04
N 6.382270e+00 -3.685160e+00 -3.416976e+00 1.013087e-04 -9.739436e-05 -2.342532e-04
N 4.783992e+00 -9.634863e-01 1.738937e+00 5.123902e-05 1.121454e-04 -8.202407e-04
N 4.782385e+00 -9.080349e-01 6.975641e+00 -7.411285e-05 -9.710474e-05 -2.233308e-04
N 4.820678e+00 -9.338526e-01 -3.337648e+00 -5.667325e-05 7.159956e-05 -3.167628e-04
N -3.228265e+00 1.799604e+00 1.818051e+00 -7.654239e-05 9.815455e-05 -5.706464e-04
N -3.264475e+00 1.775611e+00 7.032399e+00 -1.997775e-04 2.084456e-05 -8.995987e-05
N -3.273020e+00 1.778255e+00 -3.342032e+00 -2.990794e-04 -7.631498e-05 -1.495609e-04
N -2.490761e-02 -3.726365e+00 1.756539e+00 -4.896084e-05 6.379457e-05 -6.290577e-04
N -7.265043e-02 -3.757911e+00 7.038570e+00 2.064900e-06 -2.408803e-05 -2.576776e-04
N -2.953002e-02 -3.682694e+00 -3.353167e+00 -9.839315e-05 -1.529259e-04 -1.248900e-04
N -1.627977e+00 -9.663459e-01 1.804805e+00 -4.075118e-05 1.239443e-04 -5.961893e-04
N -1.623167e+00 -9.572539e-01 6.954785e+00 -1.860135e-04 -7.780259e-05 -2.738527e-04
N -1.621951e+00 -1.014932e+00 -3.322173e+00 -1.756185e-04 -1.053748e-05 -9.576217e-05
