108
Energy=-665541.699818 Lattice="9.423158 0.000000 0.000000 -4.712368 8.160297 0.000000 -0.002379 -0.000738 15.126663" Stress="0.000000 -0.000000 -0.000000 -0.000000 0.000000 -0.000000 -0.000000 -0.000000 0.000002" Properties=species:S:1:pos:R:3:forces:R:3
Al 1.548380 0.870438 2.376164 -0.000005 -0.000001 -0.000080
Al 1.542239 0.864916 7.398424 0.000028 0.000008 0.000019
Al 1.544941 0.870070 -2.660167 -0.000078 -0.000043 0.000094
Al -0.024562 3.579893 2.400330 -0.000024 0.000019 -0.000093
Al -0.023575 3.587184 7.411650 0.000000 0.000004 -0.000019
Al -0.020903 3.583234 -2.698178 -0.000022 0.000008 0.000077
Al 3.121839 -1.846841 2.390855 -0.000084 -0.000057 -0.000097
Al 3.118235 -1.852549 7.408263 -0.000011 0.000015 -0.000018
Al 3.127514 -1.845933 -2.685096 -0.000065 0.000001 0.000048
Al -4.739757 0.864709 2.361605 -0.000003 0.000008 -0.000074
Al -4.737711 0.861454 7.416544 0.000010 0.000004 0.000056
Al -4.726600 0.863034 -2.662911 -0.000004 0.000008 0.000030
Al -6.298749 3.581846 2.390487 0.000011 -0.000030 -0.000063
Al -6.307302 3.591623 7.397528 -0.000017 0.000004 -0.000015
Al -6.304485 3.587295 -2.670000 -0.000069 -0.000020 0.000169
Al -3.164547 -1.843946 2.390957 -0.000024 -0.000020 -0.000051
Al -3.165075 -1.853040 7.408072 -0.000017 0.000005 0.000011
Al -3.171111 -1.847938 -2.684830 -0.000054 -0.000002 0.000129
Al -1.589274 0.866287 2.366313 0.000044 -0.000009 -0.000062
Al -1.588300 0.865222 7.422953 0.000043 -0.000007 0.000009
Al -1.596344 0.875283 -2.675035 -0.000010 0.000039 0.000047
Al -3.168438 3.588721 2.380556 -0.000136 -0.000025 0.000013
Al -3.164089 3.594328 7.421894 0.000010 0.000007 0.000003
Al -3.164951 3.578525 -2.685701 0.000012 -0.000018 0.000034
Al -0.023511 -1.852806 2.373346 -0.000004 0.000016 -0.000108
Al -0.022652 -1.851607 7.411130 0.000011 -0.000013 -0.000019
Ga -0.021351 -1.852407 -2.668952 0.000114 -0.000028 -0.000050
Al -0.016672 1.772453 4.898126 -0.000009 0.000021 0.000010
Al -0.028490 1.771274 -5.198389 -0.000029 0.000025 0.000045
Al -0.023000 1.761291 -0.147348 -0.000062 -0.000004 0.000118
Al 3.121640 -3.659181 4.899541 -0.000037 0.000016 -0.000012
Al 3.119304 -3.663336 -5.198722 -0.000009 0.000030 -0.000023
Ga 3.111177 -3.664665 -0.147739 -0.000087 -0.000046 0.000216
Al 1.546488 -0.946525 4.890545 -0.000055 0.000024 -0.000034
Al 1.548476 -0.949097 -5.207926 -0.000049 0.000036 0.000039
Al 1.551321 -0.936676 -0.131919 -0.000194 0.000066 0.000193
Al 3.110368 1.771817 4.896332 -0.000037 -0.000014 0.000002
Ga 3.115750 1.774119 -5.188862 -0.000014 0.000005 0.000086
Al 3.121293 1.768134 -0.153249 -0.000018 -0.000031 0.000097
Al 6.258648 -3.665335 4.892464 -0.000007 -0.000009 -0.000021
Al 6.258800 -3.657317 -5.200757 -0.000022 0.000016 -0.000002
Ga 6.266840 -3.664015 -0.136634 0.000042 -0.000003 0.000254
Al 4.684374 -0.950933 4.898474 -0.000049 0.000013 -0.000000
Al 4.694106 -0.953602 -5.197840 -0.000050 -0.000005 0.000032
Al 4.690217 -0.934842 -0.147423 -0.000177 0.000018 0.000051
Ga -3.164822 1.772676 4.898509 -0.000014 -0.000037 0.000071
Al -3.154645 1.773625 -5.197527 0.000016 -0.000017 -0.000015
Al -3.166217 1.767787 -0.148144 -0.000031 0.000047 0.000141
Al -0.025477 -3.656939 4.897718 -0.000037 0.000023 -0.000013
Al -0.018956 -3.661196 -5.208677 -0.000007 -0.000000 0.000028
Al -0.022561 -3.672777 -0.132969 0.000135 -0.000013 0.000046
Al -1.587657 -0.951322 4.896649 -0.000056 -0.000015 0.000013
Al -1.595114 -0.943337 -5.206469 -0.000058 -0.000004 0.000099
Al -1.595541 -0.936456 -0.139552 -0.000093 0.000038 0.000203
N 1.546635 0.868196 4.295973 0.000027 -0.000021 -0.000019
N 1.506699 0.845894 -5.821151 -0.000017 -0.000055 -0.000062
N 1.544432 0.864505 -0.741215 -0.000014 0.000018 0.000104
N -0.025320 3.583511 4.312082 -0.000037 0.000002 -0.000049
N -0.021492 3.587476 -5.791595 -0.000016 -0.000027 -0.000004
N -0.021425 3.540667 -0.790679 0.000087 -0.000151 -0.000046
N 3.119174 -1.850388 4.304531 0.000035 -0.000001 -0.000017
N 3.121335 -1.852548 -5.799915 0.000000 0.000006 -0.000011
N 3.117322 -1.802560 -0.769571 0.000381 0.000064 0.000030
N -4.777882 0.842604 4.273920 0.000033 -0.000018 -0.000073
N -4.695607 0.842707 -5.804421 0.000092 -0.000043 -0.000038
N -4.730710 0.865774 -0.742842 0.000054 -0.000027 0.000102
N -6.301969 3.584827 4.307522 0.000030 0.000013 -0.000018
N -6.306786 3.633955 -5.820228 0.000017 0.000040 -0.000022
N -6.264444 3.568204 -0.760154 0.000112 0.000049 -0.000094
N -3.164077 -1.847289 4.306173 0.000027 0.000037 -0.000053
N -3.163588 -1.852692 -5.801486 0.000029 0.000038 0.000009
N -3.163608 -1.805243 -0.769161 0.000083 0.000073 -0.000029
N -1.551873 0.843496 4.276226 0.000171 -0.000064 -0.000065
N -1.590090 0.868211 -5.793019 0.000101 -0.000049 -0.000017
N -1.593351 0.867986 -0.749634 0.000075 0.000007 0.000096
N -3.166519 3.634976 4.286503 0.000053 0.000026 -0.000038
N -3.161215 3.589853 -5.790763 0.000015 -0.000010 0.000071
N -3.207192 3.563110 -0.770539 -0.000005 -0.000055 0.000231
N -0.023798 -1.852213 4.293131 0.000058 -0.000001 -0.000021
N -0.022011 -1.850813 -5.796863 0.000061 0.000018 0.000035
N -0.020946 -1.853118 -0.686968 -0.000024 0.000037 0.000128
N -0.021038 1.777336 1.772349 -0.000016 -0.000033 -0.000138
N -0.026737 1.775038 6.811970 -0.000057 -0.000034 -0.000013
N -0.020928 1.768106 -3.280516 0.000002 -0.000027 -0.000010
N 3.121209 -3.665334 1.830447 0.000219 0.000143 -0.000137
N 3.118117 -3.666433 6.817788 -0.000040 0.000018 0.000022
N 3.117115 -3.663142 -3.276666 -0.000019 0.000030 -0.000011
N 1.552863 -0.944776 1.786891 -0.000049 0.000049 -0.000106
N 1.547100 -0.948818 6.807861 -0.000088 0.000032 0.000008
N 1.588266 -0.919078 -3.296397 -0.000051 0.000013 -0.000101
N 3.115449 1.776801 1.769169 0.000020 -0.000062 -0.000061
N 3.118292 1.772327 6.814384 0.000018 -0.000041 -0.000028
N 3.118150 1.771624 -3.212799 0.000102 -0.000010 0.000036
N 6.259565 -3.665785 1.843557 -0.000126 0.000032 -0.000293
N 6.255808 -3.664823 6.808767 0.000002 0.000006 -0.000001
N 6.264419 -3.663651 -3.278437 0.000004 -0.000012 -0.000002
N 4.689754 -0.950530 1.771878 -0.000047 -0.000008 -0.000076
N 4.688124 -0.946384 6.812115 -0.000028 -0.000004 -0.000026
N 4.690301 -0.943133 -3.281707 -0.000048 0.000017 -0.000014
N -3.163362 1.775420 1.776524 0.000021 -0.000006 -0.000201
N -3.163731 1.774844 6.870256 0.000041 -0.000046 0.000022
N -3.163715 1.771218 -3.276889 0.000013 -0.000013 -0.000010
N -0.024225 -3.669189 1.782291 0.000022 -0.000042 -0.000135
N -0.020122 -3.663804 6.813187 0.000042 0.000010 0.000035
N -0.023488 -3.710977 -3.300419 0.000020 -0.000009 -0.000100
N -1.597318 -0.946734 1.777394 -0.000009 0.000016 -0.000222
N -1.592909 -0.944704 6.815880 -0.000008 0.000038 -0.000006
N -1.631727 -0.920349 -3.294200 -0.000019 -0.000013 -0.000174
