108
Energy=-1535275.845489 Lattice="9.524976 0.000000 0.000000 -4.763245 8.248773 0.000000 0.000102 -0.001398 15.388501" Stress="-0.000002 -0.000000 0.000000 -0.000000 -0.000003 -0.000000 0.000000 -0.000000 -0.000004" Properties=species:S:1:pos:R:3:forces:R:3
Al 1.558867 0.872811 2.430209 -0.000013 0.000013 0.000062
Al 1.563597 0.870054 7.551133 0.000036 -0.000012 -0.000052
Al 1.566202 0.874385 -2.729314 0.000032 0.000026 0.000046
Al -0.027233 3.626314 2.413266 0.000269 -0.000084 0.000165
Al -0.026069 3.627582 7.555848 -0.000066 0.000057 0.000022
Ga -0.013500 3.623574 -2.719902 0.000027 0.000013 -0.000019
Al 3.145748 -1.879301 2.448663 -0.000092 0.000068 0.000018
Ga 3.156665 -1.869007 7.529340 -0.000058 -0.000054 0.000025
Al 3.150117 -1.863279 -2.731888 -0.000017 0.000007 0.000035
Ga -4.789807 0.875215 2.428378 0.000035 0.000045 0.000009
Al -4.772400 0.872051 7.542903 0.000003 -0.000033 0.000025
Ga -4.792041 0.876205 -2.719280 0.000075 0.000009 -0.000038
Al -6.373827 3.629080 2.404818 -0.000040 -0.000036 0.000020
Ga -6.376883 3.626531 7.565827 -0.000022 0.000021 0.000045
Al -6.367225 3.633975 -2.720975 -0.000076 0.000079 0.000048
Ga -3.199474 -1.879175 2.397393 0.000023 -0.000002 0.000055
Al -3.218762 -1.874118 7.553030 -0.000012 -0.000040 0.000020
Ga -3.211120 -1.884013 -2.689923 -0.000025 -0.000008 0.000042
Al -1.601514 0.880966 2.429503 0.000047 -0.000064 0.000041
Ga -1.620801 0.898013 7.553335 0.000082 -0.000044 -0.000013
Ga -1.604013 0.892300 -2.725211 0.000104 -0.000045 -0.000021
Al -3.191749 3.636025 2.426616 -0.000275 -0.000230 0.000222
Al -3.193162 3.613200 7.538241 0.000096 0.000031 -0.000044
Al -3.213257 3.634000 -2.714981 0.000065 -0.000040 -0.000134
Al -0.014239 -1.874486 2.399333 0.000017 0.000233 0.000049
Ga -0.005435 -1.872542 7.562294 0.000074 -0.000051 0.000050
Ga -0.003009 -1.889124 -2.704654 0.000089 -0.000091 0.000024
Ga -0.025521 1.798804 4.974152 0.000000 -0.000003 0.000024
Al -0.012668 1.794436 -5.295327 -0.000202 0.000268 0.000076
Ga -0.017383 1.788730 -0.116597 -0.000037 0.000031 0.000066
Al 3.148709 -3.706497 4.972058 0.000118 0.000075 0.000509
Ga 3.143449 -3.710173 -5.282052 -0.000036 -0.000003 -0.000024
Ga 3.149667 -3.688647 -0.140794 0.000020 0.000024 -0.000054
Al 1.574194 -0.961335 4.955285 0.000034 0.000359 0.000245
Al 1.569953 -0.948771 -5.264790 -0.000006 -0.000027 0.000029
Ga 1.575892 -0.961193 -0.132599 -0.000060 0.000080 0.000059
Ga 3.155374 1.777205 4.995773 -0.000031 -0.000019 0.000044
Ga 3.148506 1.787605 -5.282152 0.000095 0.000027 -0.000016
Ga 3.145950 1.809109 -0.151929 0.000026 0.000012 0.000022
Ga 6.308486 -3.700802 4.983080 0.000108 0.000024 0.000098
Al 6.322994 -3.700388 -5.285991 0.000081 0.000139 0.000083
Al 6.344071 -3.699502 -0.135671 0.000043 -0.000023 0.000025
Al 4.730922 -0.957157 4.993792 0.000101 0.000049 0.000110
Al 4.742493 -0.956187 -5.294888 -0.000046 -0.000081 -0.000023
Al 4.737853 -0.971210 -0.139770 -0.000012 0.000037 0.000024
Al -3.198081 1.799958 4.978109 0.000042 0.000054 0.000064
Al -3.205779 1.804910 -5.286016 -0.000045 -0.000087 -0.000340
Ga -3.197238 1.797442 -0.132423 -0.000004 -0.000011 0.000050
Ga -0.002750 -3.706074 4.962310 -0.000002 -0.000015 0.000045
Al -0.013603 -3.715296 -5.268514 0.000147 -0.000057 -0.000077
Al -0.034587 -3.705623 -0.133939 0.000032 -0.000289 -0.000194
Ga -1.612329 -0.951665 4.981564 -0.000066 -0.000026 0.000056
Ga -1.619076 -0.962324 -5.286629 -0.000063 0.000034 -0.000018
Al -1.612789 -0.965265 -0.129096 -0.000054 0.000019 0.000029
N 1.566572 0.832843 4.333424 0.000006 -0.000185 -0.000008
N 1.523135 0.844191 -5.919996 0.000078 -0.000055 -0.000033
N 1.558735 0.873733 -0.820396 0.000059 -0.000042 -0.000045
N -0.064947 3.653351 4.323104 -0.000105 -0.000019 -0.000041
N 0.013874 3.607001 -5.910370 -0.000034 -0.000199 0.000027
N 0.020368 3.648722 -0.741317 0.000008 -0.000006 -0.000026
N 3.157751 -1.875641 4.380348 -0.000006 0.000048 0.000017
N 3.148166 -1.824960 -5.877646 -0.000005 0.000024 -0.000044
N 3.193706 -1.845448 -0.816903 0.000020 -0.000018 -0.000020
N -4.744110 0.849229 4.404171 0.000008 0.000053 0.000048
N -4.740744 0.852394 -5.917610 0.000171 0.000115 0.000104
N -4.783435 0.827771 -0.742952 0.000022 -0.000028 0.000010
N -6.377072 3.625297 4.317310 -0.000034 0.000039 -0.000083
N -6.371619 3.676631 -5.853430 -0.000012 0.000010 -0.000007
N -6.370807 3.682675 -0.790144 0.000102 0.000070 -0.000030
N -3.242039 -1.847337 4.366849 -0.000068 0.000008 -0.000042
N -3.245682 -1.897420 -5.920420 -0.000012 -0.000056 0.000056
N -3.199088 -1.873492 -0.696187 0.000015 -0.000010 0.000005
N -1.652105 0.899298 4.341895 0.000040 -0.000011 -0.000036
N -1.614593 0.930418 -5.858957 -0.000111 0.000012 0.000156
N -1.607717 0.833314 -0.749085 0.000077 -0.000084 -0.000018
N -3.154389 3.603004 4.342310 -0.000035 -0.000144 -0.000339
N -3.240189 3.602577 -5.930360 -0.000090 0.000092 0.000101
N -3.243625 3.653487 -0.795912 -0.000157 0.000119 0.000154
N 0.013956 -1.849345 4.316725 0.000007 -0.000058 -0.000197
N 0.027607 -1.898735 -5.847411 0.000064 -0.000068 -0.000011
N -0.057210 -1.897795 -0.717373 0.000038 -0.000080 0.000008
N -0.020027 1.791116 1.865320 -0.000036 0.000045 -0.000065
N 0.021321 1.819471 6.956922 -0.000015 0.000081 -0.000016
N 0.022798 1.772844 -3.381804 0.000009 0.000017 -0.000090
N 3.149262 -3.697592 1.849425 -0.000126 -0.000053 -0.000061
N 3.153000 -3.757052 6.908806 -0.000011 -0.000064 -0.000205
N 3.108902 -3.685608 -3.297715 -0.000044 0.000012 0.000040
N 1.576284 -0.956892 1.853155 -0.000088 -0.000154 0.000018
N 1.563441 -0.908964 6.871618 -0.000068 0.000002 -0.000199
N 1.605951 -0.930866 -3.346059 -0.000039 0.000053 -0.000040
N 3.107327 1.815591 1.829687 -0.000040 -0.000002 -0.000075
N 3.151935 1.745436 6.980389 0.000006 0.000005 -0.000014
N 3.111441 1.819543 -3.298866 -0.000029 -0.000008 0.000010
N 6.329362 -3.758481 1.779456 -0.000007 -0.000017 -0.000069
N 6.284021 -3.684258 6.961333 0.000028 0.000004 -0.000065
N 6.368089 -3.722404 -3.370873 0.000071 -0.000051 -0.000065
N 4.684584 -0.983951 1.768653 0.000040 0.000014 -0.000018
N 4.780161 -0.932571 6.909734 0.000011 0.000031 -0.000075
N 4.706734 -0.980550 -3.379919 -0.000025 0.000006 -0.000024
N -3.156670 1.820851 1.840415 0.000107 0.000194 -0.000001
N -3.239767 1.819613 6.899802 -0.000039 -0.000037 -0.000177
N -3.202179 1.846683 -3.369141 -0.000019 0.000072 0.000085
N -0.019367 -3.712175 1.799812 -0.000012 0.000024 -0.000073
N 0.018399 -3.728589 6.932870 -0.000019 -0.000015 -0.000053
N -0.019123 -3.754697 -3.351746 -0.000083 -0.000041 0.000054
N -1.567446 -0.928269 1.790168 0.000043 -0.000060 -0.000075
N -1.647985 -0.980292 6.962512 -0.000067 0.000019 -0.000034
N -1.612788 -0.963711 -3.322337 -0.000158 0.000040 -0.000026
