108
Energy=-1.947255e+06 Lattice="9.579454e+00 0.000000e+00 0.000000e+00 -4.791282e+00 8.294937e+00 0.000000e+00 -1.608329e-03 -3.217082e-03 1.550832e+01" Stress="1.028162e-04 -7.092342e-05 3.528147e-05 -7.610488e-05 9.195506e-05 -5.868705e-05 2.294575e-05 -6.302416e-05 1.907772e-04" Properties=species:S:1:pos:R:3:forces:R:3 Config_type=AlGaN_super3_33_1_15.xyz
Al 1.570503e+00 8.763406e-01 2.454147e+00 3.669429e-05 1.268163e-04 9.503620e-05
Al 1.582255e+00 8.809303e-01 7.604166e+00 1.074424e-04 -4.046226e-05 1.589072e-04
Al 1.577652e+00 8.778473e-01 -2.745016e+00 1.159708e-04 -3.561743e-05 7.708662e-05
Al -3.484675e-02 3.654889e+00 2.429234e+00 -1.525519e-04 2.084619e-04 9.659011e-05
Al -3.108529e-02 3.643351e+00 7.618890e+00 -4.115009e-05 -1.210923e-05 8.740868e-05
Ga -2.849236e-02 3.649558e+00 -2.735031e+00 6.706799e-05 -2.621385e-05 1.433583e-04
Al 3.172403e+00 -1.890736e+00 2.453526e+00 2.901550e-05 5.914806e-05 -1.605492e-04
Ga 3.167700e+00 -1.882784e+00 7.585589e+00 3.631437e-05 -3.874271e-05 2.276809e-04
Ga 3.158341e+00 -1.893304e+00 -2.731491e+00 1.046860e-04 -4.193535e-05 2.084399e-04
Ga -4.806482e+00 8.774795e-01 2.453542e+00 9.950043e-05 -3.884988e-05 2.748336e-04
Al -4.818759e+00 8.876490e-01 7.584046e+00 1.116008e-04 1.953015e-05 7.368743e-05
Ga -4.826689e+00 8.879709e-01 -2.725292e+00 1.326417e-04 -5.422627e-05 2.305472e-04
Ga -6.412929e+00 3.654685e+00 2.435499e+00 -2.609739e-04 -1.308475e-05 1.795281e-04
Ga -6.415631e+00 3.626157e+00 7.623655e+00 3.887961e-05 -2.536423e-06 6.422089e-05
Ga -6.413481e+00 3.640934e+00 -2.746673e+00 1.335091e-05 -6.082339e-05 4.141300e-05
Al -3.237867e+00 -1.888775e+00 2.456901e+00 5.187252e-05 -1.378628e-05 1.182447e-04
Ga -3.226276e+00 -1.882650e+00 7.616427e+00 5.890512e-05 -2.184850e-05 1.980996e-04
Ga -3.200428e+00 -1.887574e+00 -2.753593e+00 2.813181e-05 -6.496364e-05 1.871511e-04
Ga -1.625447e+00 9.022226e-01 2.447260e+00 1.893076e-04 -1.185113e-05 3.022600e-04
Ga -1.627004e+00 8.973042e-01 7.602005e+00 1.763145e-04 -1.567522e-04 4.730068e-05
Ga -1.608632e+00 8.720210e-01 -2.731622e+00 2.461235e-04 -1.588981e-04 -1.070085e-05
Al -3.211513e+00 3.648232e+00 2.414471e+00 1.127638e-03 3.767728e-04 1.277757e-03
Al -3.207316e+00 3.635247e+00 7.604543e+00 6.042271e-05 -7.667603e-05 3.516079e-05
Ga -3.208779e+00 3.660928e+00 -2.710592e+00 8.783205e-05 -1.061001e-04 1.291633e-04
Ga -5.791104e-03 -1.887170e+00 2.441316e+00 1.081720e-04 9.798797e-05 2.104789e-04
Ga -9.077487e-03 -1.874906e+00 7.602252e+00 1.315810e-04 -7.838115e-05 1.518214e-04
Al -2.202275e-02 -1.875127e+00 -2.726862e+00 7.755766e-05 -1.283982e-04 1.087094e-04
Ga -1.798192e-02 1.803857e+00 5.030739e+00 2.044412e-05 1.046227e-04 1.744072e-04
Ga -7.993341e-03 1.813798e+00 -5.331975e+00 -9.746916e-05 7.859477e-05 7.776676e-05
Ga -2.154975e-02 1.806657e+00 -1.377965e-01 -2.569156e-04 2.258075e-04 3.005290e-04
Ga 3.162717e+00 -3.730712e+00 5.003723e+00 -1.471102e-04 1.114434e-04 -1.276663e-04
Al 3.178651e+00 -3.732396e+00 -5.346975e+00 1.911394e-06 2.575100e-05 1.198437e-04
Al 3.157597e+00 -3.733621e+00 -1.056098e-01 4.591645e-06 2.647105e-04 4.684657e-04
Al 1.589042e+00 -9.536653e-01 5.012160e+00 2.691599e-05 -3.003368e-05 6.594144e-05
Ga 1.572802e+00 -9.532326e-01 -5.304911e+00 -1.416216e-04 1.179452e-04 1.717106e-04
Ga 1.578047e+00 -9.710155e-01 -1.467970e-01 -2.897135e-04 2.989711e-04 1.153163e-04
Ga 3.171785e+00 1.780432e+00 5.029748e+00 -2.652806e-05 -6.498760e-05 1.490803e-04
Al 3.164452e+00 1.798274e+00 -5.336735e+00 2.778966e-05 7.472767e-06 1.215020e-04
Ga 3.173404e+00 1.803995e+00 -1.323951e-01 -1.989859e-04 1.640061e-04 3.336106e-04
Ga 6.345756e+00 -3.718618e+00 5.019662e+00 -3.420000e-05 -7.946852e-05 1.835717e-04
Al 6.356774e+00 -3.730397e+00 -5.331331e+00 5.192345e-05 -4.613780e-05 7.029684e-05
Ga 6.361080e+00 -3.723997e+00 -1.266898e-01 -1.057706e-04 8.696952e-05 2.713854e-04
Al 4.762610e+00 -9.561843e-01 5.013794e+00 -1.158168e-04 -1.020916e-04 2.022934e-04
Ga 4.770071e+00 -9.576851e-01 -5.334119e+00 -7.929281e-05 4.897066e-05 9.171413e-05
Ga 4.768603e+00 -9.695329e-01 -1.244759e-01 -3.326297e-04 1.691909e-04 2.962889e-04
Al -3.228453e+00 1.810530e+00 5.034529e+00 1.147255e-05 1.860251e-04 3.871102e-05
Ga -3.224646e+00 1.810558e+00 -5.338026e+00 2.868025e-05 -2.932692e-05 1.926012e-04
Al -3.215604e+00 1.824215e+00 -1.371565e-01 -8.070501e-05 -2.975247e-05 2.000074e-04
Ga -1.573603e-03 -3.734863e+00 5.030881e+00 1.685773e-04 -1.232237e-04 1.009021e-04
Ga -1.947567e-02 -3.724142e+00 -5.319513e+00 6.273132e-05 -3.572444e-05 1.071668e-04
Al -3.542582e-03 -3.728444e+00 -1.511853e-01 -7.991317e-05 3.632147e-05 8.026179e-05
Ga -1.631885e+00 -9.582901e-01 5.007360e+00 -8.614559e-05 -5.917929e-05 1.189738e-04
Al -1.615427e+00 -9.694773e-01 -5.309428e+00 -3.828403e-05 3.144792e-05 7.738805e-05
Ga -1.616044e+00 -9.682964e-01 -1.330567e-01 -3.324618e-04 1.044724e-04 2.027565e-04
N 1.569403e+00 8.360807e-01 4.365835e+00 5.129488e-06 -1.743593e-05 -1.676006e-04
N 1.615674e+00 8.989301e-01 -5.988207e+00 1.186374e-04 -6.446490e-05 -1.078204e-04
N 1.577646e+00 8.827090e-01 -8.303885e-01 2.217005e-04 -9.088154e-05 -6.849996e-05
N -2.892836e-02 3.643340e+00 4.336905e+00 4.517013e-05 -2.799007e-05 -1.611457e-04
N -2.373647e-02 3.695972e+00 -5.967967e+00 1.730182e-05 6.869267e-06 -1.061518e-04
N -7.134725e-02 3.676334e+00 -7.481591e-01 -2.474392e-05 -3.161558e-05 -2.155857e-04
N 3.170348e+00 -1.839340e+00 4.386531e+00 4.129084e-05 1.042853e-05 -7.731201e-05
N 3.166120e+00 -1.924591e+00 -5.940924e+00 2.484980e-05 -3.153713e-05 -1.375315e-04
N 3.174178e+00 -1.942659e+00 -7.487008e-01 2.925435e-05 -1.209278e-04 -8.992481e-05
N -4.767186e+00 8.607446e-01 4.436058e+00 7.404618e-05 -2.582956e-05 -2.031332e-04
N -4.853890e+00 9.074085e-01 -5.999860e+00 4.876491e-05 1.465899e-05 -1.465283e-04
N -4.772123e+00 9.043069e-01 -7.432470e-01 1.576111e-04 -2.339983e-05 -1.435553e-04
N -6.408940e+00 3.646854e+00 4.409370e+00 -2.876051e-05 5.691405e-05 -1.923662e-04
N -6.449106e+00 3.621709e+00 -5.900270e+00 -6.326716e-05 2.695340e-05 -6.600962e-05
N -6.370776e+00 3.669806e+00 -7.547543e-01 4.571325e-05 -1.707795e-06 -1.116875e-04
N -3.264165e+00 -1.861231e+00 4.369414e+00 -6.234349e-06 1.430393e-04 -2.141553e-04
N -3.171670e+00 -1.904568e+00 -5.907934e+00 -1.666891e-05 7.245443e-06 -7.712252e-05
N -3.213288e+00 -1.885016e+00 -7.837638e-01 7.812379e-05 2.664906e-05 -9.798401e-05
N -1.665944e+00 9.172231e-01 4.427724e+00 5.652652e-05 -7.628459e-05 -2.237947e-04
N -1.619960e+00 8.352484e-01 -5.925705e+00 1.266190e-04 -4.083500e-05 -9.349731e-05
N -1.660303e+00 9.033785e-01 -7.458510e-01 1.536219e-04 -6.129901e-05 -1.278142e-04
N -3.219401e+00 3.594301e+00 4.341718e+00 -1.851595e-04 -1.610293e-04 -6.758579e-04
N -3.174898e+00 3.671674e+00 -5.989280e+00 1.713542e-06 -5.839794e-05 -1.416693e-04
N -3.206794e+00 3.652152e+00 -7.161233e-01 -8.484599e-05 -1.110394e-04 -2.348108e-05
N 2.277785e-02 -1.863942e+00 4.418914e+00 -3.445322e-05 6.246756e-05 -1.305122e-04
N -5.666400e-02 -1.854680e+00 -5.932780e+00 1.744672e-05 -9.829741e-05 -1.435147e-04
N -2.291050e-02 -1.927636e+00 -8.003814e-01 1.466750e-04 -1.030415e-04 5.484312e-05
N 2.252810e-02 1.825260e+00 1.850147e+00 1.694946e-04 -8.293308e-05 -3.910500e-04
N 2.299648e-02 1.829649e+00 7.022203e+00 -8.728852e-05 1.130120e-04 -8.371460e-05
N 2.156240e-02 1.782858e+00 -3.348098e+00 -6.927818e-05 1.196540e-04 -8.296727e-05
N 3.166229e+00 -3.721644e+00 1.828379e+00 1.241388e-04 -1.338117e-04 -1.437516e-04
N 3.171264e+00 -3.780156e+00 6.993763e+00 -3.769071e-05 6.713690e-05 -1.482058e-04
N 3.168876e+00 -3.731761e+00 -3.431176e+00 -1.139519e-04 9.697001e-05 -1.545870e-04
N 1.619900e+00 -9.348562e-01 1.840357e+00 -8.154482e-06 -1.816974e-04 -9.379621e-05
N 1.577516e+00 -9.105617e-01 6.933126e+00 -2.207016e-04 1.370578e-04 -2.156400e-04
N 1.533638e+00 -9.384391e-01 -3.317553e+00 -1.865474e-04 1.031836e-04 -1.136939e-04
N 3.127045e+00 1.777997e+00 1.843588e+00 1.554885e-04 -2.557217e-04 -3.216285e-04
N 3.165349e+00 1.753777e+00 7.007293e+00 -3.574992e-05 -1.369101e-05 -1.360601e-04
N 3.129953e+00 1.773916e+00 -3.407654e+00 -5.850335e-05 2.771670e-07 -1.187048e-04
N 6.319538e+00 -3.698339e+00 1.854123e+00 1.004268e-04 -1.824944e-04 -2.969958e-04
N 6.318377e+00 -3.751613e+00 6.999868e+00 1.658281e-05 1.898455e-05 -1.622048e-04
N 6.358801e+00 -3.732945e+00 -3.418296e+00 1.106098e-05 3.369876e-05 -7.324619e-05
N 4.762051e+00 -1.008105e+00 1.858777e+00 2.574295e-05 -2.790693e-04 -2.427147e-04
N 4.768979e+00 -9.175973e-01 6.940765e+00 -8.372463e-05 3.206267e-05 -1.796275e-04
N 4.763805e+00 -9.583464e-01 -3.361205e+00 -1.271138e-04 -4.395682e-06 -1.931146e-04
N -3.219614e+00 1.851595e+00 1.775387e+00 -2.520300e-04 -3.150608e-04 -5.485009e-04
N -3.261536e+00 1.832926e+00 6.963590e+00 -1.146109e-04 4.793071e-05 -2.130599e-05
N -3.218340e+00 1.809620e+00 -3.361633e+00 -1.471658e-04 9.861958e-05 -1.001339e-04
N 1.966595e-02 -3.745689e+00 1.771717e+00 -4.051144e-04 3.010804e-05 -4.443231e-04
N 2.010186e-02 -3.754970e+00 7.010636e+00 -6.631933e-05 5.900932e-05 -2.316828e-05
N -1.526450e-02 -3.679515e+00 -3.337442e+00 -2.596341e-05 1.027191e-04 -8.907572e-05
N -1.662166e+00 -9.860088e-01 1.850535e+00 3.579722e-05 -6.788493e-05 -2.812127e-04
N -1.623375e+00 -9.627429e-01 6.972008e+00 -1.603525e-04 5.394954e-05 -1.314830e-04
N -1.570522e+00 -9.843196e-01 -3.390533e+00 -1.483561e-04 2.391757e-05 -7.814158e-05
