108
Energy=-940194.105134 Lattice="9.471762 0.000000 0.000000 -4.742118 8.197426 0.000000 -0.000717 -0.002145 15.284695" Stress="0.000031 -0.000000 0.000004 -0.000000 0.000039 -0.000002 0.000004 -0.000002 0.000067" Properties=species:S:1:pos:R:3:forces:R:3
Al 1.555488 0.861928 2.407562 0.001348 0.001737 0.000215
Al 1.549301 0.865905 7.506890 0.003988 -0.001315 0.000963
Al 1.557362 0.870216 -2.747490 0.002153 0.003567 0.005057
Al -0.016891 3.602475 2.418130 -0.000028 0.002276 -0.011431
Al -0.026673 3.597913 7.518711 0.000552 0.000533 0.001892
Al -0.013031 3.589372 -2.746018 -0.000586 0.000145 0.007096
Al 3.164742 -1.880676 2.447653 -0.006454 0.001217 0.001899
Al 3.148114 -1.867329 7.496295 0.001027 0.000431 0.002585
Al 3.153187 -1.858158 -2.734041 0.000956 -0.002452 -0.003523
Al -4.765612 0.874859 2.414774 -0.006892 -0.002303 0.001586
Al -4.774152 0.870560 7.510380 -0.000050 -0.001365 0.000719
Al -4.779242 0.871781 -2.742292 0.001778 0.001909 0.001110
Al -6.345031 3.595977 2.410008 -0.006100 -0.000055 0.002544
Al -6.341377 3.601517 7.507200 0.001727 -0.001325 0.000435
Al -6.347897 3.591400 -2.740510 -0.001833 -0.001965 0.006387
Al -3.167518 -1.846319 2.416405 -0.009233 -0.009599 0.006586
Al -3.172312 -1.859486 7.509511 -0.000917 0.000235 0.001352
Ga -3.179456 -1.857958 -2.744871 0.000947 0.000366 0.005235
Al -1.613797 0.896786 2.473275 -0.000269 -0.008138 -0.031421
Al -1.616806 0.875568 7.520297 0.001866 -0.002206 0.002945
Al -1.597865 0.886694 -2.722457 -0.001326 0.002425 -0.004178
Ga -3.193838 3.617893 2.414457 0.003925 0.001256 -0.001417
Al -3.188692 3.614242 7.513628 0.000890 -0.000128 0.000509
Ga -3.190586 3.600133 -2.738191 0.002210 0.000687 0.002932
Al -0.025793 -1.846957 2.446877 -0.002024 0.004090 0.004939
Al -0.020230 -1.853567 7.496025 0.002671 -0.002060 0.001055
Ga -0.018573 -1.840211 -2.757154 0.001979 -0.000608 0.005206
Ga -0.026007 1.764873 4.965072 0.002664 0.001863 0.003785
Al -0.025297 1.774691 -5.268318 -0.001466 0.001120 0.002623
Al -0.034852 1.771907 -0.150893 0.004526 0.006528 -0.005703
Al 3.149440 -3.690332 4.992292 -0.001530 0.007578 0.001633
Al 3.151374 -3.684235 -5.271298 -0.002163 0.001521 0.002475
Al 3.157686 -3.703918 -0.179864 0.001546 0.002260 0.001089
Al 1.582809 -0.965909 4.977306 -0.003163 -0.000566 -0.001437
Al 1.573380 -0.950798 -5.278588 0.000294 0.000337 0.001672
Ga 1.584910 -0.962588 -0.133162 -0.001187 0.002961 -0.002897
Al 3.131639 1.770019 4.968694 -0.001857 0.003885 0.003604
Al 3.128062 1.783000 -5.270245 -0.000401 0.000813 0.003491
Al 3.131936 1.770216 -0.157781 -0.006347 0.006502 -0.006605
Ga 6.294883 -3.678929 4.968245 0.002743 0.001835 0.000348
Al 6.298659 -3.690194 -5.272762 -0.000015 0.001607 0.000843
Al 6.288531 -3.705031 -0.163518 -0.000124 -0.000598 0.004480
Al 4.721804 -0.949322 4.975661 -0.000364 -0.002225 0.000249
Al 4.716701 -0.945883 -5.273087 -0.000807 -0.000654 0.002291
Ga 4.706883 -0.947715 -0.124625 0.000149 0.001207 -0.005836
Ga -3.197217 1.780003 4.974709 -0.002545 0.001964 0.003921
Al -3.190434 1.781124 -5.273975 -0.000961 0.001163 0.003427
Al -3.190444 1.790996 -0.178506 -0.001158 -0.002156 0.001900
Al -0.013394 -3.677566 4.980284 -0.006574 0.004314 0.002119
Al -0.021960 -3.673333 -5.278913 -0.001963 -0.001365 -0.001085
Ga -0.031214 -3.692918 -0.108977 -0.003698 0.000854 -0.013016
Al -1.589772 -0.933903 4.983357 -0.000937 -0.011700 -0.001532
Al -1.593236 -0.940247 -5.279982 -0.002987 0.001101 -0.002243
Ga -1.591435 -0.923685 -0.102977 -0.004591 0.000057 -0.005312
N 1.585487 0.847661 4.353591 0.003129 -0.002031 -0.006404
N 1.550941 0.869608 -5.861820 0.000720 0.000566 -0.001290
N 1.551070 0.898193 -0.802783 -0.000641 0.001444 0.003658
N -0.065756 3.616131 4.322418 -0.001314 -0.000987 -0.000213
N -0.023036 3.601079 -5.857944 0.000342 -0.001791 -0.000152
N -0.022117 3.590881 -0.788835 0.001157 -0.001172 -0.000152
N 3.157213 -1.873088 4.385412 -0.000900 -0.002192 -0.002090
N 3.146110 -1.862320 -5.866438 -0.000009 -0.001042 -0.003475
N 3.145753 -1.912211 -0.834643 0.000728 -0.001020 0.006698
N -4.809045 0.852508 4.359693 0.002530 -0.000662 -0.008077
N -4.774810 0.871935 -5.860006 0.002181 0.000719 -0.001815
N -4.780281 0.927011 -0.811300 0.006154 -0.005282 0.003540
N -6.305598 3.581148 4.354843 0.003465 -0.003849 -0.005212
N -6.339652 3.603709 -5.864145 0.000645 -0.000556 -0.002457
N -6.373414 3.577402 -0.793166 -0.002018 -0.000443 -0.000877
N -3.166217 -1.817339 4.357706 -0.001260 0.003658 -0.002058
N -3.174925 -1.858368 -5.856139 0.000405 -0.000690 -0.001305
N -3.172133 -1.892255 -0.753660 0.000628 -0.002747 0.001591
N -1.614704 0.826685 4.306946 0.000088 0.004391 0.017495
N -1.616753 0.879610 -5.855754 0.003296 0.000240 -0.003571
N -1.612107 0.932603 -0.807625 0.000197 -0.003911 0.005340
N -3.179746 3.664109 4.412322 0.002116 -0.005512 -0.006245
N -3.186613 3.617268 -5.853837 0.001923 -0.002105 -0.001310
N -3.160177 3.595961 -0.747240 0.002906 -0.001648 0.003212
N -0.017484 -1.856157 4.384673 0.001226 0.001285 -0.000546
N -0.018671 -1.848035 -5.865859 0.001603 -0.001332 -0.001442
N -0.022777 -1.852636 -0.771782 0.000566 -0.001073 -0.001064
N -0.033394 1.779534 1.785566 0.000231 -0.003084 0.006223
N -0.029227 1.772703 6.950138 -0.001763 0.001119 -0.002347
N -0.019945 1.776669 -3.342957 -0.000478 -0.000529 0.000408
N 3.181797 -3.653747 1.755961 -0.000194 -0.003986 0.003551
N 3.147034 -3.692616 6.917849 -0.000595 -0.000392 -0.003841
N 3.181022 -3.671028 -3.350215 0.000826 0.002195 -0.001511
N 1.575234 -0.974213 1.865230 -0.002116 0.003008 0.001222
N 1.573777 -0.959585 6.907837 -0.002729 0.002136 -0.003432
N 1.627131 -0.926995 -3.360445 -0.005974 -0.000802 -0.001323
N 3.128714 1.780207 1.763536 0.000782 -0.000888 0.008140
N 3.127104 1.780705 6.904267 -0.001072 -0.000185 -0.003460
N 3.130094 1.786507 -3.346244 -0.000879 -0.001434 -0.000386
N 6.299098 -3.680722 1.812109 -0.001524 -0.000705 -0.003758
N 6.294810 -3.686241 6.948606 -0.001569 -0.000138 0.000287
N 6.300300 -3.722201 -3.356401 -0.000985 -0.002594 -0.001049
N 4.697587 -0.952017 1.866846 0.006027 0.002558 -0.001693
N 4.727792 -0.951205 6.908167 -0.001496 0.000754 -0.003490
N 4.687666 -0.929497 -3.354468 -0.002969 0.002220 -0.001231
N -3.207323 1.737083 1.770303 0.006428 0.002234 0.003206
N -3.190381 1.782967 6.953130 0.000662 0.000282 0.000053
N -3.186833 1.743769 -3.352095 -0.000583 -0.003513 -0.000639
N -0.083655 -3.629032 1.838125 0.004820 -0.007221 0.006937
N -0.023291 -3.680526 6.908782 -0.000361 0.000364 -0.001552
N -0.069568 -3.703599 -3.377442 0.001370 0.002373 0.001446
N -1.629167 -0.959914 1.876786 0.015018 0.014249 -0.001157
N -1.594495 -0.948890 6.913538 -0.001580 0.004013 -0.004812
N -1.602346 -0.884615 -3.393637 0.001450 -0.001849 0.006873
