108
Energy=-2.633886e+06 Lattice="9.577818e+00 0.000000e+00 0.000000e+00 -4.798550e+00 8.272052e+00 0.000000e+00 6.559310e-02 8.733330e-02 1.552470e+01" Stress="-4.146323e-02 3.560878e-03 2.456251e-03 3.549184e-03 -4.172793e-02 3.163163e-03 2.462601e-03 3.171860e-03 -3.455338e-02" Properties=species:S:1:pos:R:3:forces:R:3 Config_type=AlGaN_super3_48_1_3.xyz
Al 1.605224e+00 9.423549e-01 2.474860e+00 -6.972226e-04 -7.366876e-03 -3.532387e-03
Ga 1.609986e+00 9.428294e-01 7.608268e+00 2.488029e-04 -8.452063e-03 1.668261e-04
Ga 1.545759e+00 8.611973e-01 -2.754851e+00 4.333174e-04 -9.021132e-03 -2.571183e-04
Al 1.824998e-02 3.674298e+00 2.472559e+00 -1.333476e-03 -1.464498e-03 -3.007175e-03
Ga 2.073513e-02 3.683033e+00 7.614827e+00 -1.028850e-03 -8.147078e-04 1.688692e-03
Ga -3.883787e-02 3.598466e+00 -2.753211e+00 -9.602288e-04 1.022969e-04 1.155307e-03
Ga 3.228977e+00 -1.843390e+00 2.470012e+00 -2.562795e-03 -4.813590e-04 -2.811142e-03
Ga 3.230236e+00 -1.842726e+00 7.615926e+00 -1.187456e-03 5.101459e-04 1.099740e-03
Ga 3.166479e+00 -1.927082e+00 -2.754415e+00 -1.016220e-03 8.014065e-04 9.467303e-04
Ga -4.796972e+00 9.434398e-01 2.473898e+00 7.420034e-04 -8.066158e-03 -3.518206e-03
Ga -4.795071e+00 9.462589e-01 7.611552e+00 4.193318e-04 -7.786036e-03 3.086130e-04
Ga -4.858625e+00 8.644283e-01 -2.754176e+00 4.966891e-04 -8.387463e-03 -9.222857e-05
Ga -6.389113e+00 3.677487e+00 2.473261e+00 -3.303676e-04 5.202047e-04 -1.778369e-03
Ga -6.381326e+00 3.684821e+00 7.609221e+00 -8.787304e-05 -5.175286e-04 2.075994e-03
Al -6.445640e+00 3.602989e+00 -2.760527e+00 1.617196e-05 2.011449e-04 1.735075e-03
Ga -3.176340e+00 -1.844639e+00 2.471988e+00 1.646926e-04 2.374927e-04 -3.628942e-03
Ga -3.170189e+00 -1.839409e+00 7.615928e+00 8.780762e-05 1.068045e-03 1.404716e-03
Ga -3.229959e+00 -1.925266e+00 -2.749650e+00 -1.063809e-03 6.363085e-04 2.130739e-03
Al -1.615315e+00 9.384218e-01 2.460912e+00 8.090291e-03 -5.441945e-03 -1.994575e-03
Ga -1.617308e+00 9.474955e-01 7.613467e+00 8.836488e-03 -4.849530e-03 -1.566483e-03
Ga -1.681117e+00 8.622667e-01 -2.753703e+00 8.874212e-03 -3.958615e-03 -1.919048e-03
Ga -3.200842e+00 3.682898e+00 2.468782e+00 6.927309e-03 3.174329e-03 -3.800495e-03
Ga -3.205790e+00 3.690234e+00 7.617520e+00 7.610687e-03 3.318931e-03 2.104027e-04
Ga -3.275036e+00 3.604761e+00 -2.752831e+00 7.932017e-03 4.177068e-03 -2.535466e-04
Ga -2.589129e-03 -1.834074e+00 2.462840e+00 6.954607e-03 4.408102e-03 -3.461962e-03
Ga 3.598091e-03 -1.835607e+00 7.615659e+00 7.651776e-03 4.471703e-03 -1.231673e-04
Ga -6.391973e-02 -1.922035e+00 -2.752930e+00 8.981044e-03 4.036076e-03 -2.852834e-04
Ga 2.564787e-02 1.851487e+00 5.025769e+00 -8.362776e-03 -5.534674e-03 -8.369275e-04
Ga -4.157299e-02 1.766493e+00 -5.333854e+00 -7.816547e-03 -4.773397e-03 4.586799e-06
Ga -4.002573e-02 1.767283e+00 -1.622145e-01 -5.448396e-03 -1.792884e-03 1.490790e-02
Ga 3.233423e+00 -3.676208e+00 5.040238e+00 -7.303365e-03 -3.933078e-03 -2.412709e-04
Ga 3.168339e+00 -3.760147e+00 -5.330268e+00 -7.710571e-03 -3.629427e-03 2.204884e-04
Ga 3.170366e+00 -3.757832e+00 -1.679257e-01 -5.701405e-03 -1.423362e-03 1.412610e-02
Ga 1.645931e+00 -9.279154e-01 5.039512e+00 -9.485579e-03 5.438251e-03 -2.381522e-03
Ga 1.580087e+00 -1.016125e+00 -5.331539e+00 -8.846070e-03 5.026138e-03 -1.475064e-03
Ga 1.580059e+00 -1.011533e+00 -1.645314e-01 -6.648516e-03 7.184501e-03 1.162133e-02
Al 3.195318e+00 1.854026e+00 5.035155e+00 -6.963599e-04 -1.844755e-03 9.246713e-04
Ga 3.131938e+00 1.772375e+00 -5.331983e+00 -5.947786e-05 -2.030604e-03 2.065120e-03
Ga 3.132632e+00 1.776319e+00 -1.782627e-01 1.730162e-03 7.530464e-04 1.622982e-02
Ga 6.406265e+00 -3.677672e+00 5.039353e+00 -2.047790e-04 -3.136734e-04 9.629306e-04
Ga 6.345129e+00 -3.758757e+00 -5.328872e+00 -5.246155e-04 9.214991e-05 2.395747e-03
Ga 6.351162e+00 -3.752958e+00 -1.725756e-01 9.373799e-04 2.941992e-03 1.600546e-02
Ga 4.815748e+00 -9.262438e-01 5.046509e+00 -5.482182e-04 8.505921e-03 -8.067914e-04
Ga 4.754585e+00 -1.013895e+00 -5.331070e+00 -8.948087e-04 8.295701e-03 2.893110e-04
Ga 4.759058e+00 -1.009873e+00 -1.654945e-01 1.311740e-03 9.626666e-03 1.239521e-02
Ga -3.207070e+00 1.856608e+00 5.035275e+00 2.052067e-03 -1.933104e-03 4.740371e-04
Ga -3.269030e+00 1.772720e+00 -5.334614e+00 1.077378e-03 -8.969798e-04 1.286472e-03
Ga -3.265139e+00 1.770854e+00 -1.696624e-01 2.619422e-03 1.833887e-03 1.459310e-02
Ga 3.482744e-03 -3.673105e+00 5.041412e+00 7.310259e-04 8.125083e-04 6.075564e-04
Ga -6.183100e-02 -3.755206e+00 -5.330069e+00 1.455037e-03 7.244805e-04 1.903012e-03
Ga -6.551210e-02 -3.747905e+00 -1.788072e-01 3.090729e-03 2.792367e-03 1.446341e-02
Ga -1.583552e+00 -9.251997e-01 5.035618e+00 9.255183e-05 9.744218e-03 -5.786282e-04
Ga -1.646785e+00 -1.010128e+00 -5.333603e+00 -1.531062e-05 8.931664e-03 8.540853e-05
Al -1.635509e+00 -9.869496e-01 -1.940541e-01 -1.393174e-03 5.198462e-03 1.866776e-02
N 1.625645e+00 9.501208e-01 4.407688e+00 1.073862e-02 -2.700220e-03 -7.826450e-03
N 1.544939e+00 8.566268e-01 -5.956867e+00 3.488160e-04 -8.632868e-03 -3.088521e-04
N 1.544671e+00 8.593394e-01 -7.999071e-01 1.348101e-04 -7.930254e-03 2.367705e-03
N 1.923887e-02 3.683715e+00 4.401597e+00 -9.952238e-04 6.144780e-04 -1.411969e-02
N -4.321719e-02 3.598664e+00 -5.952088e+00 -6.238294e-04 4.419314e-04 -1.836549e-03
N -4.095902e-02 3.600693e+00 -7.969989e-01 -2.034936e-04 2.153041e-04 1.005218e-03
N 3.229790e+00 -1.843376e+00 4.422980e+00 -9.710329e-04 4.213204e-04 -1.598661e-03
N 3.165489e+00 -1.928710e+00 -5.952680e+00 -8.773634e-04 8.210820e-04 -2.071401e-03
N 3.167338e+00 -1.925469e+00 -7.983138e-01 -7.734718e-04 1.633721e-03 1.198530e-03
N -4.811465e+00 9.528648e-01 4.430226e+00 -9.639790e-03 -2.810907e-03 4.711328e-03
N -4.859580e+00 8.594486e-01 -5.954731e+00 7.678680e-04 -8.509713e-03 2.181460e-05
N -4.856610e+00 8.614326e-01 -7.996247e-01 1.316948e-03 -7.496839e-03 2.739789e-03
N -6.381362e+00 3.665993e+00 4.430518e+00 -9.947217e-05 -1.160655e-02 3.057426e-03
N -6.445873e+00 3.600478e+00 -5.957881e+00 -1.087218e-04 5.588671e-04 -1.881345e-03
N -6.445372e+00 3.604343e+00 -8.277596e-01 4.271050e-04 8.489519e-04 -1.098516e-02
N -3.173722e+00 -1.841639e+00 4.424781e+00 -1.179985e-03 4.462649e-04 -1.078019e-03
N -3.235489e+00 -1.926525e+00 -5.951688e+00 -4.629434e-04 7.683321e-04 -1.824175e-03
N -3.214917e+00 -1.908973e+00 -7.864425e-01 1.114150e-02 7.379607e-03 3.515911e-03
N -1.620798e+00 9.438550e-01 4.395490e+00 8.470543e-03 -4.346986e-03 -9.783286e-03
N -1.682694e+00 8.614809e-01 -5.955780e+00 8.819771e-03 -4.889324e-03 2.083316e-03
N -1.678577e+00 8.490404e-01 -7.979263e-01 9.319550e-03 -1.354264e-02 8.649857e-03
N -3.206437e+00 3.689302e+00 4.421706e+00 7.675542e-03 4.041517e-03 4.369976e-04
N -3.271514e+00 3.605181e+00 -5.951074e+00 7.706846e-03 4.052725e-03 3.704283e-04
N -3.270972e+00 3.606503e+00 -7.981297e-01 8.140189e-03 4.270226e-03 3.250789e-03
N 1.699202e-03 -1.838973e+00 4.419322e+00 8.442474e-03 3.748544e-03 6.198074e-04
N -6.143232e-02 -1.922896e+00 -5.952548e+00 7.838580e-03 4.172492e-03 1.460324e-04
N -7.420430e-02 -1.905000e+00 -7.947901e-01 -2.097560e-03 1.037183e-02 6.899702e-03
N 2.184507e-02 1.847204e+00 1.875813e+00 -8.579208e-03 -5.886004e-03 -2.512002e-03
N 2.262487e-02 1.852203e+00 6.986788e+00 -7.724943e-03 -4.208552e-03 -5.575309e-04
N -4.130155e-02 1.767473e+00 -3.378132e+00 -8.051892e-03 -4.338165e-03 1.402341e-04
N 3.250728e+00 -3.686471e+00 1.854826e+00 1.469948e-04 -1.139882e-02 -8.640275e-03
N 3.233182e+00 -3.675708e+00 6.996005e+00 -7.925691e-03 -3.550309e-03 5.223834e-05
N 3.168753e+00 -3.760095e+00 -3.375429e+00 -7.850090e-03 -4.184576e-03 9.275090e-04
N 1.643203e+00 -9.078406e-01 1.853746e+00 -1.059094e-02 1.174543e-02 -6.700645e-03
N 1.644415e+00 -9.301826e-01 6.994401e+00 -8.864276e-03 4.687967e-03 2.015266e-03
N 1.580001e+00 -1.015284e+00 -3.376647e+00 -9.239360e-03 5.067340e-03 2.759214e-03
N 3.177416e+00 1.842544e+00 1.848859e+00 -1.096477e-02 -9.070194e-03 -1.065864e-02
N 3.196313e+00 1.854763e+00 6.970544e+00 6.038041e-04 -7.227610e-04 -1.464786e-02
N 3.132818e+00 1.790807e+00 -3.372013e+00 5.136610e-04 1.110542e-02 2.744646e-03
N 6.385691e+00 -3.687292e+00 1.857221e+00 -1.105394e-02 -8.643038e-03 -1.084169e-02
N 6.405555e+00 -3.672687e+00 6.994879e+00 2.282992e-04 1.206780e-04 -1.604556e-03
N 6.360384e+00 -3.765283e+00 -3.367996e+00 1.030792e-02 -5.745010e-03 2.756318e-03
N 4.816214e+00 -9.300075e-01 1.844064e+00 -2.728036e-03 6.620653e-03 -1.141692e-02
N 4.818819e+00 -9.278593e-01 6.999087e+00 -6.622755e-04 8.331582e-03 5.304342e-04
N 4.756254e+00 -1.012875e+00 -3.374519e+00 -1.809868e-04 8.510644e-03 7.742940e-04
N -3.187845e+00 1.842962e+00 1.851289e+00 8.830986e-03 -9.102773e-03 -1.028118e-02
N -3.203173e+00 1.857972e+00 6.992970e+00 8.976054e-04 -4.859434e-04 -2.008147e-03
N -3.267849e+00 1.773242e+00 -3.377500e+00 1.486893e-03 -7.674571e-04 -1.729180e-03
N 2.805877e-03 -3.674836e+00 1.840829e+00 -1.020069e-03 -2.556160e-03 -1.350147e-02
N 5.845360e-03 -3.668854e+00 6.996112e+00 9.744613e-04 1.336946e-04 -1.512908e-03
N -7.639152e-02 -3.762563e+00 -3.369286e+00 -9.317472e-03 -5.713624e-03 2.928511e-03
N -1.595015e+00 -9.202046e-01 1.847075e+00 2.633004e-04 1.959599e-02 -2.603463e-02
N -1.582199e+00 -9.241632e-01 6.993190e+00 -2.106558e-04 8.335053e-03 -1.052887e-05
N -1.646103e+00 -1.008967e+00 -3.378418e+00 -1.820538e-04 8.926678e-03 4.665195e-04
