108
Energy=-1489500.275800 Lattice="9.522600 0.000000 0.000000 -4.763993 8.247084 0.000000 -0.002333 0.002409 15.371436" Stress="0.000000 -0.000001 0.000000 -0.000001 0.000001 0.000001 0.000000 0.000000 -0.000002" Properties=species:S:1:pos:R:3:forces:R:3
Al 1.566539 0.879820 2.392759 0.000225 -0.000080 0.000152
Al 1.558760 0.859551 7.525237 -0.000006 -0.000017 -0.000020
Al 1.553098 0.860774 -2.687959 -0.000068 -0.000024 0.000111
Al -0.032709 3.612780 2.394362 0.000137 0.000063 -0.000393
Al -0.024510 3.623754 7.546564 -0.000040 -0.000056 0.000329
Al -0.037935 3.624367 -2.701939 -0.000107 -0.000120 0.000075
Al 3.144055 -1.867342 2.412077 -0.000182 -0.000058 0.000086
Al 3.136878 -1.858396 7.530136 0.000042 0.000100 0.000106
Al 3.131260 -1.882880 -2.709542 -0.000034 -0.000036 0.000111
Al -4.801608 0.881531 2.419272 0.000204 0.000187 0.000005
Al -4.787735 0.871809 7.523812 -0.000032 -0.000072 0.000060
Ga -4.791901 0.874831 -2.695688 0.000051 0.000049 0.000212
Al -6.363946 3.606913 2.390265 0.000024 0.000124 -0.000055
Ga -6.382672 3.620099 7.549744 0.000049 0.000017 0.000103
Ga -6.385163 3.618804 -2.691536 0.000053 0.000017 0.000077
Ga -3.208719 -1.869572 2.416570 0.000115 -0.000031 0.000100
Ga -3.208840 -1.871566 7.552075 0.000018 0.000013 0.000067
Ga -3.187339 -1.874155 -2.717136 -0.000035 -0.000043 -0.000053
Ga -1.597224 0.897653 2.417907 0.000171 -0.000112 0.000240
Ga -1.607309 0.890017 7.538550 0.000142 -0.000074 0.000173
Al -1.593503 0.870943 -2.709099 0.000108 0.000195 0.000140
Al -3.197317 3.632189 2.396563 0.000185 -0.000138 0.000252
Ga -3.187670 3.623571 7.552558 0.000111 -0.000286 0.000179
Ga -3.172816 3.636763 -2.704271 -0.000023 -0.000055 0.000198
Ga 0.000551 -1.873932 2.385460 0.000070 0.000045 0.000392
Al 0.002942 -1.851559 7.551028 0.000074 0.000005 0.000317
Al -0.009909 -1.847763 -2.692104 0.000078 -0.000067 0.000185
Al -0.016487 1.792833 4.974166 0.000078 0.000030 0.000197
Ga -0.022587 1.795332 -5.254031 -0.000142 0.000033 0.000328
Al -0.016678 1.786701 -0.172606 -0.000070 0.000034 -0.000051
Ga 3.157820 -3.703477 4.961349 -0.000107 0.000094 0.000214
Al 3.165567 -3.697641 -5.276798 -0.000036 0.000021 0.000022
Al 3.149433 -3.698058 -0.134991 -0.000281 0.000048 0.000102
Al 1.572778 -0.943188 4.972121 0.000009 -0.000036 0.000039
Al 1.561019 -0.962107 -5.263769 -0.000072 -0.000045 0.000112
Al 1.564421 -0.954180 -0.162176 -0.000165 0.000070 0.000127
Ga 3.147024 1.771437 4.960845 -0.000027 -0.000080 0.000223
Ga 3.145627 1.778556 -5.282545 -0.000019 -0.000094 0.000239
Al 3.132993 1.786081 -0.119050 0.000008 0.000036 0.000094
Ga 6.312549 -3.716434 4.957504 0.000125 -0.000094 0.000205
Al 6.309598 -3.705956 -5.257134 -0.000040 -0.000127 0.000155
Ga 6.320790 -3.719765 -0.133156 0.000006 -0.000024 -0.000022
Al 4.720553 -0.941317 4.976183 0.000009 0.000024 0.000069
Ga 4.730298 -0.962155 -5.276365 -0.000192 0.000049 0.000049
Ga 4.716085 -0.960928 -0.139733 -0.000082 -0.000078 0.000009
Al -3.202942 1.791114 4.951763 -0.000150 -0.000012 0.000029
Al -3.189196 1.785048 -5.258559 -0.000055 -0.000018 0.000312
Ga -3.188704 1.798043 -0.133506 -0.000069 -0.000057 0.000373
Ga -0.009559 -3.703191 4.971145 -0.000087 -0.000163 0.000360
Ga -0.014378 -3.683027 -5.260850 -0.000044 0.000018 0.000073
Al -0.015893 -3.694662 -0.146426 -0.000066 0.000013 0.000012
Ga -1.600264 -0.942267 4.988465 -0.000216 -0.000100 0.000132
Al -1.592877 -0.954844 -5.261920 -0.000078 -0.000006 -0.000068
Al -1.585990 -0.949303 -0.164297 -0.000113 0.000041 0.000231
N 1.515725 0.851038 4.323709 -0.000114 0.000003 -0.000105
N 1.554613 0.820863 -5.929596 0.000010 0.000029 -0.000093
N 1.567384 0.873215 -0.761849 0.000148 0.000039 -0.000205
N -0.031458 3.569828 4.302850 -0.000046 0.000032 0.000036
N -0.023739 3.666163 -5.904536 0.000012 0.000139 -0.000199
N -0.074671 3.607694 -0.779789 0.000051 -0.000048 -0.000032
N 3.146172 -1.822541 4.337157 0.000009 -0.000008 -0.000023
N 3.101621 -1.892816 -5.915157 0.000021 -0.000049 -0.000011
N 3.104188 -1.903605 -0.789067 0.000051 -0.000066 -0.000095
N -4.747205 0.851909 4.335851 0.000042 0.000061 -0.000129
N -4.736969 0.899382 -5.929119 0.000294 0.000074 -0.000296
N -4.828346 0.904581 -0.732575 0.000134 0.000049 -0.000072
N -6.366100 3.621293 4.302323 0.000020 0.000066 -0.000368
N -6.413546 3.650585 -5.853305 0.000017 0.000122 -0.000136
N -6.333631 3.596353 -0.713543 0.000148 0.000066 -0.000007
N -3.238028 -1.841910 4.388709 -0.000051 0.000082 -0.000138
N -3.152876 -1.895601 -5.835382 0.000113 0.000053 0.000042
N -3.156468 -1.851217 -0.743195 0.000098 0.000090 0.000071
N -1.603600 0.928176 4.397340 0.000251 -0.000136 -0.000178
N -1.647248 0.856616 -5.851105 0.000207 -0.000041 -0.000262
N -1.572348 0.854804 -0.787304 0.000151 -0.000091 -0.000066
N -3.195595 3.585206 4.313914 0.000044 -0.000010 -0.000145
N -3.153227 3.597429 -5.836346 0.000137 -0.000052 -0.000105
N -3.191804 3.674207 -0.725400 0.000043 -0.000023 -0.000099
N 0.023798 -1.844917 4.357219 0.000047 0.000082 -0.000269
N -0.013571 -1.817732 -5.902498 0.000035 -0.000021 -0.000067
N -0.017324 -1.868763 -0.761924 0.000085 -0.000087 -0.000235
N 0.020692 1.814316 1.749124 -0.000160 0.000132 -0.000050
N 0.021928 1.822668 6.903677 -0.000063 0.000098 -0.000095
N -0.016758 1.794353 -3.263443 0.000062 0.000009 -0.000044
N 3.155569 -3.696933 1.797913 -0.000032 0.000021 -0.000072
N 3.196255 -3.678592 6.946843 -0.000023 0.000022 -0.000214
N 3.200900 -3.677695 -3.356102 -0.000034 0.000029 -0.000031
N 1.613805 -0.928344 1.755566 -0.000116 0.000036 -0.000163
N 1.565858 -0.954044 6.900832 -0.000091 0.000045 -0.000277
N 1.564811 -0.954556 -3.324005 -0.000092 0.000080 -0.000356
N 3.146514 1.785779 1.805166 -0.000004 -0.000108 -0.000085
N 3.146374 1.743856 6.947268 -0.000050 -0.000019 -0.000131
N 3.101985 1.761087 -3.312902 -0.000122 -0.000057 -0.000174
N 6.324081 -3.752686 1.838594 -0.000113 -0.000054 -0.000049
N 6.283025 -3.729214 6.927702 -0.000126 -0.000094 -0.000220
N 6.278640 -3.736499 -3.344223 0.000210 0.000126 -0.000075
N 4.690386 -0.932024 1.831438 0.000165 0.000019 -0.000169
N 4.691634 -0.932128 6.907128 -0.000139 -0.000068 -0.000073
N 4.690134 -0.981204 -3.304424 -0.000096 0.000000 -0.000050
N -3.237240 1.812947 1.838560 -0.000133 0.000075 -0.000227
N -3.241342 1.774878 6.869546 -0.000122 0.000110 -0.000065
N -3.157067 1.766493 -3.342164 -0.000070 0.000009 -0.000126
N -0.018891 -3.748965 1.770918 -0.000056 0.000037 -0.000136
N -0.018803 -3.655491 6.950985 -0.000006 0.000170 -0.000196
N -0.021962 -3.650685 -3.288171 0.000053 0.000093 -0.000033
N -1.606771 -0.947962 1.743972 -0.000120 0.000067 -0.000282
N -1.566336 -0.978568 6.953842 -0.000122 -0.000016 -0.000086
N -1.557378 -0.932428 -3.338977 -0.000011 -0.000243 -0.000048
