108
Energy=-2.038806e+06 Lattice="9.587311e+00 0.000000e+00 0.000000e+00 -4.820399e+00 8.289254e+00 0.000000e+00 -1.048052e-03 2.019018e-03 1.545264e+01" Stress="-7.410999e-03 -1.028775e-03 1.609480e-04 -1.028430e-03 -7.769043e-03 1.667770e-05 1.503068e-04 6.866965e-06 -1.285883e-02" Properties=species:S:1:pos:R:3:forces:R:3 Config_type=AlGaN_super3_35_1_3.xyz
Al 1.562746e+00 8.959044e-01 2.422066e+00 -1.070801e-03 -3.410725e-04 4.011932e-03
Al 1.557852e+00 8.617612e-01 7.578701e+00 4.122834e-03 3.396011e-03 1.384340e-03
Ga 1.542993e+00 8.786187e-01 -2.720401e+00 3.129712e-03 -1.564859e-03 1.627932e-03
Al -2.641039e-02 3.645131e+00 2.285753e+00 -7.782807e-03 -3.238215e-03 2.973110e-02
Ga -4.024043e-02 3.624216e+00 7.583233e+00 5.614620e-04 1.043399e-03 -8.754667e-04
Al -3.570993e-02 3.628335e+00 -2.715693e+00 1.346126e-03 -1.134123e-03 6.234559e-03
Ga 3.184618e+00 -1.892963e+00 2.380710e+00 -9.071824e-04 -8.465406e-04 7.732705e-03
Al 3.173722e+00 -1.869829e+00 7.581602e+00 2.323133e-03 -2.414467e-03 7.170955e-04
Ga 3.185778e+00 -1.895884e+00 -2.698925e+00 -5.159305e-04 1.127117e-03 3.484394e-03
Ga -4.844506e+00 8.872302e-01 2.424599e+00 3.522315e-03 -4.806783e-04 3.167710e-03
Al -4.838362e+00 8.733841e-01 7.567607e+00 1.599458e-03 3.997713e-03 1.592994e-06
Ga -4.828699e+00 8.742244e-01 -2.697982e+00 1.148994e-03 1.910926e-03 9.758803e-04
Ga -6.434507e+00 3.631304e+00 2.390147e+00 2.745630e-03 1.954102e-03 7.711409e-03
Ga -6.417389e+00 3.640279e+00 7.579240e+00 -2.180470e-04 -1.542848e-03 7.965133e-04
Ga -6.426896e+00 3.657888e+00 -2.706606e+00 2.248135e-03 -1.149478e-03 1.549168e-03
Ga -3.211430e+00 -1.884177e+00 2.392554e+00 1.327466e-03 6.197164e-05 8.498123e-03
Ga -3.201534e+00 -1.858898e+00 7.576050e+00 6.090334e-04 -1.616642e-03 3.405956e-04
Ga -3.207791e+00 -1.886638e+00 -2.698961e+00 2.221408e-03 5.657881e-04 2.273148e-03
Ga -1.626229e+00 9.098911e-01 2.421224e+00 2.276821e-03 -5.014281e-04 1.961938e-03
Al -1.620033e+00 8.793994e-01 7.576283e+00 -1.533232e-03 1.886303e-04 6.127889e-04
Ga -1.617463e+00 8.971551e-01 -2.711476e+00 8.150246e-04 -2.406527e-03 1.483255e-04
Al -3.232328e+00 3.662054e+00 2.389378e+00 -9.771467e-04 -1.232774e-03 8.030001e-03
Ga -3.243994e+00 3.661210e+00 7.590615e+00 1.858917e-03 -2.341560e-03 -4.817593e-04
Ga -3.235651e+00 3.665658e+00 -2.712324e+00 -1.395363e-03 -1.937420e-03 1.471715e-03
Ga -1.659543e-02 -1.863646e+00 2.412709e+00 2.385821e-03 -3.179503e-03 4.500220e-03
Al -9.497693e-03 -1.859446e+00 7.569969e+00 -1.255253e-03 -2.578779e-03 1.431175e-03
Al -9.503930e-03 -1.881284e+00 -2.726604e+00 -4.864601e-04 -2.606085e-03 4.690937e-03
Ga -1.915196e-02 1.778665e+00 5.005985e+00 -1.375572e-03 5.824658e-03 3.154703e-04
Al -3.177687e-02 1.791909e+00 -5.320188e+00 4.354148e-04 4.562394e-04 5.219201e-03
Al -2.434325e-02 1.797431e+00 -1.438848e-01 1.858221e-04 4.356673e-03 -3.026128e-03
Ga 3.190572e+00 -3.727976e+00 4.998959e+00 5.083264e-04 -2.396756e-03 1.552187e-03
Ga 3.193424e+00 -3.739340e+00 -5.291837e+00 -5.117687e-04 2.063613e-03 1.698771e-03
Al 3.188235e+00 -3.740221e+00 -1.410925e-01 1.374051e-03 1.440556e-03 -1.312666e-02
Ga 1.591068e+00 -9.565426e-01 5.019142e+00 -1.850107e-03 1.022546e-03 -7.370518e-04
Ga 1.578545e+00 -9.789983e-01 -5.314312e+00 -8.087289e-05 3.214390e-03 2.448781e-03
Ga 1.586091e+00 -9.800330e-01 -1.189526e-01 -1.419062e-03 3.559557e-03 -1.408597e-02
Al 3.156041e+00 1.791714e+00 5.006502e+00 -1.647156e-03 3.191058e-03 3.079589e-03
Ga 3.158901e+00 1.799484e+00 -5.313893e+00 -8.552452e-04 -2.650623e-04 3.230146e-03
Ga 3.151714e+00 1.801794e+00 -1.197531e-01 6.953110e-05 -6.290441e-07 -1.563387e-02
Ga 6.387233e+00 -3.726845e+00 5.001285e+00 -2.730768e-03 -6.327101e-04 -2.023004e-04
Ga 6.383578e+00 -3.737358e+00 -5.284127e+00 -1.803999e-04 3.872988e-04 9.066476e-04
Al 6.372815e+00 -3.726497e+00 -1.412070e-01 -6.292570e-05 -4.850670e-04 -1.549346e-02
Ga 4.780163e+00 -9.536524e-01 5.012966e+00 3.321734e-04 -1.899276e-03 1.359328e-03
Ga 4.780972e+00 -9.612560e-01 -5.311446e+00 -1.857912e-03 8.344658e-04 3.254115e-03
Al 4.783688e+00 -9.719283e-01 -1.235066e-01 -1.233544e-03 -1.009241e-04 -1.109426e-02
Ga -3.236237e+00 1.800002e+00 5.005880e+00 -1.576708e-04 3.881340e-03 1.253074e-03
Ga -3.227335e+00 1.807002e+00 -5.318256e+00 -9.677363e-04 -9.751572e-04 3.031096e-03
Ga -3.220586e+00 1.813395e+00 -1.190428e-01 -2.487960e-03 2.238447e-04 -9.946564e-03
Ga -1.658091e-02 -3.709818e+00 4.985314e+00 -8.989793e-05 -2.155706e-03 2.188449e-03
Al -1.036200e-02 -3.706697e+00 -5.304351e+00 -1.714365e-03 -6.964636e-04 4.148756e-03
Al -2.966179e-03 -3.711977e+00 -1.474757e-01 -2.248241e-03 -9.593522e-04 -3.049595e-03
Al -1.604607e+00 -9.452242e-01 5.012027e+00 -3.923959e-03 -2.694057e-03 2.709369e-03
Ga -1.586713e+00 -9.597620e-01 -5.304713e+00 -3.130897e-03 2.276324e-03 3.119273e-03
Ga -1.597845e+00 -9.697041e-01 -1.355437e-01 -3.187396e-03 1.615493e-03 -1.835069e-02
N 1.598134e+00 8.982145e-01 4.356830e+00 4.999481e-03 -2.319648e-04 -6.105396e-03
N 1.528101e+00 8.943349e-01 -5.948249e+00 -6.803399e-04 7.569392e-05 -2.806626e-03
N 1.525581e+00 8.936723e-01 -7.472389e-01 -6.006982e-04 -4.091843e-04 -1.991182e-03
N -3.619092e-02 3.633523e+00 4.387554e+00 1.130525e-03 5.908357e-04 -3.044750e-02
N -3.385134e-02 3.595587e+00 -5.903422e+00 7.647875e-04 -1.787812e-03 5.824080e-04
N -3.735198e-02 3.629533e+00 -7.509450e-01 5.111619e-04 1.161008e-03 -2.829199e-03
N 3.186093e+00 -1.884403e+00 4.371869e+00 -6.059716e-04 1.018422e-03 -5.071477e-03
N 3.184814e+00 -1.889774e+00 -5.954114e+00 2.988681e-04 -9.809445e-04 -4.503054e-03
N 3.215436e+00 -1.905639e+00 -7.099285e-01 4.156050e-03 -2.774898e-03 -7.905922e-04
N -4.869930e+00 8.994034e-01 4.396843e+00 -7.682836e-04 2.234433e-03 -7.881820e-04
N -4.832027e+00 8.808453e-01 -5.968441e+00 1.729023e-03 4.336763e-04 -4.939608e-03
N -4.827778e+00 8.420863e-01 -7.275495e-01 1.708578e-03 -2.778780e-03 1.794514e-04
N -6.430236e+00 3.604653e+00 4.387052e+00 1.376952e-03 -4.483955e-03 -3.836448e-03
N -6.391029e+00 3.663474e+00 -5.897592e+00 3.339944e-03 2.236175e-03 -2.271089e-04
N -6.423064e+00 3.682992e+00 -7.197860e-01 8.261122e-05 4.352789e-03 2.293188e-04
N -3.175994e+00 -1.856614e+00 4.394725e+00 4.395846e-03 2.144204e-03 -3.407232e-03
N -3.201879e+00 -1.880362e+00 -5.910110e+00 1.282789e-03 -1.169821e-03 -7.566052e-04
N -3.240636e+00 -1.896482e+00 -7.144537e-01 -2.543956e-03 -2.889474e-03 -1.931616e-03
N -1.635128e+00 8.473987e-01 4.395206e+00 8.536304e-04 -2.848542e-03 -1.855252e-03
N -1.596775e+00 9.079711e-01 -5.949238e+00 2.409730e-03 -1.146781e-03 -3.534698e-03
N -1.592634e+00 9.135307e-01 -7.387956e-01 2.143878e-03 -1.335747e-03 -4.093409e-04
N -3.235218e+00 3.657551e+00 4.335496e+00 -1.772337e-04 -2.144763e-03 -9.161872e-03
N -3.271803e+00 3.675639e+00 -5.893288e+00 -1.937387e-03 6.040300e-04 6.010016e-04
N -3.237017e+00 3.690460e+00 -7.285284e-01 -6.289030e-05 1.991780e-03 -1.795991e-03
N -5.274726e-02 -1.843300e+00 4.389170e+00 -6.518102e-04 9.615389e-04 -6.117499e-05
N -1.720304e-02 -1.914243e+00 -5.958746e+00 8.560632e-04 -5.070257e-03 -5.104035e-03
N -1.301889e-02 -1.915928e+00 -7.963421e-01 1.829599e-03 -4.852118e-03 -3.246843e-03
N 1.210896e-02 1.813263e+00 1.768915e+00 7.097340e-04 2.434117e-03 3.785416e-03
N -2.821486e-02 1.746794e+00 6.981539e+00 5.061325e-04 -1.764966e-03 1.539612e-03
N -2.862121e-02 1.830471e+00 -3.377505e+00 -1.213000e-03 6.443066e-03 -6.607576e-03
N 3.159253e+00 -3.769090e+00 1.738370e+00 9.506511e-03 -1.919597e-03 1.195178e-02
N 3.186747e+00 -3.691171e+00 6.979207e+00 -5.339207e-04 5.544405e-03 -2.574894e-04
N 3.228965e+00 -3.750987e+00 -3.313153e+00 2.506230e-03 -1.118998e-03 -8.189238e-04
N 1.589520e+00 -9.059662e-01 1.809460e+00 -2.764368e-03 -1.267971e-04 1.113080e-02
N 1.587720e+00 -9.641849e-01 7.008294e+00 -6.713451e-04 3.954256e-04 1.749258e-04
N 1.554092e+00 -9.974684e-01 -3.327596e+00 -7.828716e-04 1.280672e-03 -1.209025e-03
N 3.122308e+00 1.770129e+00 1.796821e+00 -2.237558e-03 1.103216e-03 1.395049e-02
N 3.157166e+00 1.760640e+00 6.948557e+00 -1.433043e-03 -3.757155e-03 -3.570192e-03
N 3.161199e+00 1.795335e+00 -3.334341e+00 -2.908712e-04 1.495805e-03 -1.438292e-03
N 6.357499e+00 -3.743684e+00 1.735474e+00 -2.863779e-03 1.039902e-03 9.188556e-03
N 6.383809e+00 -3.723851e+00 6.969058e+00 -4.668769e-04 9.687615e-04 -9.696664e-04
N 6.345929e+00 -3.745768e+00 -3.307557e+00 -3.691816e-03 -2.064623e-03 -2.631636e-04
N 4.784656e+00 -9.571383e-01 1.753892e+00 -1.177592e-03 -1.048999e-04 5.697683e-03
N 4.747620e+00 -9.387856e-01 6.990826e+00 -4.725642e-03 -7.264889e-04 1.020821e-04
N 4.781816e+00 -9.643242e-01 -3.333922e+00 -1.260774e-03 -8.344857e-04 -3.693928e-03
N -3.237750e+00 1.851310e+00 1.820002e+00 -2.034925e-04 8.497428e-04 9.225943e-03
N -3.227748e+00 1.772636e+00 6.989907e+00 -4.984658e-04 -4.209511e-03 2.253253e-03
N -3.228642e+00 1.802551e+00 -3.336558e+00 -1.157671e-03 1.162534e-03 -1.498684e-03
N 2.027767e-02 -3.733384e+00 1.766439e+00 5.730041e-04 5.250769e-04 1.513759e-03
N -9.521259e-03 -3.675712e+00 6.961216e+00 -9.848059e-04 4.537579e-03 -8.316361e-04
N -1.040268e-02 -3.673718e+00 -3.367327e+00 -8.752189e-04 1.008470e-03 -5.463790e-03
N -1.609840e+00 -9.465224e-01 1.767670e+00 -1.286741e-03 3.029915e-04 1.760666e-02
N -1.571632e+00 -9.303458e-01 6.950688e+00 1.404607e-03 7.539664e-04 -4.365110e-03
N -1.567228e+00 -9.773574e-01 -3.320425e+00 -1.219239e-03 -3.373091e-04 3.796058e-04
