108
Energy=-2.633888e+06 Lattice="9.668855e+00 0.000000e+00 0.000000e+00 -4.834846e+00 8.372103e+00 0.000000e+00 -5.840568e-04 -1.410973e-03 1.569606e+01" Stress="9.770543e-06 -4.913940e-06 1.065346e-05 -3.264199e-06 5.793584e-07 -1.307793e-05 1.648731e-06 -6.206001e-06 2.909403e-06" Properties=species:S:1:pos:R:3:forces:R:3 Config_type=AlGaN_super3_48_1_14.xyz
Al 1.581405e+00 9.018443e-01 2.475443e+00 -8.393721e-06 8.913523e-06 1.489809e-05
Ga 1.592903e+00 8.951511e-01 7.682773e+00 2.130067e-07 8.338140e-06 1.345980e-06
Ga 1.590746e+00 9.003335e-01 -2.752095e+00 -4.699445e-06 6.544288e-06 -1.527812e-07
Al -2.189648e-02 3.664741e+00 2.463665e+00 -8.898431e-06 7.278119e-06 4.795712e-08
Ga -2.171479e-02 3.677283e+00 7.695249e+00 -2.633016e-06 3.901748e-06 3.730919e-06
Ga -1.303200e-02 3.677983e+00 -2.752017e+00 -5.392361e-06 7.747120e-06 3.889491e-06
Ga 3.199640e+00 -1.902019e+00 2.469435e+00 -1.061752e-05 6.011055e-06 1.877059e-06
Ga 3.199001e+00 -1.901487e+00 7.693416e+00 -4.639055e-06 -2.468555e-06 6.307733e-06
Ga 3.198756e+00 -1.900263e+00 -2.751788e+00 -7.060946e-06 4.658476e-06 4.577375e-06
Ga -4.864323e+00 8.946279e-01 2.476999e+00 -8.566488e-06 4.305276e-06 4.903852e-06
Ga -4.866349e+00 8.946310e-01 7.684258e+00 -3.318093e-06 6.790772e-06 -3.517044e-07
Ga -4.862387e+00 9.009406e-01 -2.754239e+00 -3.312186e-06 3.598817e-06 8.264260e-06
Ga -6.483335e+00 3.666852e+00 2.480043e+00 -3.826680e-06 1.452516e-05 4.626471e-06
Ga -6.471648e+00 3.671326e+00 7.681979e+00 -3.998800e-06 1.287849e-06 1.034244e-06
Al -6.470262e+00 3.681013e+00 -2.753632e+00 -9.835252e-07 -3.049488e-06 -2.476228e-06
Ga -3.237889e+00 -1.897859e+00 2.453838e+00 2.894029e-06 3.122932e-06 -4.977368e-08
Ga -3.245636e+00 -1.903624e+00 7.696700e+00 -1.338640e-06 -2.027654e-06 4.367880e-06
Ga -3.235011e+00 -1.906021e+00 -2.742589e+00 -8.802554e-06 -3.113388e-06 3.452685e-06
Al -1.620978e+00 8.888390e-01 2.456096e+00 -9.461381e-06 1.305905e-05 1.265791e-05
Ga -1.632351e+00 8.910040e-01 7.689813e+00 -2.100041e-06 -6.198436e-07 -4.866987e-07
Ga -1.631561e+00 8.874169e-01 -2.739444e+00 -4.818393e-06 6.319872e-06 3.364789e-06
Ga -3.233530e+00 3.672890e+00 2.466241e+00 -1.805995e-05 9.246281e-06 -2.788216e-06
Ga -3.246519e+00 3.679364e+00 7.696448e+00 -3.443270e-06 -3.348319e-09 4.411084e-06
Ga -3.254729e+00 3.680476e+00 -2.752412e+00 -3.735900e-06 2.743171e-06 9.272172e-06
Ga -3.046519e-02 -1.882309e+00 2.454777e+00 -1.521081e-05 1.569292e-05 4.028695e-06
Ga -2.307846e-02 -1.901151e+00 7.696474e+00 -6.562108e-06 -3.788563e-06 5.127689e-06
Ga -3.154735e-02 -1.903606e+00 -2.741125e+00 -6.566917e-06 -1.894030e-06 -3.713562e-07
Ga -1.482757e-02 1.819700e+00 5.040472e+00 -5.998104e-06 2.304005e-05 7.503378e-06
Ga -2.335097e-02 1.819637e+00 -5.376706e+00 4.651481e-06 8.603241e-06 -2.363799e-06
Ga -2.662630e-02 1.811711e+00 -1.076800e-01 -1.053726e-05 2.336277e-05 1.000667e-05
Ga 3.207514e+00 -3.766353e+00 5.070878e+00 -2.631204e-06 1.155777e-05 6.497643e-07
Ga 3.200573e+00 -3.760643e+00 -5.375156e+00 1.282238e-06 6.975283e-06 5.323556e-06
Ga 3.204493e+00 -3.763333e+00 -1.304822e-01 -1.156721e-05 2.640680e-05 4.851358e-06
Ga 1.591556e+00 -9.552009e-01 5.064859e+00 -6.830761e-06 1.079916e-05 6.260063e-06
Ga 1.587592e+00 -9.685179e-01 -5.376271e+00 -2.589581e-07 6.112230e-06 4.078382e-06
Ga 1.579080e+00 -9.629205e-01 -1.268631e-01 -3.225474e-06 1.952154e-05 9.626104e-06
Al 3.192395e+00 1.815406e+00 5.066973e+00 -2.320924e-08 1.072466e-05 2.763786e-06
Ga 3.198899e+00 1.826834e+00 -5.367745e+00 2.999419e-07 3.719441e-06 -5.347348e-07
Ga 3.194936e+00 1.827133e+00 -1.401205e-01 -3.492541e-06 2.010003e-05 4.014393e-06
Ga 6.420479e+00 -3.771640e+00 5.064801e+00 -7.736799e-06 1.509801e-05 1.449631e-06
Ga 6.428872e+00 -3.763259e+00 -5.365520e+00 -3.272332e-06 6.755216e-06 1.024697e-05
Ga 6.431841e+00 -3.759980e+00 -1.395257e-01 -1.289322e-06 2.298296e-05 -2.888008e-06
Ga 4.809522e+00 -9.629027e-01 5.076735e+00 7.996474e-07 3.811345e-06 2.968051e-06
Ga 4.812192e+00 -9.691476e-01 -5.376201e+00 -2.259794e-06 4.087423e-06 6.913825e-06
Ga 4.820590e+00 -9.679296e-01 -1.390312e-01 -1.194764e-05 1.259543e-05 5.252761e-06
Ga -3.248142e+00 1.814258e+00 5.064713e+00 -7.137150e-06 1.186115e-05 1.149395e-06
Ga -3.245186e+00 1.819648e+00 -5.376668e+00 -2.601514e-06 2.951145e-06 -1.359142e-06
Ga -3.238121e+00 1.809497e+00 -1.273953e-01 -5.944317e-06 1.362229e-05 1.075265e-05
Ga -2.801405e-02 -3.768283e+00 5.076372e+00 -6.896976e-06 1.531348e-05 2.743551e-06
Ga -2.905862e-02 -3.762694e+00 -5.365209e+00 1.997724e-07 4.956690e-06 6.070188e-06
Ga -3.650964e-02 -3.757457e+00 -1.500861e-01 -7.226296e-06 1.882918e-05 4.373395e-06
Ga -1.634492e+00 -9.641819e-01 5.069798e+00 -6.055098e-06 2.607233e-06 3.456210e-06
Ga -1.633942e+00 -9.683121e-01 -5.374676e+00 -2.519721e-06 -3.289053e-06 -3.478985e-06
Al -1.634059e+00 -9.634614e-01 -1.304440e-01 -7.000125e-06 1.373116e-05 2.556104e-06
N 1.632902e+00 9.155003e-01 4.400412e+00 1.232547e-05 -1.714903e-05 -6.681404e-06
N 1.591915e+00 8.942258e-01 -6.024880e+00 3.819503e-06 -1.317765e-05 1.720294e-06
N 1.583360e+00 8.942795e-01 -7.746386e-01 9.118892e-06 -2.158940e-05 -1.069368e-05
N -2.331225e-02 3.681526e+00 4.380672e+00 5.577251e-06 -1.471027e-05 -3.502364e-06
N -2.000102e-02 3.681968e+00 -6.015586e+00 4.630140e-06 -1.134103e-05 -3.020494e-06
N -2.092305e-02 3.674150e+00 -7.709263e-01 1.353405e-05 -2.519149e-05 -4.534428e-06
N 3.200503e+00 -1.901640e+00 4.443859e+00 7.314571e-06 -4.752571e-06 -2.475009e-06
N 3.199530e+00 -1.899402e+00 -6.018526e+00 6.354546e-06 -1.068482e-05 -6.036186e-06
N 3.196782e+00 -1.898868e+00 -7.689616e-01 1.231678e-05 -2.889760e-05 -4.418239e-06
N -4.901826e+00 9.153191e-01 4.460442e+00 1.710637e-06 -7.672049e-06 4.089993e-07
N -4.862444e+00 8.943248e-01 -6.022522e+00 8.186321e-06 -1.236970e-05 -6.985313e-07
N -4.858183e+00 8.952202e-01 -7.743853e-01 9.621509e-06 -1.385638e-05 -6.354517e-06
N -6.469679e+00 3.629727e+00 4.462421e+00 6.169531e-06 -1.359030e-05 -1.400921e-06
N -6.469636e+00 3.679370e+00 -6.029176e+00 3.315249e-06 -9.582744e-06 -6.181949e-06
N -6.472004e+00 3.679652e+00 -8.320034e-01 6.673063e-06 -2.042460e-05 -6.764306e-06
N -3.243817e+00 -1.900337e+00 4.434025e+00 2.257162e-06 -4.623067e-06 -8.629124e-07
N -3.245093e+00 -1.902806e+00 -6.014862e+00 3.560767e-06 -1.163345e-05 -4.199288e-06
N -3.199423e+00 -1.876248e+00 -7.518007e-01 1.255075e-05 -2.614495e-05 6.109172e-07
N -1.634917e+00 8.860914e-01 4.377702e+00 9.209241e-06 -1.283981e-05 -1.124488e-06
N -1.633610e+00 8.914871e-01 -6.024445e+00 5.934450e-06 -6.596691e-06 8.992064e-06
N -1.629832e+00 8.443611e-01 -7.521112e-01 1.383299e-05 -1.125462e-05 -2.015156e-05
N -3.245954e+00 3.680705e+00 4.441147e+00 7.281171e-06 -1.377665e-05 -1.532810e-06
N -3.248967e+00 3.682984e+00 -6.013496e+00 4.197189e-06 -1.065002e-05 -3.545012e-06
N -3.246483e+00 3.678931e+00 -7.689888e-01 8.397777e-06 -2.138841e-05 -6.764036e-06
N -2.486625e-02 -1.900447e+00 4.434781e+00 8.441297e-06 -1.142464e-05 -7.355266e-06
N -2.301546e-02 -1.902078e+00 -6.015071e+00 6.978513e-06 -1.215824e-05 -3.192234e-06
N -6.636449e-02 -1.872171e+00 -7.503839e-01 5.471904e-06 -2.724834e-05 1.555285e-06
N -2.091991e-02 1.817545e+00 1.894254e+00 1.005311e-05 -7.508180e-06 -1.267070e-05
N -2.286295e-02 1.819892e+00 7.031256e+00 -2.662730e-06 1.876337e-06 5.606731e-06
N -2.547431e-02 1.818889e+00 -3.396282e+00 1.191097e-07 -2.239108e-06 -3.540513e-06
N 3.244879e+00 -3.786330e+00 1.851061e+00 1.062648e-05 -9.223620e-06 -1.808824e-06
N 3.202758e+00 -3.764759e+00 7.053631e+00 1.937005e-06 5.607357e-06 -4.608298e-06
N 3.201269e+00 -3.762805e+00 -3.392331e+00 3.017156e-06 -2.448808e-06 -5.895739e-06
N 1.589545e+00 -9.166110e-01 1.857912e+00 6.852291e-06 -3.808561e-06 -4.314596e-06
N 1.587127e+00 -9.681368e-01 7.049258e+00 2.221402e-06 4.653657e-06 -5.469385e-06
N 1.584902e+00 -9.692531e-01 -3.390756e+00 5.434536e-06 -1.962638e-06 -5.298672e-07
N 3.155603e+00 1.797415e+00 1.842242e+00 5.720576e-06 -1.120793e-05 -1.309071e-05
N 3.195893e+00 1.817556e+00 6.991605e+00 -1.770389e-06 1.646839e-06 7.817478e-07
N 3.198748e+00 1.871387e+00 -3.378813e+00 2.755437e-06 -1.625488e-07 -1.433787e-06
N 6.384218e+00 -3.788624e+00 1.847683e+00 -1.378242e-06 -7.239439e-06 -3.754828e-06
N 6.419667e+00 -3.763207e+00 7.047595e+00 -1.114601e-06 3.627119e-06 -3.702136e-06
N 6.466550e+00 -3.783589e+00 -3.373119e+00 5.401577e-06 -1.812275e-06 -1.279118e-06
N 4.811178e+00 -9.675524e-01 1.835004e+00 4.655671e-06 3.400675e-06 -5.061012e-06
N 4.812432e+00 -9.712368e-01 7.057757e+00 -3.066960e-06 3.046040e-06 -2.653441e-06
N 4.815410e+00 -9.703298e-01 -3.388986e+00 1.786617e-06 -3.108785e-06 -5.729416e-06
N -3.204891e+00 1.791504e+00 1.856938e+00 4.666095e-06 -6.243996e-06 -1.117507e-05
N -3.244725e+00 1.817977e+00 7.048944e+00 -2.679001e-07 3.657950e-06 5.482880e-06
N -3.242114e+00 1.818729e+00 -3.393124e+00 1.017182e-06 -3.347530e-07 -7.918917e-06
N -2.922115e-02 -3.764888e+00 1.832640e+00 7.991344e-06 -7.154842e-06 -5.725316e-07
N -2.334059e-02 -3.761833e+00 7.056307e+00 1.292770e-06 2.837931e-06 -4.527078e-06
N -6.674473e-02 -3.782800e+00 -3.370890e+00 1.050696e-06 -4.390816e-06 -2.500368e-06
N -1.635124e+00 -9.193119e-01 1.792659e+00 3.797047e-06 -1.823834e-05 -2.386889e-06
N -1.634735e+00 -9.696986e-01 7.051557e+00 -6.982764e-06 1.176338e-05 -2.773267e-06
N -1.633792e+00 -9.681080e-01 -3.396395e+00 6.186759e-07 5.739558e-06 -4.167896e-06
