108
Energy=-2084581.089113 Lattice="9.603709 0.000000 0.000000 -4.824883 8.316129 0.000000 -0.019652 -0.030503 15.449444" Stress="-0.000031 -0.000002 -0.000008 -0.000002 -0.000007 -0.000008 -0.000008 -0.000008 -0.000066" Properties=species:S:1:pos:R:3:forces:R:3
Al 1.570261 0.886532 2.413593 0.001579 -0.002135 0.002547
Al 1.574563 0.898511 7.592758 0.000890 -0.003497 -0.006268
Al 1.569299 0.881500 -2.731926 -0.000161 -0.000459 0.004714
Al -0.028248 3.634067 2.437148 -0.000329 -0.000261 -0.000879
Al -0.016296 3.634239 7.590170 -0.000813 0.002056 0.001337
Ga -0.013412 3.655709 -2.742891 0.001099 0.000133 0.001916
Ga 3.201193 -1.895989 2.417884 -0.000630 -0.001029 0.002819
Ga 3.196675 -1.889910 7.573691 0.000574 -0.001645 -0.000178
Ga 3.201389 -1.874948 -2.718641 0.000080 -0.001254 0.000606
Ga -4.855687 0.874037 2.409591 0.000238 -0.001766 0.002920
Al -4.858417 0.886505 7.576193 0.000979 -0.002797 0.001134
Al -4.845831 0.876580 -2.729023 0.001239 0.001479 0.002620
Ga -6.452269 3.637372 2.398496 0.000900 0.000395 0.003569
Al -6.455993 3.636431 7.589655 0.001034 0.000395 0.008246
Ga -6.441067 3.651120 -2.752868 -0.000301 -0.001838 -0.000540
Ga -3.227563 -1.897728 2.428091 -0.000034 -0.001007 0.003042
Ga -3.222873 -1.902131 7.568558 -0.000257 -0.000413 0.001619
Al -3.207899 -1.882825 -2.737392 0.000297 -0.002499 0.001399
Ga -1.642323 0.883218 2.442393 0.004796 -0.001067 -0.002485
Ga -1.643827 0.891672 7.590306 0.003751 -0.002759 -0.001856
Ga -1.640603 0.894436 -2.728720 0.004657 -0.000971 -0.002084
Ga -3.251351 3.652313 2.422652 0.002883 0.001831 0.000959
Ga -3.258732 3.645844 7.583732 0.003604 0.002831 -0.000359
Ga -3.255835 3.669899 -2.716706 0.004233 0.000633 -0.000329
Ga -0.031824 -1.889519 2.423143 0.005020 -0.000290 0.001323
Ga -0.032494 -1.888253 7.573226 0.003954 -0.000745 0.000058
Al -0.023906 -1.880907 -2.718133 0.002811 -0.000559 0.000767
Ga -0.018185 1.795355 5.004956 -0.003735 -0.000674 0.001317
Al 0.003517 1.828935 -5.307696 -0.009704 0.004310 0.003275
Ga -0.004645 1.813822 -0.146054 -0.004812 -0.001849 0.002095
Ga 3.210684 -3.746338 5.007715 -0.004542 -0.000627 0.000219
Ga 3.223869 -3.730004 -5.300902 -0.003569 -0.002702 -0.000304
Ga 3.208696 -3.731147 -0.135835 -0.004390 -0.003290 -0.001783
Ga 1.600107 -0.970286 5.005706 -0.004632 0.001044 -0.001495
Ga 1.601548 -0.939566 -5.284720 -0.007714 -0.006632 0.000283
Ga 1.609507 -0.964901 -0.151880 -0.007003 0.001731 -0.002310
Ga 3.164702 1.793046 5.011062 -0.000287 0.000840 0.003132
Al 3.081643 1.629281 -5.287749 0.045152 0.059150 0.004321
Al 3.166746 1.799920 -0.187747 0.001247 0.001616 0.005955
Ga 6.386333 -3.740650 5.007807 0.000157 0.000726 0.002007
Al 6.400357 -3.726056 -5.315645 0.006737 -0.003651 -0.000253
Ga 6.399492 -3.728458 -0.155907 0.000277 -0.000190 0.000367
Al 4.794667 -0.967067 5.008371 -0.000959 0.000125 0.002226
Ga 4.806597 -0.950220 -5.292898 0.004372 0.003372 -0.000935
Al 4.794271 -0.963287 -0.184598 0.001409 0.003150 0.005065
Ga -3.251558 1.788110 5.012929 0.000018 0.001807 0.000698
Ga -3.237575 1.829299 -5.297708 -0.003410 0.001254 0.002120
Ga -3.258792 1.815165 -0.157593 0.000058 -0.000630 -0.001061
Ga -0.032010 -3.737312 5.006844 0.000755 0.000411 0.002471
Ga -0.019723 -3.709712 -5.303171 -0.006866 -0.008435 0.000207
Al -0.020060 -3.735147 -0.173542 -0.001386 0.001414 0.003899
Al -1.628935 -0.970818 5.007483 -0.001259 0.000665 0.000829
Ga -1.605676 -0.957011 -5.281460 -0.003338 0.003924 0.000657
Ga -1.619556 -0.972442 -0.170713 -0.000797 0.003053 -0.000834
N 1.572333 0.883202 4.347114 0.000480 -0.003534 -0.008928
N 1.566710 0.941103 -5.928111 -0.020886 -0.016571 -0.011762
N 1.595800 0.907590 -0.805597 0.005104 -0.001455 -0.004864
N -0.028693 3.642425 4.354598 -0.000354 -0.000949 -0.007637
N 0.012205 3.655389 -5.924424 0.003669 -0.004659 -0.003334
N -0.021615 3.657574 -0.776117 -0.001218 -0.000383 -0.002057
N 3.224575 -1.881179 4.398989 0.004629 0.002644 0.000717
N 3.205154 -1.869145 -5.905477 -0.002346 0.001541 -0.001085
N 3.225939 -1.875000 -0.753234 0.004124 0.002238 0.000616
N -4.847730 0.844532 4.393151 0.000991 -0.007203 -0.000929
N -4.853107 0.924707 -5.945303 -0.011343 -0.007805 -0.002268
N -4.869061 0.871639 -0.789341 -0.004265 -0.004755 -0.004639
N -6.443678 3.643039 4.378754 -0.000583 -0.000584 -0.003104
N -6.457370 3.685293 -5.932028 -0.008378 -0.020373 0.002477
N -6.414091 3.639689 -0.761533 0.005620 -0.004555 0.002117
N -3.222206 -1.863884 4.413174 0.000186 0.005800 0.002566
N -3.203992 -1.899693 -5.908313 -0.001462 -0.004924 0.001575
N -3.239263 -1.875283 -0.807204 -0.006279 0.002859 -0.005576
N -1.649734 0.849404 4.409188 0.004972 -0.005855 0.002166
N -1.604292 0.927675 -5.890029 0.009861 0.000187 0.002742
N -1.641012 0.904573 -0.770562 0.004557 -0.001783 0.001509
N -3.253100 3.651165 4.393137 0.004248 0.000405 -0.000262
N -3.238340 3.681165 -5.906722 0.005561 0.001371 -0.000281
N -3.271948 3.682263 -0.750271 -0.000057 0.003958 0.001683
N -0.057412 -1.876765 4.398197 -0.000811 0.004669 0.001596
N -0.013525 -1.861152 -5.913309 0.006534 0.003935 -0.001192
N -0.020652 -1.915252 -0.793689 0.005042 -0.005023 -0.004030
N 0.002630 1.811269 1.838431 0.001222 0.002301 0.002293
N 0.008144 1.818189 6.984390 0.001415 0.000410 0.005188
N 0.013828 1.798425 -3.374014 0.001580 -0.005798 -0.006691
N 3.229547 -3.771556 1.828429 0.001271 -0.001621 0.003201
N 3.230668 -3.766472 6.979747 0.001830 -0.004292 0.002958
N 3.206188 -3.732364 -3.339131 -0.004528 -0.000236 0.000066
N 1.593938 -0.944075 1.816469 -0.003292 0.006672 0.003415
N 1.598180 -0.937809 6.976740 -0.005053 0.009169 0.003619
N 1.572161 -0.949878 -3.307983 -0.009071 0.003881 0.001812
N 3.136391 1.783033 1.770310 -0.005129 -0.003457 -0.009988
N 3.161969 1.803814 6.997779 -0.001032 -0.001242 0.004395
N 3.157706 1.749625 -3.359176 0.000485 -0.006403 -0.004211
N 6.349859 -3.761626 1.818504 -0.003159 -0.000808 0.000966
N 6.385907 -3.780158 6.984948 -0.000652 -0.005551 0.001083
N 6.397207 -3.700570 -3.378634 -0.000224 0.007509 -0.004561
N 4.794105 -0.976353 1.760942 -0.001105 0.002271 -0.011285
N 4.788379 -0.939997 6.941432 -0.000599 0.008872 -0.005892
N 4.826409 -0.943686 -3.319465 0.004152 0.003821 0.002933
N -3.244626 1.799980 1.805811 -0.000223 0.000161 0.001126
N -3.274835 1.787966 6.982890 -0.004957 -0.004286 0.000952
N -3.272674 1.804468 -3.326872 -0.005506 -0.004041 0.002013
N -0.023166 -3.736574 1.770839 -0.000140 -0.000056 -0.010224
N -0.054752 -3.757445 6.978237 -0.005214 -0.002666 0.000062
N -0.017449 -3.695549 -3.334969 0.000080 0.007217 0.002612
N -1.625771 -0.978042 1.793569 -0.001404 0.004089 0.001363
N -1.622845 -0.971531 6.930585 -0.001436 0.004570 -0.007559
N -1.610689 -0.994520 -3.311502 -0.000782 -0.002354 0.003754
