108
Energy=-9.401945e+05 Lattice="9.454902e+00 0.000000e+00 0.000000e+00 -4.729352e+00 8.185868e+00 0.000000e+00 -1.293332e-03 1.651192e-04 1.521924e+01" Stress="2.281596e-04 -8.040942e-05 3.304467e-05 -8.809939e-05 -3.302603e-04 9.121665e-05 3.145187e-05 8.267806e-05 8.351666e-04" Properties=species:S:1:pos:R:3:forces:R:3 Config_type=AlGaN_super3_11_1_37.xyz
Al 1.550576e+00 8.739628e-01 2.397140e+00 -1.890379e-05 -4.526750e-06 1.756661e-05
Al 1.550404e+00 8.765913e-01 7.446335e+00 3.012519e-06 -8.180631e-07 1.840281e-06
Al 1.542988e+00 8.675250e-01 -2.684438e+00 -1.073993e-05 1.238140e-05 5.006007e-06
Al -1.128417e-02 3.594780e+00 2.376577e+00 9.006864e-06 -2.553953e-06 7.025680e-06
Al -1.030942e-02 3.587753e+00 7.446444e+00 2.383160e-05 -4.593870e-06 1.247143e-05
Al -2.398812e-02 3.582870e+00 -2.658405e+00 -4.672015e-05 9.262548e-06 -1.235249e-05
Al 3.140546e+00 -1.844941e+00 2.373428e+00 3.140032e-06 1.679002e-05 -1.814143e-05
Al 3.142796e+00 -1.836459e+00 7.462974e+00 8.522179e-07 1.716427e-05 -1.703586e-05
Al 3.124804e+00 -1.847278e+00 -2.672829e+00 -3.398891e-06 -1.402950e-05 -1.015776e-05
Al -4.748509e+00 8.607883e-01 2.400311e+00 7.503916e-06 -1.078115e-05 1.962368e-05
Al -4.751447e+00 8.587360e-01 7.442505e+00 1.603469e-05 -2.596649e-07 -2.235816e-05
Al -4.745700e+00 8.688374e-01 -2.682627e+00 2.118790e-05 6.384870e-07 -2.170274e-06
Al -6.348163e+00 3.592952e+00 2.412794e+00 -1.672423e-05 6.139798e-06 2.551034e-05
Al -6.337607e+00 3.592500e+00 7.438685e+00 -9.745057e-07 -1.182625e-05 -1.343175e-05
Al -6.325116e+00 3.594303e+00 -2.677907e+00 -2.787288e-05 2.904809e-05 -2.090355e-05
Al -3.181851e+00 -1.858367e+00 2.382307e+00 -1.639626e-05 1.506809e-05 -1.860582e-06
Al -3.186643e+00 -1.852558e+00 7.444976e+00 -2.680517e-05 -1.450771e-05 1.255421e-05
Ga -3.176601e+00 -1.851287e+00 -2.667875e+00 2.390640e-06 -1.392636e-05 -2.464082e-05
Al -1.598437e+00 8.714813e-01 2.384968e+00 -1.744851e-05 3.774257e-05 3.885181e-06
Al -1.598650e+00 8.721645e-01 7.459453e+00 -1.020725e-06 1.622053e-05 8.141455e-06
Al -1.592455e+00 8.778933e-01 -2.685001e+00 2.451135e-06 2.417124e-05 -8.305395e-06
Ga -3.164786e+00 3.583809e+00 2.389845e+00 3.213847e-06 3.502301e-06 -1.195467e-05
Ga -3.182587e+00 3.584013e+00 7.470731e+00 1.970036e-05 -1.769005e-05 -6.956492e-06
Al -3.174543e+00 3.589596e+00 -2.684672e+00 -1.064836e-05 -1.056658e-05 -3.022459e-05
Ga -2.353839e-02 -1.838252e+00 2.404672e+00 1.868143e-06 9.262524e-06 -1.878609e-05
Ga -2.615467e-02 -1.850473e+00 7.462520e+00 4.633927e-06 -7.315637e-06 -1.390680e-05
Al -1.468462e-02 -1.848831e+00 -2.696818e+00 8.544995e-06 -1.222992e-05 -4.330003e-07
Al -2.249611e-02 1.770326e+00 4.914154e+00 2.889454e-06 1.437889e-05 -1.335554e-05
Al -3.190542e-02 1.764874e+00 -5.220963e+00 -2.093938e-06 2.118964e-05 -2.656665e-07
Al -3.259250e-02 1.775724e+00 -1.453159e-01 -3.517030e-05 2.057326e-05 -1.230089e-05
Ga 3.139938e+00 -3.668058e+00 4.929266e+00 -6.827820e-07 1.559543e-05 -1.862705e-05
Ga 3.132746e+00 -3.671491e+00 -5.206100e+00 1.191494e-05 2.313788e-06 -1.692568e-06
Al 3.142539e+00 -3.674104e+00 -1.618379e-01 -5.147109e-06 4.953017e-06 -3.247518e-05
Al 1.559851e+00 -9.355191e-01 4.926327e+00 1.691659e-05 1.387706e-05 -1.955041e-05
Al 1.552739e+00 -9.438129e-01 -5.212540e+00 -1.727045e-05 -1.692321e-05 5.970644e-06
Al 1.554952e+00 -9.435177e-01 -1.592803e-01 1.974622e-05 1.107204e-05 1.724242e-05
Al 3.126999e+00 1.777076e+00 4.918408e+00 -1.868229e-06 -3.383468e-06 -2.930391e-05
Ga 3.134641e+00 1.769730e+00 -5.223436e+00 9.663198e-06 6.228413e-06 -1.825803e-05
Ga 3.124701e+00 1.769461e+00 -1.402231e-01 -2.027357e-05 3.633313e-06 -8.823493e-06
Al 6.286557e+00 -3.674525e+00 4.920027e+00 7.448520e-06 5.954651e-06 -1.513084e-05
Ga 6.284967e+00 -3.673126e+00 -5.230199e+00 2.106403e-06 -1.267795e-06 -2.650502e-05
Al 6.270388e+00 -3.676739e+00 -1.309836e-01 -7.803141e-07 -4.445637e-05 -1.661761e-06
Al 4.708080e+00 -9.435554e-01 4.913942e+00 -2.480854e-05 -6.265235e-06 -2.401270e-05
Al 4.707286e+00 -9.377669e-01 -5.231054e+00 -5.078876e-06 -2.261110e-05 -3.326850e-05
Al 4.704906e+00 -9.501700e-01 -1.308313e-01 -4.519310e-06 -3.177894e-06 -1.876737e-06
Al -3.174828e+00 1.758680e+00 4.925776e+00 1.206126e-06 -1.069754e-05 -1.149915e-05
Al -3.169032e+00 1.760950e+00 -5.212787e+00 3.328845e-05 1.327235e-05 1.223557e-05
Al -3.160592e+00 1.763504e+00 -1.575564e-01 -2.582587e-06 1.187836e-05 -2.628839e-05
Al -3.855567e-02 -3.680111e+00 4.921878e+00 -1.887977e-05 1.821626e-05 -1.694463e-05
Al -2.465008e-02 -3.673341e+00 -5.194902e+00 -5.984456e-06 -2.947867e-05 2.812790e-05
Ga -2.172562e-02 -3.668669e+00 -1.595278e-01 6.166683e-07 1.122388e-05 -2.097925e-05
Al -1.609759e+00 -9.396679e-01 4.923442e+00 -5.446726e-05 1.979604e-05 -2.435554e-07
Al -1.597379e+00 -9.347795e-01 -5.225874e+00 -2.520845e-05 1.888371e-05 -1.722867e-05
Al -1.599341e+00 -9.336334e-01 -1.457945e-01 2.853029e-05 1.866454e-05 2.697970e-05
N 1.549447e+00 8.701959e-01 4.316544e+00 3.556808e-06 -6.509932e-06 1.657514e-05
N 1.509773e+00 8.469982e-01 -5.850917e+00 3.958238e-06 1.015918e-05 -1.340123e-05
N 1.506952e+00 8.500881e-01 -7.725312e-01 2.441769e-05 -9.492003e-06 -2.441027e-05
N 1.893892e-02 3.573476e+00 4.294171e+00 -1.049844e-05 -1.478545e-05 -1.322312e-05
N -2.272188e-02 3.546120e+00 -5.866391e+00 -3.110991e-06 -1.122754e-05 -1.819141e-05
N -1.872172e-02 3.592091e+00 -7.398134e-01 -2.025170e-06 2.552014e-08 2.018348e-05
N 3.128187e+00 -1.807783e+00 4.286350e+00 2.544777e-05 8.005738e-06 3.475211e-05
N 3.129365e+00 -1.805710e+00 -5.842264e+00 6.013291e-06 8.096798e-06 1.339388e-05
N 3.132620e+00 -1.850367e+00 -7.515967e-01 8.095677e-07 6.543717e-06 2.118700e-06
N -4.749202e+00 8.694791e-01 4.319277e+00 1.206008e-05 -1.505102e-05 1.880590e-05
N -4.706372e+00 8.485267e-01 -5.859148e+00 -1.433138e-05 -1.650609e-05 5.324076e-06
N -4.708332e+00 8.417440e-01 -7.700456e-01 -4.877847e-06 -5.572450e-06 1.929782e-05
N -6.334442e+00 3.597424e+00 4.325672e+00 5.751896e-06 -4.949107e-06 2.230664e-05
N -6.281453e+00 3.620855e+00 -5.870366e+00 -7.352329e-06 -1.330046e-05 -3.235523e-06
N -6.372075e+00 3.620513e+00 -7.803511e-01 -3.194794e-06 -7.925301e-07 2.658733e-05
N -3.175258e+00 -1.858676e+00 4.309788e+00 2.760927e-06 -1.731545e-05 1.490300e-05
N -3.174116e+00 -1.808466e+00 -5.852435e+00 1.683054e-05 -5.691761e-06 -6.208388e-06
N -3.175058e+00 -1.856946e+00 -6.888770e-01 -2.824272e-05 3.828088e-05 -1.119948e-05
N -1.598162e+00 8.715369e-01 4.304662e+00 2.158829e-05 -6.442165e-06 1.055836e-05
N -1.597829e+00 8.730649e-01 -5.835411e+00 1.388043e-05 -2.856963e-06 1.168108e-05
N -1.594463e+00 8.707360e-01 -7.649239e-01 -6.578691e-06 -1.246107e-05 1.063626e-05
N -3.211228e+00 3.571323e+00 4.360660e+00 8.020126e-06 9.294619e-06 9.036445e-07
N -3.218062e+00 3.572026e+00 -5.772739e+00 1.312382e-05 -1.096331e-05 -4.154195e-07
N -3.133478e+00 3.570176e+00 -7.668922e-01 3.658065e-06 -7.972609e-06 4.634782e-05
N -2.214321e-02 -1.849736e+00 4.382053e+00 3.103990e-05 -7.102299e-05 -1.013161e-05
N -2.062194e-02 -1.859581e+00 -5.770190e+00 4.763592e-05 2.698455e-06 -7.638558e-06
N -2.386417e-02 -1.804196e+00 -7.784155e-01 -4.781139e-05 -8.950938e-06 -2.952056e-05
N -2.330418e-02 1.775621e+00 1.778978e+00 -1.581129e-05 1.499441e-05 1.299936e-05
N -2.736809e-02 1.775117e+00 6.836308e+00 2.432419e-06 2.060563e-06 1.787818e-05
N -2.395239e-02 1.781806e+00 -3.296292e+00 -1.090374e-05 7.995841e-06 2.544640e-05
N 3.173673e+00 -3.652206e+00 1.761045e+00 -2.023706e-05 -1.003745e-05 1.252539e-05
N 3.170391e+00 -3.649047e+00 6.901750e+00 -7.183055e-06 -9.402574e-06 -5.180635e-06
N 3.137667e+00 -3.673938e+00 -3.222746e+00 3.999192e-05 1.147105e-05 1.410296e-05
N 1.593386e+00 -9.209117e-01 1.756706e+00 -1.492742e-05 5.371814e-07 -4.417004e-07
N 1.596881e+00 -9.242685e-01 6.836338e+00 7.750512e-06 -1.037709e-05 3.587312e-05
N 1.560079e+00 -9.460021e-01 -3.292698e+00 -6.555843e-06 1.425622e-05 1.598125e-05
N 3.129974e+00 1.778520e+00 1.843745e+00 -2.171249e-05 1.168049e-05 -2.583032e-05
N 3.127204e+00 1.775834e+00 6.847108e+00 -1.366710e-06 -7.901413e-06 2.209388e-05
N 3.128951e+00 1.775902e+00 -3.239005e+00 -6.823484e-06 -6.386376e-06 5.400844e-06
N 6.284396e+00 -3.678979e+00 1.787710e+00 1.196038e-06 8.152361e-06 1.357122e-05
N 6.278793e+00 -3.673940e+00 6.845139e+00 6.495940e-06 1.058230e-06 1.832038e-05
N 6.276783e+00 -3.723436e+00 -3.259758e+00 3.526746e-05 -1.790860e-06 2.017932e-05
N 4.705907e+00 -9.439535e-01 1.784984e+00 5.911331e-07 3.375321e-06 2.295338e-06
N 4.703183e+00 -9.501766e-01 6.833882e+00 -4.880828e-06 4.831146e-06 5.444422e-06
N 4.664205e+00 -9.262597e-01 -3.315382e+00 -5.506291e-06 5.855618e-06 2.657197e-05
N -3.175752e+00 1.726305e+00 1.757088e+00 2.682533e-05 7.195470e-06 8.638014e-06
N -3.172411e+00 1.726708e+00 6.834121e+00 -4.570403e-06 -3.692007e-06 3.845217e-06
N -3.172935e+00 1.771916e+00 -3.291239e+00 -3.506234e-06 2.359485e-06 1.036673e-05
N -6.553451e-02 -3.698318e+00 1.806159e+00 6.067467e-06 1.793374e-05 3.427852e-06
N -6.315198e-02 -3.699066e+00 6.819298e+00 1.174684e-05 6.845669e-06 1.654795e-05
N -2.385066e-02 -3.678345e+00 -3.273099e+00 -1.845139e-05 9.759324e-06 1.539095e-05
N -1.637139e+00 -9.226201e-01 1.768407e+00 4.771185e-06 -4.419829e-05 -4.260248e-05
N -1.643017e+00 -9.212756e-01 6.837227e+00 3.793663e-05 -2.816143e-06 -9.294529e-06
N -1.563111e+00 -9.209267e-01 -3.310326e+00 9.603478e-06 -4.021079e-05 1.937980e-05
