108
Energy=-1352173.733847 Lattice="9.504227 0.000000 0.000000 -4.756583 8.231237 0.000000 0.011402 0.021555 15.332432" Stress="-0.000002 -0.000001 0.000002 -0.000001 -0.000002 0.000005 0.000002 0.000005 -0.000002" Properties=species:S:1:pos:R:3:forces:R:3
Al 1.565927 0.875456 2.397257 0.000343 0.000140 -0.000306
Al 1.582790 0.889313 7.486983 -0.000465 -0.000065 0.000160
Al 1.561221 0.875685 -2.672246 0.000336 0.000028 0.000134
Al -0.012889 3.618908 2.389668 -0.000627 0.001000 0.000029
Al -0.013301 3.634906 7.511871 0.000124 -0.000524 0.000512
Al -0.030388 3.609711 -2.687303 -0.000066 0.000231 0.000178
Al 3.146205 -1.851549 2.389322 0.000880 0.000270 -0.000617
Al 3.156629 -1.854044 7.512470 -0.000091 0.000041 0.000770
Ga 3.146090 -1.877372 -2.689134 -0.000071 -0.000041 0.000849
Al -4.790484 0.867804 2.391083 -0.000337 0.000449 -0.000846
Al -4.788779 0.881897 7.499652 0.000325 0.000162 0.000309
Al -4.780150 0.875550 -2.675302 0.000954 0.000541 0.000609
Ga -6.377903 3.608182 2.404216 0.000046 0.000083 0.000053
Al -6.368138 3.614701 7.494028 0.000132 0.000113 0.000163
Al -6.374889 3.598756 -2.676644 -0.000083 0.000069 -0.000147
Ga -3.214273 -1.873031 2.404585 0.000035 -0.000056 0.000390
Al -3.201355 -1.868168 7.502982 0.000661 0.000479 -0.000121
Al -3.195297 -1.875008 -2.685387 0.000198 0.000594 0.000340
Ga -1.594801 0.898038 2.395959 0.000210 -0.000000 -0.000239
Ga -1.597670 0.896003 7.524008 0.000477 -0.000175 0.000019
Al -1.614940 0.874733 -2.687135 0.000115 0.000617 -0.000255
Ga -3.178995 3.626431 2.384578 0.000104 -0.000093 -0.000083
Al -3.181172 3.632956 7.530758 0.000007 0.000078 0.000152
Al -3.181647 3.601350 -2.685786 0.000493 -0.000332 0.000553
Al 0.004207 -1.850568 2.409622 0.000103 -0.000064 0.000112
Ga -0.002621 -1.854450 7.540164 -0.000016 0.000175 -0.000044
Ga -0.025377 -1.861312 -2.712380 0.000199 0.000085 -0.000177
Al 0.012978 1.809879 4.954281 -0.000310 -0.000266 0.000733
Ga -0.017883 1.773176 -5.237838 -0.000345 0.000104 -0.000174
Al -0.013661 1.800478 -0.165911 0.000047 -0.000094 0.000153
Ga 3.177689 -3.674638 4.962824 -0.000121 -0.000172 0.000118
Al 3.141078 -3.703990 -5.266989 -0.000025 0.000239 0.000156
Al 3.164626 -3.699216 -0.144016 0.000129 -0.000065 0.000416
Al 1.586490 -0.926700 4.943464 -0.000871 -0.000490 0.000121
Al 1.565021 -0.958078 -5.265227 -0.000092 0.000265 -0.000002
Al 1.575299 -0.940454 -0.123591 0.000316 0.000133 0.000357
Al 3.135542 1.780725 4.955880 0.000061 0.000480 -0.000020
Ga 3.128273 1.767947 -5.251013 0.000083 -0.000013 0.000677
Al 3.138190 1.774213 -0.154684 0.000256 -0.000513 0.000320
Al 6.306193 -3.701727 4.979129 -0.000146 0.000611 -0.000118
Ga 6.305152 -3.700390 -5.253638 0.000209 -0.000250 0.000289
Al 6.294403 -3.708113 -0.171029 0.000051 0.000122 0.000096
Al 4.716765 -0.940960 4.963983 0.000381 -0.000353 0.000241
Ga 4.724558 -0.969476 -5.261408 -0.000394 0.000066 0.000467
Al 4.720568 -0.947528 -0.150680 -0.000118 0.000120 -0.000274
Ga -3.203079 1.790157 4.974093 0.000026 -0.000053 0.000173
Ga -3.199025 1.782347 -5.237882 0.000029 0.000153 0.000514
Al -3.196708 1.784739 -0.172229 -0.000392 -0.000268 0.000345
Ga -0.024527 -3.684851 4.975320 0.000220 0.000262 0.000099
Ga -0.020520 -3.709115 -5.246002 0.000103 -0.000090 -0.000200
Ga -0.018070 -3.707649 -0.159041 -0.000011 0.000210 0.000846
Ga -1.597967 -0.950249 4.954815 -0.000266 0.000066 0.000153
Al -1.617069 -0.964674 -5.239420 -0.000170 -0.000016 -0.000060
Ga -1.614300 -0.948153 -0.146951 0.000129 0.000315 0.000718
N 1.565828 0.885476 4.329690 0.000086 -0.000124 -0.000288
N 1.553763 0.819591 -5.930019 0.000268 -0.000041 0.000343
N 1.560730 0.866312 -0.753434 -0.000092 0.000010 -0.000134
N 0.024200 3.606476 4.314196 0.000094 -0.000622 0.000262
N -0.067520 3.626002 -5.902464 0.000039 0.000188 -0.000463
N -0.032513 3.618904 -0.771668 -0.000098 0.000005 -0.000283
N 3.156791 -1.811862 4.313776 -0.001046 0.000142 0.000112
N 3.100363 -1.900869 -5.889796 0.000262 -0.000133 -0.000679
N 3.140431 -1.871121 -0.703643 -0.000318 0.000155 -0.000474
N -4.814753 0.857366 4.317841 -0.000205 0.000161 0.000693
N -4.786529 0.865417 -5.925174 0.000222 -0.000097 -0.000425
N -4.781066 0.872633 -0.760748 -0.000040 0.000180 0.000137
N -6.404470 3.600977 4.388036 0.000004 -0.000433 0.000190
N -6.371406 3.601879 -5.924643 -0.000239 0.000122 -0.000495
N -6.407123 3.586737 -0.765152 -0.000093 0.000324 -0.000272
N -3.238439 -1.888689 4.385630 0.000419 -0.000436 0.000091
N -3.155704 -1.857264 -5.912748 -0.000045 0.000095 -0.000176
N -3.235515 -1.890049 -0.770152 0.000148 -0.000510 -0.000311
N -1.559397 0.919168 4.368463 0.000418 0.000100 -0.000017
N -1.610709 0.822547 -5.838153 0.000401 -0.000014 -0.000079
N -1.605015 0.920607 -0.771015 0.000291 -0.000104 -0.000204
N -3.182118 3.629630 4.344549 0.000264 -0.000026 0.000016
N -3.157212 3.630094 -5.893020 0.000066 -0.000135 -0.000271
N -3.141479 3.597620 -0.767152 -0.000058 0.000426 -0.000704
N 0.032387 -1.835527 4.319476 0.000751 0.000171 -0.000017
N -0.026696 -1.829147 -5.811691 -0.000095 0.000011 0.000191
N 0.025020 -1.837932 -0.747857 0.000025 -0.000014 -0.000324
N 0.026163 1.821358 1.758004 0.000289 -0.000738 -0.000315
N 0.029950 1.827489 6.879717 -0.000150 0.000693 -0.000881
N -0.017654 1.783244 -3.249695 -0.000513 -0.000284 0.000093
N 3.200537 -3.667577 1.775241 -0.000054 -0.000336 0.000150
N 3.157730 -3.683835 6.948349 0.000011 -0.000072 -0.000248
N 3.147812 -3.749936 -3.339232 -0.000193 -0.000162 -0.000008
N 1.566035 -0.943701 1.797265 -0.000093 0.000137 -0.000265
N 1.612578 -0.922173 6.869862 0.000282 0.000062 -0.000818
N 1.571493 -0.902602 -3.355516 -0.000182 0.000175 -0.000216
N 3.144892 1.743536 1.764954 -0.000599 -0.000244 0.000425
N 3.150230 1.795732 6.880090 0.000122 -0.000206 -0.000389
N 3.140567 1.779442 -3.259218 -0.000697 0.000052 -0.000395
N 6.276258 -3.717170 1.737046 0.000177 0.000119 -0.000027
N 6.314595 -3.689591 6.902091 -0.000012 -0.000125 -0.000104
N 6.311392 -3.703700 -3.261599 0.000106 -0.000260 0.000022
N 4.691981 -0.922575 1.761873 -0.000540 -0.000708 0.000512
N 4.730073 -0.943597 6.896670 -0.000263 -0.000079 -0.000259
N 4.767456 -0.933247 -3.278298 -0.000155 -0.000256 -0.000740
N -3.237514 1.765639 1.744324 0.000301 0.000073 -0.000021
N -3.230370 1.824438 6.944726 -0.000310 -0.000053 -0.000164
N -3.200524 1.783251 -3.251420 -0.000063 -0.000185 -0.000133
N -0.026081 -3.646707 1.812373 -0.000052 -0.000261 -0.001007
N -0.013397 -3.729194 6.951065 -0.000117 -0.000190 -0.000017
N -0.024221 -3.760735 -3.262565 -0.000147 0.000185 0.000093
N -1.568295 -0.972762 1.824514 -0.000441 -0.000409 -0.000608
N -1.634814 -0.968382 6.918096 -0.000716 -0.000329 0.000184
N -1.659443 -0.934830 -3.318643 -0.000182 -0.000306 0.000075
