108
Energy=-894419.015230 Lattice="9.450350 0.000000 0.000000 -4.728749 8.181915 0.000000 -0.004165 -0.002560 15.204520" Stress="0.000002 -0.000001 -0.000001 -0.000001 -0.000000 -0.000001 -0.000001 -0.000001 0.000004" Properties=species:S:1:pos:R:3:forces:R:3
Al 1.562103 0.882715 2.382498 0.000033 0.000161 0.000056
Al 1.564384 0.871308 7.453549 0.000152 -0.000099 -0.000058
Al 1.552137 0.882921 -2.675771 -0.000028 -0.000090 -0.000169
Al -0.018344 3.603099 2.372696 0.000002 0.000073 0.000077
Al -0.026475 3.606637 7.452825 0.000039 -0.000062 -0.000039
Al -0.032919 3.586892 -2.670953 -0.000087 -0.000021 0.000061
Al 3.148174 -1.857866 2.404054 -0.000071 -0.000038 -0.000113
Al 3.136432 -1.859700 7.448185 0.000043 0.000113 -0.000098
Al 3.137964 -1.857806 -2.697798 0.000097 0.000139 -0.000010
Al -4.754769 0.863926 2.382177 -0.000027 0.000082 0.000084
Al -4.755423 0.865894 7.437591 0.000152 0.000096 0.000054
Al -4.748196 0.871811 -2.671057 -0.000008 -0.000036 0.000054
Al -6.339045 3.586373 2.388087 0.000106 -0.000026 0.000034
Al -6.330611 3.588016 7.427726 -0.000015 0.000078 -0.000039
Al -6.318462 3.584580 -2.657637 0.000071 0.000090 0.000041
Al -3.183584 -1.859711 2.378914 0.000017 -0.000061 0.000069
Al -3.190033 -1.862634 7.439444 0.000025 -0.000034 0.000112
Ga -3.186297 -1.849557 -2.659116 -0.000051 0.000067 0.000108
Al -1.605581 0.871359 2.377433 0.000116 -0.000133 0.000121
Ga -1.612954 0.877243 7.469807 0.000168 -0.000062 0.000004
Al -1.596209 0.887953 -2.685276 0.000024 0.000019 0.000058
Ga -3.165037 3.589184 2.385043 0.000131 0.000118 0.000041
Al -3.176325 3.592693 7.451602 0.000001 0.000049 0.000026
Al -3.168993 3.591980 -2.682034 0.000073 -0.000003 -0.000077
Ga -0.029924 -1.853604 2.402235 0.000045 -0.000072 -0.000003
Ga -0.019369 -1.865482 7.455748 0.000128 0.000076 0.000038
Ga -0.016517 -1.860093 -2.687038 0.000102 -0.000055 -0.000088
Ga -0.022396 1.781455 4.907694 -0.000077 -0.000048 0.000032
Al -0.028291 1.776867 -5.207535 -0.000025 0.000190 0.000007
Al -0.029621 1.785726 -0.145112 -0.000100 0.000131 -0.000098
Al 3.129258 -3.667721 4.931923 -0.000141 0.000097 0.000012
Al 3.121721 -3.675806 -5.222121 -0.000038 0.000042 -0.000011
Al 3.137637 -3.676989 -0.162224 0.000064 0.000118 -0.000020
Al 1.568287 -0.950495 4.918141 -0.000067 0.000227 -0.000081
Al 1.561967 -0.948541 -5.214655 -0.000005 -0.000071 0.000064
Ga 1.568948 -0.945517 -0.144392 -0.000209 0.000060 0.000032
Al 3.134617 1.776811 4.916378 -0.000106 -0.000047 -0.000076
Ga 3.135676 1.772903 -5.212585 0.000094 0.000046 0.000080
Al 3.133208 1.786992 -0.148872 0.000056 -0.000003 -0.000087
Al 6.278673 -3.668494 4.911087 0.000031 0.000038 -0.000016
Ga 6.277988 -3.671510 -5.219937 0.000020 0.000054 0.000066
Al 6.280710 -3.683087 -0.137876 -0.000016 -0.000002 -0.000018
Al 4.703413 -0.949717 4.911446 -0.000059 0.000039 -0.000076
Al 4.702148 -0.943086 -5.233638 0.000102 -0.000115 0.000033
Al 4.703541 -0.944632 -0.128620 -0.000012 -0.000006 -0.000009
Al -3.187479 1.775260 4.916411 -0.000019 0.000083 -0.000012
Al -3.172282 1.784066 -5.202996 -0.000095 0.000119 0.000012
Al -3.173132 1.775264 -0.163148 -0.000059 -0.000032 -0.000015
Al -0.025760 -3.685498 4.928131 0.000117 -0.000060 -0.000054
Al -0.007929 -3.682938 -5.218926 0.000195 0.000312 0.000061
Al -0.026528 -3.690543 -0.149072 -0.000009 -0.000160 0.000018
Al -1.614275 -0.954382 4.909046 0.000005 0.000042 0.000153
Al -1.602492 -0.939468 -5.213027 0.000824 -0.000163 0.000005
Al -1.607939 -0.935385 -0.133645 -0.000075 -0.000192 -0.000124
N 1.595214 0.850050 4.291191 0.000073 -0.000234 0.000132
N 1.513804 0.848427 -5.836127 0.000027 0.000014 -0.000077
N 1.549269 0.921733 -0.763826 0.000050 -0.000156 0.000304
N -0.030044 3.649392 4.288472 0.000371 -0.000159 -0.000159
N -0.065782 3.575402 -5.838426 -0.000031 -0.000023 0.000101
N -0.023750 3.594695 -0.750034 0.000026 -0.000056 0.000059
N 3.132623 -1.863572 4.320244 -0.000029 0.000024 -0.000096
N 3.130451 -1.858701 -5.830513 0.000076 -0.000018 -0.000010
N 3.178152 -1.878363 -0.784727 -0.000138 -0.000215 -0.000143
N -4.751383 0.868457 4.306171 0.000087 -0.000020 -0.000025
N -4.702168 0.850817 -5.850492 -0.000074 0.000119 -0.000127
N -4.748752 0.864861 -0.750035 0.000053 -0.000031 0.000105
N -6.328370 3.594482 4.313614 0.000005 0.000051 -0.000015
N -6.282873 3.619206 -5.870620 -0.000148 -0.000090 -0.000125
N -6.324317 3.597759 -0.745927 -0.000066 0.000045 0.000041
N -3.177680 -1.860639 4.301267 0.000016 0.000081 0.000034
N -3.171310 -1.810089 -5.848522 -0.000365 -0.000078 -0.000109
N -3.175700 -1.855624 -0.683716 0.000139 0.000012 -0.000023
N -1.643919 0.848488 4.291658 0.000126 0.000119 -0.000235
N -1.601550 0.875859 -5.761426 0.000054 -0.000102 0.000014
N -1.595126 0.873010 -0.760708 0.000150 -0.000143 0.000092
N -3.170853 3.598162 4.362045 -0.000153 -0.000056 0.000016
N -3.171242 3.594651 -5.825886 0.000044 -0.000143 -0.000016
N -3.172106 3.599531 -0.756535 0.000050 -0.000127 0.000029
N -0.022363 -1.859475 4.380151 -0.000035 0.000025 0.000024
N -0.018871 -1.857166 -5.762402 -0.000526 0.000016 0.000079
N -0.062409 -1.878815 -0.712461 -0.000093 0.000108 -0.000085
N -0.024938 1.778442 1.783408 -0.000111 0.000026 0.000043
N 0.014933 1.800120 6.877569 -0.000170 0.000236 -0.000001
N -0.019619 1.782570 -3.285788 -0.000060 0.000055 0.000034
N 3.170399 -3.647999 1.752042 -0.000208 0.000129 0.000071
N 3.127394 -3.676796 6.852632 -0.000064 0.000101 0.000009
N 3.130759 -3.677712 -3.293261 -0.000058 0.000036 0.000046
N 1.600549 -0.927505 1.824913 0.000075 -0.000140 0.000009
N 1.596785 -0.925777 6.832676 -0.000004 0.000066 0.000099
N 1.599275 -0.918899 -3.298477 -0.000053 -0.000025 0.000117
N 3.129785 1.780453 1.773572 0.000042 -0.000073 -0.000019
N 3.124614 1.773830 6.838807 -0.000060 -0.000093 -0.000080
N 3.130743 1.779432 -3.233317 -0.000013 0.000062 -0.000162
N 6.281879 -3.679541 1.782043 0.000011 0.000007 0.000011
N 6.273171 -3.676611 6.838390 -0.000016 -0.000023 -0.000006
N 6.280929 -3.723033 -3.244116 0.000055 -0.000052 -0.000075
N 4.697674 -0.946976 1.789187 -0.000052 0.000004 0.000022
N 4.699389 -0.950053 6.834501 -0.000146 -0.000025 -0.000013
N 4.665919 -0.918979 -3.319012 0.000009 -0.000091 -0.000008
N -3.177787 1.730831 1.751518 0.000019 0.000036 -0.000173
N -3.217379 1.800288 6.825873 -0.000050 -0.000131 0.000091
N -3.177933 1.781372 -3.278010 -0.000029 -0.000090 0.000084
N -0.062041 -3.703462 1.755404 -0.000166 -0.000076 0.000103
N -0.021648 -3.726261 6.833047 -0.000010 -0.000034 0.000012
N -0.021181 -3.731304 -3.303197 -0.000131 -0.000017 0.000106
N -1.638972 -0.923602 1.773656 -0.000008 0.000146 0.000098
N -1.642599 -0.969193 6.815655 -0.000056 0.000020 -0.000282
N -1.604322 -0.900773 -3.310840 -0.000070 -0.000085 -0.000140
