108
Energy=-1123296.479507 Lattice="9.476274 0.000000 0.000000 -4.739047 8.203662 0.000000 -0.001605 -0.031038 15.274659" Stress="0.000000 -0.000001 -0.000000 -0.000001 -0.000002 -0.000007 -0.000000 -0.000007 0.000003" Properties=species:S:1:pos:R:3:forces:R:3
Al 1.554482 0.867761 2.398689 -0.000017 0.000157 0.000049
Al 1.554030 0.859603 7.462620 -0.000011 -0.000008 -0.000069
Al 1.559809 0.877470 -2.669834 -0.000071 -0.000030 -0.000049
Al -0.038943 3.598359 2.385854 0.000059 0.000001 0.000113
Al -0.021998 3.581831 7.472019 -0.000232 -0.000026 -0.000049
Al -0.016321 3.615267 -2.664542 -0.000051 0.000035 0.000105
Al 3.129610 -1.878129 2.379876 0.000200 0.000068 0.000017
Al 3.131966 -1.873621 7.497272 -0.000070 0.000010 0.000096
Ga 3.138269 -1.846711 -2.682436 0.000011 0.000020 -0.000017
Al -4.767153 0.869419 2.415662 0.000081 -0.000129 -0.000101
Al -4.762016 0.861262 7.480785 -0.000130 -0.000264 0.000036
Al -4.756289 0.878819 -2.699182 -0.000179 -0.000116 0.000050
Ga -6.335311 3.595115 2.384810 0.000045 -0.000021 0.000010
Al -6.339913 3.586740 7.485100 -0.000000 0.000216 0.000044
Ga -6.345762 3.613955 -2.673456 -0.000012 -0.000064 -0.000013
Al -3.175452 -1.859825 2.400772 0.000015 0.000039 -0.000046
Ga -3.176469 -1.874586 7.502072 0.000005 -0.000017 0.000058
Al -3.184480 -1.856830 -2.707703 0.000015 0.000058 0.000015
Al -1.593667 0.862569 2.401550 -0.000094 -0.000051 0.000030
Al -1.598314 0.856130 7.468798 0.000051 0.000114 0.000028
Ga -1.608451 0.882625 -2.679955 0.000025 -0.000046 -0.000036
Al -3.171140 3.610368 2.422508 -0.000200 -0.000020 -0.000113
Ga -3.185083 3.586802 7.465779 0.000048 0.000004 -0.000029
Al -3.184780 3.605685 -2.694366 -0.000030 -0.000108 0.000164
Al -0.024111 -1.862651 2.388806 -0.000157 -0.000115 0.000053
Al -0.023239 -1.872575 7.490026 -0.000247 -0.000026 -0.000019
Ga -0.020001 -1.850522 -2.683103 0.000024 0.000000 -0.000035
Al -0.033758 1.773834 4.931948 -0.000017 -0.000023 0.000050
Ga -0.021742 1.790129 -5.245489 -0.000050 -0.000045 -0.000036
Al -0.008033 1.786412 -0.131572 0.000014 -0.000028 -0.000003
Al 3.133161 -3.705465 4.933823 0.000054 -0.000129 0.000022
Ga 3.139597 -3.672460 -5.235441 -0.000006 0.000024 -0.000046
Al 3.131150 -3.694339 -0.139384 0.000065 -0.000017 0.000003
Ga 1.546215 -0.965946 4.934384 -0.000057 0.000020 0.000009
Al 1.550980 -0.939193 -5.266374 0.000028 0.000016 -0.000052
Al 1.544336 -0.939943 -0.111798 0.000043 -0.000029 -0.000130
Al 3.140308 1.777100 4.955882 -0.000099 0.000040 0.000009
Ga 3.143134 1.791374 -5.249639 0.000007 -0.000052 -0.000012
Al 3.123426 1.777677 -0.146609 0.000255 -0.000146 -0.000017
Ga 6.293763 -3.706597 4.937471 -0.000012 -0.000058 -0.000035
Al 6.298931 -3.667230 -5.240897 -0.000009 0.000100 -0.000007
Al 6.289602 -3.681960 -0.137606 0.000027 0.000064 0.000041
Ga 4.712329 -0.953919 4.932602 -0.000024 -0.000030 -0.000014
Al 4.723877 -0.933228 -5.241325 0.000118 0.000143 -0.000018
Ga 4.722595 -0.951231 -0.128886 0.000035 0.000017 0.000044
Al -3.175871 1.773936 4.918897 0.000005 -0.000003 -0.000061
Al -3.186642 1.783583 -5.244613 -0.000036 -0.000083 -0.000023
Ga -3.184916 1.799783 -0.118030 -0.000052 -0.000034 0.000013
Al -0.019384 -3.693248 4.939079 -0.000090 -0.000129 -0.000167
Al -0.027593 -3.664525 -5.251821 -0.000037 -0.000007 -0.000067
Al -0.012587 -3.677406 -0.130551 0.000059 -0.000062 0.000168
Al -1.590518 -0.953101 4.934306 0.000194 0.000149 -0.000179
Al -1.601305 -0.944080 -5.252639 -0.000032 0.000131 -0.000061
Al -1.595821 -0.961801 -0.125404 -0.000411 -0.000068 0.000108
N 1.558670 0.914189 4.320840 -0.000014 -0.000104 0.000014
N 1.556471 0.843546 -5.908289 0.000006 -0.000027 0.000003
N 1.553104 0.867307 -0.746972 0.000028 -0.000001 0.000045
N -0.068074 3.571040 4.303105 -0.000060 0.000078 -0.000190
N 0.017023 3.639914 -5.896012 0.000080 -0.000017 0.000142
N -0.021769 3.608084 -0.740816 0.000019 0.000009 0.000061
N 3.131426 -1.923350 4.286316 -0.000035 -0.000036 -0.000007
N 3.140209 -1.806084 -5.858454 -0.000121 -0.000059 -0.000187
N 3.090271 -1.878451 -0.702870 0.000005 -0.000028 0.000044
N -4.769263 0.914267 4.321075 0.000133 -0.000013 0.000023
N -4.717555 0.862274 -5.878392 -0.000034 -0.000039 -0.000061
N -4.794913 0.897274 -0.790322 -0.000130 0.000038 0.000156
N -6.297633 3.569618 4.356267 0.000074 0.000194 0.000148
N -6.340150 3.665942 -5.867607 -0.000051 -0.000067 -0.000062
N -6.339162 3.612297 -0.684672 -0.000151 0.000079 -0.000107
N -3.136531 -1.848956 4.305837 -0.000068 -0.000123 0.000112
N -3.180103 -1.850459 -5.797242 0.000038 0.000028 0.000021
N -3.137650 -1.882861 -0.781491 0.000147 0.000032 0.000035
N -1.596562 0.858747 4.324167 0.000002 0.000066 0.000005
N -1.642180 0.862691 -5.878604 0.000027 -0.000130 -0.000018
N -1.564194 0.849576 -0.702731 0.000052 0.000071 -0.000097
N -3.182118 3.602608 4.345938 -0.000004 0.000002 -0.000026
N -3.221801 3.592214 -5.832382 0.000007 0.000100 -0.000005
N -3.185710 3.653116 -0.777278 -0.000070 -0.000017 -0.000147
N -0.065837 -1.897112 4.302325 0.000021 0.000035 -0.000158
N -0.024489 -1.850650 -5.860282 0.000030 0.000002 0.000011
N -0.020658 -1.857316 -0.698005 0.000157 -0.000113 -0.000088
N -0.019215 1.777905 1.789610 -0.000006 0.000070 0.000028
N -0.026966 1.768701 6.859605 0.000007 0.000029 0.000049
N 0.020787 1.816207 -3.263444 0.000117 -0.000133 0.000000
N 3.130918 -3.699326 1.779969 0.000004 0.000057 0.000033
N 3.178745 -3.673014 6.854063 0.000032 0.000113 0.000093
N 3.141818 -3.726658 -3.259694 0.000024 0.000065 -0.000051
N 1.552619 -0.948545 1.805610 0.000015 0.000045 -0.000018
N 1.554947 -0.971427 6.916578 0.000268 0.000088 0.000061
N 1.555015 -0.892121 -3.349118 -0.000025 0.000062 0.000048
N 3.135509 1.723376 1.762985 -0.000039 -0.000095 -0.000158
N 3.138852 1.769239 6.879792 -0.000015 0.000080 0.000071
N 3.132654 1.744932 -3.270182 -0.000041 0.000020 0.000009
N 6.249237 -3.663239 1.778260 -0.000054 -0.000057 -0.000010
N 6.294457 -3.745456 6.904779 0.000274 0.000010 -0.000030
N 6.251619 -3.661325 -3.316356 0.000049 -0.000053 -0.000168
N 4.719552 -0.951744 1.850045 -0.000193 0.000095 -0.000071
N 4.673721 -0.944908 6.905143 -0.000014 0.000195 0.000095
N 4.754095 -0.918432 -3.319018 -0.000009 -0.000000 0.000080
N -3.183488 1.783498 1.862976 0.000107 0.000060 0.000043
N -3.180687 1.717003 6.836621 0.000089 0.000022 -0.000081
N -3.220486 1.811849 -3.323179 0.000177 0.000137 -0.000012
N 0.028827 -3.669070 1.778775 0.000233 0.000014 0.000051
N -0.064826 -3.670358 6.854654 -0.000103 -0.000110 0.000146
N 0.013767 -3.697525 -3.338162 0.000024 -0.000015 0.000045
N -1.604447 -0.955744 1.790066 0.000005 0.000038 -0.000022
N -1.558596 -0.943558 6.852840 -0.000036 -0.000100 0.000208
N -1.636463 -0.963381 -3.342859 -0.000029 -0.000035 0.000069
