108
Energy=-1.260623e+06 Lattice="9.491517e+00 0.000000e+00 0.000000e+00 -4.746639e+00 8.217130e+00 0.000000e+00 1.209245e-03 4.270782e-03 1.531153e+01" Stress="-5.368153e-04 -1.597443e-04 9.828185e-05 -1.523030e-04 -1.102724e-03 1.908807e-04 1.040297e-04 1.842571e-04 -1.469566e-04" Properties=species:S:1:pos:R:3:forces:R:3 Config_type=AlGaN_super3_18_0_27.xyz
Al 1.560308e+00 8.776693e-01 2.387753e+00 1.555900e-04 -9.408384e-05 1.698992e-04
Al 1.559839e+00 8.844682e-01 7.500146e+00 -2.959780e-04 -2.617807e-04 3.216632e-04
Al 1.563001e+00 8.843151e-01 -2.681973e+00 4.763943e-05 -1.364898e-04 -5.808359e-05
Al -8.380644e-03 3.606739e+00 2.427741e+00 -2.192892e-05 1.643703e-04 2.053526e-05
Al -1.479064e-02 3.613796e+00 7.494975e+00 -1.899758e-04 -1.849716e-04 6.063718e-05
Al -2.623588e-02 3.605814e+00 -2.712902e+00 1.068099e-04 8.685105e-05 -2.556467e-05
Al 3.146026e+00 -1.856357e+00 2.413213e+00 -3.548994e-05 2.242371e-05 -3.154519e-04
Al 3.151391e+00 -1.862625e+00 7.507679e+00 -1.307545e-04 4.633570e-05 -1.811594e-04
Ga 3.154298e+00 -1.867355e+00 -2.704687e+00 -3.077946e-05 1.261926e-05 1.523329e-04
Al -4.775362e+00 8.706682e-01 2.404584e+00 1.392313e-04 -2.913638e-05 2.287369e-04
Al -4.772008e+00 8.729543e-01 7.518848e+00 -3.167179e-04 2.633217e-04 -6.565495e-05
Al -4.765778e+00 8.780484e-01 -2.718017e+00 2.957342e-05 -9.514558e-05 -4.149124e-05
Al -6.357191e+00 3.610033e+00 2.387868e+00 -2.277919e-05 -4.242150e-05 -1.096489e-04
Al -6.368254e+00 3.605528e+00 7.521673e+00 1.043360e-04 1.187238e-04 1.749672e-04
Ga -6.362100e+00 3.594610e+00 -2.695583e+00 -1.019393e-04 1.313773e-04 7.905808e-05
Al -3.197621e+00 -1.874883e+00 2.439430e+00 -4.400906e-04 1.538161e-05 4.205740e-05
Ga -3.191067e+00 -1.867984e+00 7.512432e+00 5.804694e-05 -2.642795e-05 8.392332e-05
Al -3.192769e+00 -1.858187e+00 -2.741594e+00 -2.764483e-06 -1.815941e-04 5.011914e-06
Ga -1.601705e+00 8.857981e-01 2.402339e+00 6.926757e-05 -1.761507e-04 1.302754e-04
Al -1.599403e+00 8.818115e-01 7.510849e+00 -9.851658e-05 -2.552636e-04 -4.291586e-06
Al -1.614430e+00 8.820639e-01 -2.702983e+00 1.503555e-04 3.021251e-04 -2.011379e-05
Ga -3.194338e+00 3.609734e+00 2.418985e+00 -7.555385e-05 -1.094054e-04 2.254854e-04
Ga -3.171752e+00 3.609144e+00 7.504769e+00 2.620055e-05 -1.221068e-04 5.129691e-05
Al -3.174378e+00 3.592104e+00 -2.706827e+00 -1.768201e-04 4.813733e-05 6.492874e-05
Al -1.577532e-02 -1.869297e+00 2.381565e+00 1.469632e-05 -6.116080e-05 8.444870e-05
Al -2.215080e-02 -1.850651e+00 7.525649e+00 -4.493391e-05 -4.032953e-05 1.516459e-04
Ga -2.812490e-02 -1.852580e+00 -2.685939e+00 4.340620e-05 -1.744337e-04 1.776132e-04
Al -2.651769e-02 1.806041e+00 4.972007e+00 8.686396e-07 -3.690381e-05 1.512984e-04
Ga -2.671542e-02 1.793362e+00 -5.253845e+00 7.067544e-05 5.798608e-05 2.681843e-04
Al -1.504501e-02 1.784710e+00 -1.665307e-01 -2.326371e-04 1.037321e-05 -3.541411e-04
Al 3.167282e+00 -3.690780e+00 4.951813e+00 -1.622602e-04 -8.435483e-05 -1.740308e-04
Al 3.159920e+00 -3.695171e+00 -5.255381e+00 -2.822097e-04 -2.608296e-04 9.457673e-05
Ga 3.135471e+00 -3.708743e+00 -1.376004e-01 -7.851906e-05 1.632962e-04 1.121189e-04
Ga 1.569683e+00 -9.526994e-01 4.961961e+00 -3.392331e-04 1.258020e-04 7.549276e-06
Ga 1.571506e+00 -9.458808e-01 -5.268898e+00 -2.581824e-04 1.934166e-04 2.234506e-04
Al 1.559493e+00 -9.373387e-01 -1.269573e-01 -2.602270e-04 1.381307e-04 -3.745933e-05
Ga 3.143936e+00 1.789001e+00 4.952956e+00 1.692328e-04 -1.114520e-04 -1.178935e-05
Al 3.145436e+00 1.778994e+00 -5.264903e+00 -8.627667e-05 2.001162e-04 -5.909177e-05
Al 3.143066e+00 1.775943e+00 -1.360281e-01 -3.416203e-05 -4.704354e-05 1.436099e-06
Al 6.291370e+00 -3.699476e+00 4.947647e+00 1.193093e-04 -1.467696e-04 -7.107260e-05
Al 6.294735e+00 -3.691894e+00 -5.257100e+00 -1.950609e-04 1.513165e-04 4.585917e-04
Ga 6.302686e+00 -3.698349e+00 -1.328081e-01 -1.262252e-04 -1.244366e-04 9.233484e-05
Al 4.722121e+00 -9.522764e-01 4.952587e+00 -1.032885e-05 3.858162e-04 -1.739706e-04
Al 4.729321e+00 -9.466642e-01 -5.257419e+00 3.691803e-05 1.617461e-05 -7.889219e-05
Ga 4.725344e+00 -9.323836e-01 -1.367914e-01 -7.600899e-05 2.499771e-06 -1.679405e-05
Al -3.185734e+00 1.777664e+00 4.975279e+00 -2.429440e-05 -8.793785e-05 2.209108e-05
Al -3.191628e+00 1.771204e+00 -5.245240e+00 -2.539606e-05 2.811508e-04 -7.833228e-05
Al -3.199826e+00 1.792641e+00 -1.741784e-01 -1.231109e-05 -1.613412e-04 -3.919599e-04
Ga -3.123815e-02 -3.692797e+00 4.969856e+00 -1.315156e-05 -3.831191e-05 1.653068e-04
Ga -2.961014e-02 -3.699166e+00 -5.260045e+00 1.054115e-04 -1.346685e-04 9.338385e-05
Al -1.406763e-02 -3.703714e+00 -1.421681e-01 6.803357e-06 -4.908294e-05 -5.646126e-05
Ga -1.610112e+00 -9.441959e-01 4.957312e+00 -5.956441e-05 -3.990112e-05 9.905952e-05
Al -1.621231e+00 -9.431111e-01 -5.251885e+00 7.567938e-05 1.846272e-04 -3.750391e-05
Ga -1.606247e+00 -9.445155e-01 -1.397453e-01 -1.094963e-04 3.966824e-05 -7.631168e-05
N 1.512657e+00 9.001543e-01 4.308683e+00 1.792837e-04 6.232269e-05 -2.375850e-04
N 1.594395e+00 9.036164e-01 -5.910232e+00 1.710163e-04 -7.804927e-05 -2.250345e-04
N 1.565044e+00 8.734461e-01 -7.528588e-01 1.763658e-04 7.997696e-05 2.095418e-04
N -2.061993e-02 3.605355e+00 4.348124e+00 -5.221772e-05 -2.017538e-05 -1.785928e-04
N -2.139694e-02 3.657200e+00 -5.898011e+00 -3.659405e-05 1.163024e-04 7.534725e-06
N -2.141193e-02 3.570421e+00 -8.052209e-01 1.274538e-05 -5.088589e-06 -1.128676e-04
N 3.181259e+00 -1.884568e+00 4.328140e+00 1.037867e-04 -1.344285e-04 2.582095e-04
N 3.189730e+00 -1.893987e+00 -5.882735e+00 1.601965e-04 1.063616e-04 4.036995e-05
N 3.103914e+00 -1.843447e+00 -7.350107e-01 -5.095611e-05 -7.492302e-05 -4.143651e-05
N -4.724804e+00 8.550874e-01 4.323791e+00 8.231818e-05 -7.807036e-05 -3.463239e-04
N -4.766906e+00 8.728488e-01 -5.867308e+00 6.658025e-05 7.837809e-05 -4.741811e-05
N -4.776720e+00 9.206233e-01 -7.967084e-01 3.003693e-04 9.691169e-05 5.860251e-05
N -6.389607e+00 3.634951e+00 4.298968e+00 -6.343620e-05 1.257381e-04 3.467679e-05
N -6.401016e+00 3.586778e+00 -5.874084e+00 6.761727e-05 -1.952474e-04 1.173730e-04
N -6.315505e+00 3.583197e+00 -7.163303e-01 1.555048e-04 6.082991e-05 -9.555651e-05
N -3.228697e+00 -1.889796e+00 4.353454e+00 -6.725064e-05 1.154474e-04 -1.283996e-04
N -3.188440e+00 -1.868532e+00 -5.815309e+00 -1.498799e-04 -1.406395e-05 2.894464e-05
N -3.189551e+00 -1.867212e+00 -8.297779e-01 -2.058499e-05 1.217137e-04 -1.186133e-04
N -1.601660e+00 9.319182e-01 4.377615e+00 -9.594213e-05 1.526472e-05 -5.437858e-05
N -1.647613e+00 8.559144e-01 -5.881596e+00 9.856376e-05 -2.437592e-04 -6.978455e-05
N -1.608150e+00 9.214388e-01 -7.796741e-01 7.093478e-05 8.055914e-05 6.936144e-05
N -3.147163e+00 3.587357e+00 4.400454e+00 2.634979e-05 2.382605e-05 -5.949919e-05
N -3.138888e+00 3.583264e+00 -5.832518e+00 7.149397e-05 -1.177298e-04 4.231700e-05
N -3.224472e+00 3.591097e+00 -7.851920e-01 5.884718e-05 -1.574761e-04 -1.123995e-04
N -1.747661e-02 -1.865648e+00 4.286097e+00 1.330981e-04 -7.918983e-05 -2.648874e-04
N -6.728832e-02 -1.837148e+00 -5.883161e+00 3.690030e-05 -1.717030e-04 -7.795273e-05
N 1.873038e-02 -1.885333e+00 -7.095948e-01 1.260268e-04 -1.921732e-04 1.545229e-04
N 1.845440e-02 1.815448e+00 1.754596e+00 3.399387e-05 8.803879e-05 2.405477e-04
N -2.226597e-02 1.791139e+00 6.899078e+00 -1.312448e-04 -2.599224e-05 -3.625662e-05
N -2.001622e-02 1.780727e+00 -3.266587e+00 -1.856160e-04 -8.164972e-05 2.857363e-05
N 3.186638e+00 -3.675355e+00 1.840102e+00 -7.295588e-05 2.390233e-04 -9.214595e-05
N 3.190946e+00 -3.662169e+00 6.868214e+00 5.146269e-05 1.086837e-04 8.392396e-05
N 3.144110e+00 -3.740065e+00 -3.334884e+00 1.110717e-04 -3.522358e-05 -5.516637e-05
N 1.565556e+00 -9.489426e-01 1.796511e+00 -6.283209e-05 1.996941e-04 7.833677e-06
N 1.562828e+00 -9.525721e-01 6.950127e+00 7.980166e-05 1.565495e-04 -1.610902e-05
N 1.561157e+00 -9.016269e-01 -3.302491e+00 -1.070069e-04 3.109140e-04 1.337039e-05
N 3.143472e+00 1.779357e+00 1.792038e+00 5.713123e-05 1.272141e-05 1.433824e-04
N 3.145625e+00 1.790159e+00 6.937286e+00 5.901263e-04 -4.275652e-04 -1.383311e-04
N 3.136147e+00 1.734364e+00 -3.343360e+00 6.912811e-05 -1.938004e-05 -4.739201e-05
N 6.298012e+00 -3.687852e+00 1.847986e+00 -3.678325e-06 2.076927e-04 -1.436220e-04
N 6.309000e+00 -3.738231e+00 6.867064e+00 5.444907e-05 6.226912e-05 1.345540e-05
N 6.262925e+00 -3.675431e+00 -3.338802e+00 6.743389e-05 2.336199e-06 -2.384640e-04
N 4.728188e+00 -9.510261e-01 1.845656e+00 4.202895e-04 -1.659605e-04 1.497369e-04
N 4.682752e+00 -9.216726e-01 6.875120e+00 8.644520e-06 -1.702189e-04 -1.338396e-04
N 4.758307e+00 -9.222978e-01 -3.343744e+00 1.778573e-05 7.328180e-05 8.967682e-05
N -3.232040e+00 1.763429e+00 1.738327e+00 -1.268630e-04 -5.679047e-05 1.583476e-04
N -3.190975e+00 1.734065e+00 6.886550e+00 -4.795250e-05 1.564644e-05 -1.294587e-04
N -3.188108e+00 1.781814e+00 -3.319899e+00 5.588965e-05 -1.165342e-05 -1.065096e-05
N -5.861430e-02 -3.675702e+00 1.773549e+00 1.522915e-04 3.827283e-05 -8.768225e-05
N -6.821171e-02 -3.665361e+00 6.949230e+00 3.453767e-05 2.664853e-05 -7.120072e-05
N 1.479516e-02 -3.714560e+00 -3.293163e+00 1.445647e-04 -8.594126e-05 -1.786725e-05
N -1.617070e+00 -9.977166e-01 1.836726e+00 -4.248202e-05 9.273211e-05 -1.094048e-05
N -1.564414e+00 -9.268066e-01 6.928815e+00 1.444505e-04 1.453287e-04 -4.697021e-05
N -1.640539e+00 -9.214028e-01 -3.331753e+00 -3.304200e-05 -6.911847e-05 -7.810358e-05
