108
Energy=-1581051.197285 Lattice="9.533597 0.000000 0.000000 -4.779615 8.255629 0.000000 0.003836 0.002345 15.368263" Stress="-0.000011 -0.000004 0.000001 -0.000004 -0.000007 0.000001 0.000001 0.000001 -0.000024" Properties=species:S:1:pos:R:3:forces:R:3
Al 1.564021 0.867483 2.409324 -0.000654 -0.000232 -0.001563
Al 1.551744 0.868687 7.533167 0.000366 -0.000135 0.000981
Al 1.539673 0.879756 -2.694639 0.002576 -0.002813 -0.003657
Al -0.038234 3.617696 2.403616 -0.002546 -0.001660 -0.005051
Al -0.031883 3.610671 7.531896 -0.000115 -0.000084 0.000445
Al -0.051954 3.620098 -2.690078 0.003521 0.000060 -0.000156
Al 3.159500 -1.869992 2.356742 -0.005936 -0.003631 0.006060
Al 3.149020 -1.877617 7.540104 0.000094 -0.000042 0.000472
Ga 3.146782 -1.874939 -2.690339 -0.000196 0.000227 0.000778
Ga -4.793949 0.877886 2.395890 -0.000004 0.001350 0.000356
Ga -4.785178 0.885582 7.540726 0.001018 -0.000263 0.000026
Al -4.785037 0.879549 -2.690473 -0.000082 0.000162 0.000327
Ga -6.399192 3.620287 2.382001 0.000605 -0.000080 -0.000350
Ga -6.385570 3.623667 7.555464 0.000380 0.000273 -0.000244
Ga -6.392893 3.627801 -2.678102 0.000039 -0.000161 -0.000914
Ga -3.202119 -1.867123 2.379628 0.000727 -0.001045 0.000948
Ga -3.197664 -1.877337 7.533365 0.000282 0.000316 0.000500
Al -3.193978 -1.865448 -2.669321 -0.000067 -0.000209 0.000053
Al -1.602308 0.883838 2.418771 0.000123 0.000167 0.000187
Ga -1.603446 0.908388 7.528250 0.000602 -0.000833 0.001293
Al -1.618859 0.885307 -2.718771 0.000470 -0.000486 -0.000285
Al -3.178595 3.632017 2.401252 0.000521 0.000739 0.000257
Al -3.189116 3.624800 7.535643 -0.000093 -0.000553 0.000798
Al -3.197967 3.620930 -2.697617 -0.000380 -0.000208 0.000291
Ga -0.005037 -1.843896 2.403403 0.000684 -0.000698 0.000862
Ga 0.008844 -1.859412 7.523859 0.000171 -0.000385 0.000723
Al -0.015619 -1.854586 -2.691922 -0.000035 0.000047 0.000478
Al -0.023957 1.777205 4.943938 -0.000529 0.000115 0.000894
Al -0.025552 1.786301 -5.255242 0.000063 0.000427 0.000840
Ga -0.022053 1.789815 -0.156756 0.000023 -0.000411 0.003618
Ga 3.164252 -3.717234 4.968910 -0.001202 0.001746 0.000336
Ga 3.159148 -3.728868 -5.279840 -0.000270 0.000661 0.000422
Al 3.165026 -3.702704 -0.145461 0.000025 0.000046 0.001378
Al 1.575621 -0.942254 4.960066 0.000081 -0.000923 0.000772
Al 1.566956 -0.947143 -5.263460 -0.000615 0.000932 0.001558
Al 1.574249 -0.948999 -0.155311 -0.000685 0.000682 0.001109
Ga 3.137840 1.779219 4.979181 0.000135 0.000138 0.000550
Ga 3.136392 1.771187 -5.248197 -0.000236 0.000017 0.000152
Al 3.137290 1.773670 -0.165754 -0.000028 0.000052 0.001781
Ga 6.331154 -3.713927 4.969637 0.000384 0.000463 0.000512
Ga 6.319986 -3.718083 -5.238576 -0.000152 -0.000001 0.000774
Al 6.315273 -3.700405 -0.165733 0.000149 -0.000277 0.001529
Ga 4.743377 -0.958938 4.965944 -0.001672 -0.000065 0.000428
Ga 4.744364 -0.953052 -5.244410 -0.000759 0.000125 0.000543
Al 4.739570 -0.963548 -0.163447 -0.000018 0.000385 -0.000388
Al -3.182043 1.797145 4.948506 -0.000079 0.000163 0.000568
Al -3.198405 1.802297 -5.239088 -0.000165 0.000121 0.000834
Ga -3.203628 1.789756 -0.157634 0.000046 0.000330 0.000849
Ga 0.000995 -3.703258 4.965942 0.000155 0.000065 -0.000390
Ga 0.004017 -3.707975 -5.242161 -0.000261 0.000163 0.000121
Ga -0.011580 -3.693439 -0.154323 0.000092 -0.000024 -0.000084
Al -1.596832 -0.931695 4.959617 -0.000390 0.000129 0.000416
Ga -1.596721 -0.941265 -5.232255 -0.000624 -0.000043 0.000206
Al -1.611425 -0.950646 -0.177071 -0.000209 0.000033 0.001221
N 1.528570 0.850507 4.326024 -0.000437 -0.000013 -0.000835
N 1.511654 0.849444 -5.901746 -0.000521 -0.000250 -0.001174
N 1.592772 0.851236 -0.793100 0.000078 -0.000109 0.000249
N -0.028641 3.581868 4.313753 -0.000311 -0.001256 -0.001091
N -0.026511 3.570185 -5.917767 -0.000045 -0.000867 -0.000855
N -0.043415 3.669565 -0.777107 0.000507 -0.000036 -0.000038
N 3.115992 -1.856976 4.303525 0.000741 0.000326 -0.004367
N 3.115720 -1.852107 -5.902511 -0.000158 -0.000094 -0.000750
N 3.148981 -1.878811 -0.709801 0.000392 0.000460 0.000516
N -4.754140 0.902431 4.369084 0.001048 0.000048 -0.000595
N -4.748049 0.904125 -5.853103 0.000772 -0.000162 -0.000390
N -4.832540 0.856031 -0.772981 0.000133 -0.000393 -0.000167
N -6.383403 3.626269 4.349565 0.000029 -0.000076 -0.000531
N -6.385074 3.627611 -5.846548 0.000091 0.000071 -0.000086
N -6.429928 3.605542 -0.709130 -0.000484 0.000035 0.000523
N -3.153549 -1.850105 4.359757 0.001082 0.000306 -0.001042
N -3.190237 -1.873790 -5.869719 0.000202 0.000196 -0.000487
N -3.198916 -1.871765 -0.751111 -0.000120 0.000197 0.000682
N -1.612117 0.879031 4.348909 0.000703 -0.000109 -0.000831
N -1.619654 0.930112 -5.841076 0.000780 -0.000136 -0.000302
N -1.617758 0.842127 -0.814121 0.000938 -0.000751 -0.000499
N -3.198048 3.588585 4.310746 0.000577 -0.000924 -0.000775
N -3.211915 3.574260 -5.915755 0.000473 -0.000629 -0.000695
N -3.165011 3.652841 -0.791922 0.000666 -0.000203 -0.001037
N -0.013729 -1.817557 4.387859 -0.000102 0.000054 -0.000260
N 0.019308 -1.847992 -5.864979 0.000350 -0.000184 -0.000695
N -0.015599 -1.818352 -0.774746 0.000220 0.000386 -0.000433
N -0.015839 1.763093 1.836736 -0.002517 0.009372 0.000320
N 0.023853 1.813832 6.875705 -0.000211 0.000558 -0.000370
N -0.028118 1.800590 -3.318517 0.000192 0.000108 -0.000437
N 3.162628 -3.704849 1.778742 0.001989 -0.002664 0.001798
N 3.168041 -3.711478 6.970204 0.000304 0.000683 -0.000113
N 3.160317 -3.756150 -3.298630 -0.001178 0.000516 -0.000819
N 1.605657 -0.919602 1.757843 0.002367 -0.002640 0.000261
N 1.625651 -0.929802 6.886144 -0.000298 0.000567 -0.000683
N 1.529182 -0.933347 -3.341260 -0.000306 0.002116 0.000120
N 3.105371 1.763122 1.751254 0.001018 -0.000359 -0.001239
N 3.109954 1.767710 6.950820 -0.000703 -0.000269 -0.000325
N 3.147742 1.744327 -3.272969 -0.001460 -0.000850 0.000413
N 6.286977 -3.728644 1.749050 -0.000748 -0.000855 -0.000459
N 6.300021 -3.735988 6.938857 -0.000862 -0.000216 -0.000678
N 6.287930 -3.681475 -3.261625 -0.001356 -0.000617 0.000337
N 4.703960 -0.977737 1.750875 0.002737 0.002051 -0.002841
N 4.707159 -0.981708 6.939679 -0.001021 -0.000046 -0.000281
N 4.785859 -0.936720 -3.264497 -0.000161 0.000092 -0.000090
N -3.154994 1.817089 1.818774 0.000283 0.000001 0.000042
N -3.196628 1.844454 6.866536 -0.000298 0.000580 -0.001040
N -3.209753 1.799353 -3.309897 -0.000106 0.000190 -0.000315
N 0.029281 -3.722913 1.815333 0.000452 0.000026 -0.000061
N 0.030766 -3.732364 6.940984 0.000299 -0.000001 -0.000116
N 0.024279 -3.682032 -3.261439 0.000612 0.000263 0.000453
N -1.606722 -0.901286 1.746471 -0.000828 0.000052 -0.001883
N -1.600706 -0.945166 6.871093 -0.000775 0.000424 -0.000551
N -1.610748 -0.958403 -3.252166 -0.000357 0.000155 0.000355
