108
Energy=-894419.015433 Lattice="9.450191 0.000000 0.000000 -4.728283 8.181904 0.000000 -0.004054 -0.002411 15.203890" Stress="0.000002 -0.000001 -0.000001 -0.000001 -0.000001 -0.000001 -0.000001 -0.000001 0.000004" Properties=species:S:1:pos:R:3:forces:R:3
Al 1.562209 0.883108 2.382911 -0.000032 0.000001 -0.000131
Al 1.565062 0.871246 7.453110 -0.000125 0.000183 -0.000011
Al 1.552009 0.882847 -2.675826 0.000014 -0.000075 -0.000073
Al -0.018480 3.603620 2.372233 0.000124 -0.000073 0.000218
Al -0.026223 3.606934 7.452545 0.000001 0.000022 -0.000044
Al -0.033092 3.586797 -2.670655 0.000026 0.000029 -0.000008
Al 3.147941 -1.857774 2.403496 -0.000098 0.000060 -0.000028
Al 3.136389 -1.859083 7.447594 0.000054 0.000030 -0.000009
Al 3.138173 -1.857545 -2.697439 -0.000113 0.000032 -0.000130
Al -4.754395 0.864134 2.382115 0.000032 0.000034 0.000041
Al -4.754928 0.866260 7.437266 -0.000009 -0.000039 -0.000012
Al -4.748182 0.871490 -2.670791 -0.000044 0.000119 -0.000001
Al -6.338712 3.586215 2.388027 -0.000026 -0.000048 0.000088
Al -6.330261 3.588279 7.427072 -0.000018 0.000048 -0.000033
Al -6.318177 3.584556 -2.657398 0.000046 0.000083 0.000006
Al -3.183474 -1.859712 2.378904 -0.000036 -0.000039 0.000099
Al -3.190020 -1.862490 7.439530 -0.000028 -0.000019 -0.000042
Ga -3.186291 -1.849615 -2.658684 0.000008 0.000007 0.000002
Al -1.605360 0.871313 2.377369 0.000074 -0.000040 -0.000024
Ga -1.612447 0.877009 7.469591 0.000145 -0.000012 0.000035
Al -1.596059 0.887559 -2.685073 -0.000009 -0.000013 0.000021
Ga -3.164691 3.589272 2.385042 0.000033 -0.000008 0.000016
Al -3.175950 3.592948 7.451154 0.000040 -0.000046 -0.000003
Al -3.168681 3.591749 -2.681864 -0.000015 0.000018 -0.000085
Ga -0.030229 -1.853763 2.402455 0.000027 -0.000038 -0.000013
Ga -0.019157 -1.865143 7.455237 0.000068 0.000009 -0.000018
Ga -0.016665 -1.860197 -2.687129 0.000064 -0.000066 -0.000004
Ga -0.022062 1.781289 4.907537 -0.000058 0.000047 0.000024
Al -0.028284 1.777154 -5.207349 0.000008 0.000163 -0.000012
Al -0.029604 1.785765 -0.145108 -0.000084 0.000037 -0.000030
Al 3.129275 -3.667368 4.931323 -0.000045 -0.000029 0.000056
Al 3.121353 -3.675650 -5.221874 -0.000027 0.000084 -0.000012
Al 3.137438 -3.676862 -0.162163 -0.000030 -0.000051 -0.000065
Al 1.567837 -0.950152 4.917637 0.000086 -0.000002 0.000070
Al 1.561659 -0.948610 -5.214467 0.000105 -0.000054 0.000030
Ga 1.568014 -0.945766 -0.144118 -0.000133 0.000019 0.000011
Al 3.134588 1.776810 4.915954 -0.000010 -0.000012 -0.000036
Ga 3.135615 1.773097 -5.212653 0.000036 0.000047 0.000041
Al 3.133367 1.786747 -0.148896 -0.000036 -0.000065 -0.000035
Al 6.278765 -3.667984 4.910868 0.000043 -0.000006 0.000010
Ga 6.277657 -3.671243 -5.219532 0.000009 0.000002 0.000029
Al 6.280522 -3.683069 -0.137890 -0.000041 -0.000100 0.000020
Al 4.703239 -0.949415 4.911014 -0.000048 -0.000000 -0.000027
Al 4.702346 -0.942933 -5.233352 -0.000091 -0.000104 0.000014
Al 4.703313 -0.945060 -0.128691 -0.000125 -0.000001 0.000026
Al -3.187334 1.775570 4.916767 0.000052 -0.000057 -0.000166
Al -3.172329 1.783930 -5.202898 -0.000021 0.000021 0.000009
Al -3.172835 1.774709 -0.163247 -0.000003 0.000004 -0.000036
Al -0.025454 -3.685633 4.927623 -0.000055 0.000036 0.000026
Al -0.007895 -3.682379 -5.218778 0.000013 -0.000042 0.000093
Al -0.026710 -3.691291 -0.148888 0.000004 0.000061 0.000021
Al -1.614134 -0.953888 4.909152 -0.000067 0.000102 -0.000096
Al -1.601350 -0.939977 -5.212874 0.000270 -0.000037 -0.000019
Al -1.608318 -0.936077 -0.133417 0.000032 -0.000009 -0.000090
N 1.595654 0.849234 4.291385 -0.000034 0.000090 0.000031
N 1.513628 0.848217 -5.835941 0.000050 0.000098 -0.000065
N 1.549115 0.921089 -0.763134 0.000147 0.000013 0.000038
N -0.028651 3.649036 4.288438 0.000030 0.000033 -0.000273
N -0.065841 3.575839 -5.837963 0.000028 -0.000126 0.000060
N -0.023563 3.594659 -0.749827 0.000024 -0.000035 0.000052
N 3.132348 -1.863301 4.319622 -0.000006 -0.000016 -0.000030
N 3.130390 -1.858546 -5.830307 0.000014 -0.000018 0.000011
N 3.177299 -1.879031 -0.784835 0.000027 0.000046 -0.000024
N -4.750974 0.868643 4.305972 0.000061 0.000011 -0.000031
N -4.702511 0.850796 -5.850732 0.000086 0.000159 0.000047
N -4.748512 0.864414 -0.749864 -0.000009 -0.000019 0.000044
N -6.327905 3.594632 4.313387 0.000006 0.000003 0.000014
N -6.282918 3.619311 -5.870817 0.000004 -0.000010 -0.000020
N -6.324142 3.597535 -0.745814 -0.000035 -0.000012 0.000056
N -3.177486 -1.860168 4.301227 -0.000010 0.000058 -0.000014
N -3.171875 -1.809950 -5.848171 -0.000012 -0.000048 -0.000088
N -3.175704 -1.855918 -0.683413 0.000038 0.000027 -0.000109
N -1.643534 0.849412 4.290658 0.000048 -0.000118 0.000107
N -1.600989 0.875326 -5.761066 -0.000105 0.000009 -0.000007
N -1.594712 0.872358 -0.760519 0.000053 -0.000099 0.000033
N -3.170783 3.597924 4.362034 0.000062 0.000064 -0.000034
N -3.171002 3.594545 -5.825761 0.000022 -0.000103 0.000028
N -3.171701 3.598970 -0.756361 0.000011 -0.000064 0.000019
N -0.022540 -1.859292 4.380392 -0.000017 -0.000019 -0.000053
N -0.019427 -1.857362 -5.762107 -0.000217 0.000032 -0.000060
N -0.063110 -1.878791 -0.712678 0.000005 -0.000180 0.000015
N -0.025027 1.778662 1.783401 -0.000019 0.000052 0.000049
N 0.014644 1.800804 6.877300 0.000076 -0.000002 0.000031
N -0.019781 1.782561 -3.285545 -0.000031 0.000051 0.000038
N 3.169636 -3.647741 1.751926 -0.000092 0.000115 0.000088
N 3.127170 -3.676253 6.852153 -0.000070 0.000063 -0.000002
N 3.130324 -3.677589 -3.292995 -0.000027 0.000030 0.000035
N 1.600049 -0.927664 1.824972 0.000096 -0.000033 0.000039
N 1.596686 -0.924998 6.832679 -0.000008 -0.000143 -0.000074
N 1.598900 -0.919133 -3.298515 0.000061 0.000043 0.000174
N 3.130002 1.780307 1.773621 -0.000006 -0.000040 -0.000016
N 3.124774 1.773895 6.838207 -0.000013 -0.000021 -0.000040
N 3.130660 1.779877 -3.233747 0.000004 -0.000168 0.000042
N 6.281658 -3.679445 1.781887 -0.000018 0.000003 0.000014
N 6.272949 -3.676392 6.838078 -0.000003 0.000019 0.000012
N 6.280859 -3.723195 -3.243862 -0.000119 -0.000002 -0.000016
N 4.697567 -0.946959 1.789014 -0.000057 -0.000004 0.000029
N 4.699179 -0.949776 6.834135 -0.000064 -0.000017 -0.000035
N 4.665949 -0.918972 -3.318654 -0.000017 -0.000107 -0.000025
N -3.177384 1.730995 1.750921 -0.000041 0.000006 -0.000017
N -3.217111 1.799704 6.825832 0.000046 0.000154 0.000108
N -3.177897 1.780946 -3.277733 -0.000015 -0.000025 0.000044
N -0.062728 -3.703775 1.756054 0.000029 0.000019 -0.000118
N -0.021593 -3.726050 6.832563 -0.000015 -0.000025 0.000043
N -0.021770 -3.731343 -3.302775 0.000059 -0.000037 -0.000012
N -1.639191 -0.923545 1.773788 0.000052 0.000086 0.000073
N -1.642574 -0.969150 6.814757 -0.000039 0.000024 0.000018
N -1.604494 -0.901147 -3.311281 -0.000027 -0.000035 0.000055
