108
Energy=-2450779.868192 Lattice="9.484105 0.000000 0.000000 -4.743307 8.210335 0.000000 -0.000575 -0.000196 15.284498" Stress="-0.000444 0.000037 -0.000000 0.000037 -0.000408 -0.000001 -0.000000 -0.000001 -0.000430" Properties=species:S:1:pos:R:3:forces:R:3
Al 1.564751 0.901622 2.469964 -0.001401 -0.014075 -0.009170
Al 1.564645 0.901846 7.502785 -0.001281 -0.014271 -0.002947
Ga 1.564834 0.901874 -2.749783 -0.001615 -0.017832 -0.004454
Al -0.001210 3.613270 2.475834 -0.004247 -0.001036 -0.008675
Ga -0.001478 3.613127 7.502990 -0.002966 -0.001727 -0.001466
Ga -0.000570 3.613289 -2.752239 -0.002741 -0.001481 -0.001017
Al 3.175273 -1.883525 2.475700 -0.003216 0.000188 -0.009729
Ga 3.175026 -1.884221 7.503028 -0.003418 0.001901 -0.002498
Ga 3.175381 -1.883879 -2.752367 -0.003319 0.002506 -0.002263
Al -4.788003 0.901602 2.470500 0.001194 -0.012815 -0.007708
Ga -4.788097 0.902267 7.503529 0.000625 -0.016470 -0.002978
Ga -4.786931 0.902581 -2.749647 0.000557 -0.016351 -0.003503
Ga -6.353762 3.613532 2.469796 -0.000739 -0.000622 -0.006589
Ga -6.353732 3.613368 7.503014 -0.000053 -0.000024 0.000002
Ga -6.352842 3.614290 -2.749610 0.000159 0.000037 -0.000280
Ga -3.177466 -1.884364 2.469481 -0.001123 0.002837 -0.008013
Ga -3.176135 -1.884123 7.503435 -0.000663 0.003166 -0.000831
Ga -3.175315 -1.884173 -2.749823 0.000116 0.003534 -0.001373
Ga -1.655196 0.902745 2.470097 0.015958 -0.008252 -0.012761
Ga -1.654787 0.901974 7.503486 0.015960 -0.008556 -0.006299
Ga -1.654145 0.902436 -2.749873 0.015846 -0.009237 -0.006535
Ga -3.222521 3.613963 2.475467 0.015957 0.007792 -0.010433
Ga -3.221604 3.614320 7.502799 0.014604 0.007680 -0.003776
Ga -3.221387 3.614571 -2.751988 0.014161 0.007611 -0.003305
Ga -0.044010 -1.884178 2.469743 0.015008 0.010865 -0.010481
Ga -0.044622 -1.883512 7.502811 0.015017 0.010372 -0.004538
Al -0.043707 -1.883650 -2.750849 0.011476 0.008337 -0.003727
Ga -0.001064 1.804835 4.987352 -0.014630 -0.010576 -0.005289
Ga -0.000516 1.805040 -5.266611 -0.014160 -0.010881 -0.004730
Ga -0.001538 1.806583 -0.230836 -0.014160 -0.010247 0.036596
Ga 3.175142 -3.692725 4.988173 -0.014812 -0.007676 -0.005760
Ga 3.176001 -3.692755 -5.266812 -0.014769 -0.007596 -0.003606
Al 3.176098 -3.692655 -0.249337 -0.011868 -0.005282 0.033889
Ga 1.608929 -0.980836 4.987644 -0.016045 0.008547 -0.007550
Ga 1.609313 -0.980564 -5.266335 -0.015513 0.009350 -0.006736
Ga 1.610172 -0.982316 -0.231087 -0.015451 0.009077 0.033909
Ga 3.130537 1.805715 4.986592 0.000607 -0.002913 -0.002186
Al 3.131103 1.805898 -5.266634 0.000045 -0.003353 -0.001815
Ga 3.131237 1.805881 -0.229334 0.000231 -0.003476 0.039531
Ga 6.308373 -3.692486 4.987650 0.000485 -0.000277 -0.000918
Ga 6.308848 -3.692455 -5.266039 0.000441 0.000056 -0.000226
Ga 6.307105 -3.692397 -0.230791 -0.000195 -0.000604 0.040968
Ga 4.741572 -0.980452 4.987613 -0.000750 0.016513 -0.004306
Ga 4.742277 -0.980168 -5.265901 -0.000501 0.016591 -0.003551
Ga 4.741470 -0.981801 -0.230587 -0.001393 0.016357 0.037598
Ga -3.221748 1.805957 4.987578 0.002966 -0.001653 -0.003119
Ga -3.220796 1.805938 -5.266301 0.003095 -0.002015 -0.002411
Ga -3.219657 1.807373 -0.231408 0.002903 -0.001818 0.038890
Al -0.044511 -3.692175 4.987511 0.002913 0.001229 -0.001881
Ga -0.043976 -3.691689 -5.266131 0.002701 0.001191 -0.001004
Ga -0.042076 -3.691447 -0.231865 0.002911 0.001204 0.039357
Ga -1.610194 -0.980842 4.986922 0.002285 0.017635 -0.005019
Al -1.609354 -0.980307 -5.266089 0.000999 0.014300 -0.002760
Ga -1.609141 -0.980438 -0.229763 0.002223 0.017607 0.035652
N 1.564455 0.901806 4.388075 -0.001174 -0.017060 -0.017309
N 1.566288 0.902770 -5.864441 0.017169 -0.006180 -0.010809
N 1.564829 0.901968 -0.829211 -0.001252 -0.016930 0.006876
N -0.000916 3.613109 4.391072 -0.001962 0.000197 -0.020725
N -0.001048 3.613665 -5.863377 -0.002224 0.000192 0.000575
N -0.001749 3.614099 -0.834615 -0.019634 0.010345 0.010728
N 3.175133 -1.883634 4.391066 -0.002613 0.001924 -0.021448
N 3.175703 -1.884391 -5.863246 -0.002790 0.001687 0.000233
N 3.175766 -1.885288 -0.834680 -0.002351 -0.018722 0.010628
N -4.787619 0.902121 4.388671 0.000531 -0.016890 -0.017661
N -4.788212 0.903155 -5.862644 -0.017718 -0.006303 0.011822
N -4.786613 0.902406 -0.829174 0.000639 -0.016818 0.007008
N -6.352281 3.614597 4.390089 0.017778 0.011179 0.008559
N -6.352867 3.612668 -5.862781 -0.000383 -0.020778 0.008068
N -6.352894 3.614319 -0.828981 -0.000677 0.000410 0.003880
N -3.176557 -1.884377 4.389505 -0.001130 0.002144 0.000550
N -3.174421 -1.883409 -5.862482 0.016953 0.012153 0.007977
N -3.175765 -1.884269 -0.829299 -0.001178 0.002075 0.003156
N -1.655183 0.902434 4.389659 0.015866 -0.009367 0.008829
N -1.654462 0.900882 -5.862684 0.016058 -0.026095 0.014241
N -1.654301 0.902741 -0.829866 0.015827 -0.009176 0.010482
N -3.223824 3.614681 4.392814 -0.003274 0.018709 0.012810
N -3.220999 3.614597 -5.863405 0.014712 0.008201 0.004580
N -3.219794 3.615103 -0.834468 0.029774 0.016061 0.013508
N -0.044465 -1.885595 4.389995 0.013928 -0.011351 0.011808
N -0.045226 -1.883030 -5.863148 -0.003607 0.019727 0.012025
N -0.043626 -1.883774 -0.831774 0.013828 0.009442 -0.015672
N -0.000357 1.807076 1.873994 0.004233 0.000500 -0.017923
N -0.000076 1.804311 6.906437 0.003461 -0.019948 0.011534
N -0.000630 1.805213 -3.348113 -0.014550 -0.009471 0.004193
N 3.176676 -3.692133 1.890610 0.003339 0.002708 -0.033699
N 3.175466 -3.692882 6.906217 -0.014549 -0.008000 0.004546
N 3.176074 -3.692756 -3.349120 -0.014752 -0.008231 0.005364
N 1.611151 -0.980862 1.873998 0.001548 0.016281 -0.015356
N 1.609065 -0.979288 6.906459 -0.016301 0.026306 0.014116
N 1.608247 -0.981318 -3.347809 -0.030906 0.000595 0.014179
N 3.130680 1.803870 1.872990 0.001232 -0.022469 -0.021742
N 3.129267 1.804924 6.905844 -0.017200 -0.012398 0.008014
N 3.131108 1.805985 -3.348697 0.000925 -0.001855 -0.021999
N 6.305137 -3.693751 1.873385 -0.016844 -0.010811 -0.028781
N 6.307899 -3.692534 6.906291 0.000468 -0.000015 0.000933
N 6.308712 -3.692423 -3.347689 0.000149 -0.000332 0.001002
N 4.739079 -0.980305 1.874139 -0.018789 0.023991 -0.019518
N 4.741570 -0.980555 6.906305 -0.000216 0.016790 0.004411
N 4.742284 -0.980267 -3.347741 -0.000378 0.016378 0.004932
N -3.222646 1.805910 1.873479 -0.015719 -0.012211 -0.029672
N -3.221322 1.805797 6.906274 0.002939 -0.002141 0.000431
N -3.220626 1.806108 -3.347840 0.003217 -0.001499 0.000384
N -0.043528 -3.692449 1.871516 0.001842 -0.000013 -0.036411
N -0.044408 -3.692134 6.904714 0.001932 0.000193 -0.021593
N -0.043827 -3.690511 -3.347468 0.002247 0.020878 0.008269
N -1.610372 -0.980548 1.870045 0.001161 0.016934 -0.032299
N -1.610302 -0.980475 6.905578 0.000987 0.017214 0.004390
N -1.608249 -0.981013 -3.348356 0.019017 0.006484 -0.010604
