108
Energy=-2.405010e+06 Lattice="9.637802e+00 0.000000e+00 0.000000e+00 -4.818652e+00 8.345607e+00 0.000000e+00 -8.186908e-07 8.591729e-04 1.563584e+01" Stress="2.096953e-06 5.449615e-06 -5.922402e-06 6.485429e-06 3.607494e-06 2.631258e-06 4.888228e-06 6.311091e-07 9.809087e-07" Properties=species:S:1:pos:R:3:forces:R:3 Config_type=AlGaN_super3_43_1_15.xyz
Al 1.583858e+00 8.863763e-01 2.469155e+00 -3.439949e-06 7.511638e-06 -8.161951e-06
Al 1.576902e+00 8.899383e-01 7.680798e+00 -1.281796e-05 3.405440e-06 -4.680385e-06
Ga 1.576474e+00 8.931490e-01 -2.772824e+00 -7.010511e-06 -3.713863e-06 1.850654e-05
Ga -2.573551e-02 3.664724e+00 2.449476e+00 -3.392950e-06 5.463589e-07 1.785575e-05
Al -1.650774e-02 3.654250e+00 7.682169e+00 -5.736414e-06 -3.940092e-06 -8.177687e-07
Ga -2.821202e-02 3.659001e+00 -2.750518e+00 -4.599626e-06 2.880877e-06 -6.902942e-06
Ga 3.188731e+00 -1.890866e+00 2.448483e+00 -9.058699e-06 5.164664e-06 -2.620818e-07
Ga 3.183540e+00 -1.883811e+00 7.668359e+00 -3.485429e-06 -5.142439e-07 -7.934064e-06
Ga 3.193574e+00 -1.897005e+00 -2.739184e+00 8.738995e-06 2.008402e-06 2.914872e-05
Ga -4.847945e+00 8.849313e-01 2.460757e+00 -5.581484e-06 1.566757e-06 7.240634e-06
Al -4.844296e+00 8.907057e-01 7.658090e+00 -3.956924e-06 1.425881e-06 1.301853e-05
Ga -4.845671e+00 8.834383e-01 -2.738449e+00 -1.151403e-06 2.033706e-06 -3.328540e-06
Ga -6.454166e+00 3.658524e+00 2.472780e+00 -4.249721e-06 4.595405e-06 5.596508e-06
Ga -6.448520e+00 3.665636e+00 7.678641e+00 -4.727109e-07 -7.224417e-06 3.927567e-06
Ga -6.438374e+00 3.669149e+00 -2.772938e+00 -2.114515e-06 2.631160e-06 1.762666e-06
Ga -3.233544e+00 -1.886738e+00 2.445197e+00 -4.826659e-07 8.388099e-07 -1.235827e-05
Ga -3.238014e+00 -1.894456e+00 7.673753e+00 3.599094e-06 1.103493e-05 -7.537179e-07
Ga -3.234795e+00 -1.886699e+00 -2.739938e+00 -4.128785e-07 1.664085e-06 5.538046e-06
Ga -1.624357e+00 8.830368e-01 2.472228e+00 -6.598600e-06 5.876125e-06 2.732224e-06
Ga -1.621542e+00 8.965899e-01 7.666931e+00 -1.030105e-05 -3.139082e-06 5.754496e-06
Ga -1.617541e+00 8.879678e-01 -2.762070e+00 7.589466e-06 1.406991e-05 -6.931776e-06
Ga -3.227194e+00 3.667126e+00 2.470725e+00 -4.267274e-06 -1.531972e-06 7.024184e-06
Ga -3.241454e+00 3.664502e+00 7.673161e+00 -6.356701e-06 2.854745e-06 -3.800296e-06
Ga -3.238370e+00 3.677656e+00 -2.760853e+00 -8.108049e-06 -8.694885e-07 6.251877e-06
Ga -2.436871e-02 -1.879500e+00 2.449346e+00 -9.277117e-06 -1.834950e-06 -3.414272e-06
Al -1.715428e-02 -1.890450e+00 7.681593e+00 -5.721704e-06 4.475197e-06 -4.935830e-07
Ga -2.612322e-02 -1.899195e+00 -2.749812e+00 -1.615004e-06 1.879652e-06 -5.267922e-06
Ga -2.043027e-02 1.815342e+00 5.075961e+00 -1.286542e-05 3.631697e-06 3.878601e-06
Al -1.795785e-02 1.819100e+00 -5.387369e+00 9.039004e-06 7.874605e-07 -2.043802e-06
Ga -2.862977e-02 1.808183e+00 -1.306671e-01 3.595958e-06 -4.772912e-06 4.053437e-06
Ga 3.190084e+00 -3.760407e+00 5.085910e+00 1.625909e-06 -1.607495e-07 -2.989516e-07
Ga 3.191773e+00 -3.761590e+00 -5.375169e+00 -3.529504e-06 1.157396e-06 7.530248e-06
Al 3.191310e+00 -3.742423e+00 -1.482700e-01 5.237102e-06 -8.700595e-06 1.168475e-05
Ga 1.576096e+00 -9.572691e-01 5.080045e+00 1.654184e-05 -6.874464e-06 5.399049e-06
Ga 1.568025e+00 -9.669079e-01 -5.376850e+00 1.213799e-05 -8.512804e-06 4.579682e-06
Ga 1.588453e+00 -9.686390e-01 -1.422103e-01 1.103588e-05 -3.826226e-06 4.319145e-06
Ga 3.191668e+00 1.802931e+00 5.085822e+00 -1.421699e-05 1.014976e-06 3.885982e-06
Ga 3.189459e+00 1.812645e+00 -5.390228e+00 -1.926615e-05 4.365152e-06 1.695307e-05
Ga 3.187868e+00 1.805174e+00 -1.352929e-01 1.017072e-06 5.940788e-06 9.924475e-06
Ga 6.394503e+00 -3.750255e+00 5.080490e+00 6.085113e-07 5.978887e-06 2.514845e-05
Ga 6.398388e+00 -3.760726e+00 -5.364772e+00 3.797926e-07 -7.980619e-07 4.075483e-06
Ga 6.395280e+00 -3.734899e+00 -1.547562e-01 3.140519e-06 2.381448e-06 5.752424e-06
Ga 4.800837e+00 -9.546393e-01 5.073259e+00 7.437878e-06 -3.182914e-06 4.835804e-06
Ga 4.795523e+00 -9.582345e-01 -5.367517e+00 5.372670e-06 -2.206161e-07 8.191956e-06
Al 4.800054e+00 -9.752766e-01 -1.432249e-01 4.194400e-06 4.868918e-06 1.598533e-06
Al -3.240113e+00 1.812235e+00 5.078538e+00 -4.674001e-06 4.196960e-06 -3.005588e-06
Ga -3.238661e+00 1.817467e+00 -5.366306e+00 -2.346243e-06 -6.515373e-06 -4.976214e-06
Ga -3.228304e+00 1.809077e+00 -1.528399e-01 1.730156e-06 -3.005337e-06 -6.833689e-07
Ga -1.717340e-02 -3.748961e+00 5.075445e+00 -1.130266e-05 1.514255e-05 6.804266e-06
Al -2.139443e-02 -3.740190e+00 -5.373823e+00 7.367428e-06 1.715469e-07 4.357572e-07
Ga -1.701364e-02 -3.744295e+00 -1.404644e-01 3.169442e-06 4.456038e-06 8.823772e-06
Ga -1.629068e+00 -9.614850e-01 5.085674e+00 6.010526e-06 3.193564e-06 -9.824636e-06
Ga -1.614514e+00 -9.703666e-01 -5.376528e+00 7.374313e-06 -1.079893e-05 1.211965e-05
Al -1.638405e+00 -9.634949e-01 -1.495619e-01 7.326734e-06 2.187432e-06 2.755365e-06
N 1.584184e+00 8.880578e-01 4.388784e+00 8.131527e-06 -3.415032e-06 -1.145151e-06
N 1.540316e+00 9.093481e-01 -6.032550e+00 2.278279e-07 -7.282366e-07 -2.440415e-05
N 1.579180e+00 8.897367e-01 -7.969442e-01 1.685264e-06 1.487023e-06 4.693917e-06
N -2.612307e-02 3.669503e+00 4.424322e+00 5.484827e-06 -3.701390e-07 -1.655838e-05
N -2.123501e-02 3.620066e+00 -6.032795e+00 2.891810e-07 -2.781965e-06 2.355657e-06
N -6.676904e-02 3.684837e+00 -7.632126e-01 -3.391915e-06 1.178439e-06 -1.141210e-07
N 3.188153e+00 -1.896339e+00 4.439348e+00 -1.326821e-05 6.798723e-06 -6.033829e-06
N 3.188303e+00 -1.893955e+00 -5.996279e+00 -1.449642e-06 5.591658e-06 -2.227161e-05
N 3.232333e+00 -1.918287e+00 -7.423291e-01 -1.430255e-05 -5.295947e-07 -1.344309e-05
N -4.801433e+00 9.132557e-01 4.446138e+00 6.064071e-06 -6.702793e-06 -1.699834e-05
N -4.836020e+00 8.880884e-01 -6.061244e+00 7.365558e-06 -6.677867e-06 -4.901442e-06
N -4.844670e+00 8.383230e-01 -7.561317e-01 -4.279229e-06 9.528273e-07 2.237862e-06
N -6.449647e+00 3.665026e+00 4.453323e+00 5.071189e-06 -5.789378e-06 4.129955e-06
N -6.405504e+00 3.695249e+00 -5.976262e+00 1.642102e-06 1.593991e-06 -2.729292e-06
N -6.443747e+00 3.666810e+00 -7.893183e-01 1.921025e-06 -2.778174e-06 -7.153023e-07
N -3.233396e+00 -1.891775e+00 4.430538e+00 -4.083863e-06 -5.164858e-06 6.116213e-06
N -3.236287e+00 -1.896359e+00 -5.992181e+00 -6.282317e-06 -1.094536e-06 -5.754628e-06
N -3.235676e+00 -1.842082e+00 -7.480498e-01 -5.604116e-06 -1.004378e-07 -1.223667e-06
N -1.670538e+00 9.111383e-01 4.464818e+00 2.537459e-06 -2.434583e-06 5.640092e-07
N -1.590668e+00 9.148705e-01 -5.984650e+00 -5.983913e-06 3.145361e-06 -2.684734e-06
N -1.622874e+00 8.414945e-01 -7.752539e-01 -8.518741e-06 1.174402e-06 6.258418e-06
N -3.231762e+00 3.620867e+00 4.460434e+00 1.800477e-06 -1.439463e-06 -2.650104e-06
N -3.279114e+00 3.689916e+00 -5.981600e+00 -1.012721e-06 1.768810e-06 2.912780e-06
N -3.194871e+00 3.696215e+00 -7.729075e-01 -2.722388e-06 2.868126e-06 7.709461e-07
N -2.556809e-02 -1.889983e+00 4.426400e+00 -2.113541e-06 6.885725e-06 2.352541e-06
N -2.156996e-02 -1.943897e+00 -6.035179e+00 -7.914634e-06 6.115567e-06 -4.030422e-06
N -6.476702e-02 -1.871207e+00 -7.628491e-01 -2.631947e-06 -1.107802e-06 -2.234704e-06
N 1.820327e-02 1.785631e+00 1.852410e+00 1.252565e-06 -1.216591e-06 1.903601e-06
N 2.392075e-02 1.838877e+00 7.064276e+00 7.277488e-06 -1.998193e-06 -3.516537e-06
N -2.222834e-02 1.818768e+00 -3.461379e+00 -1.074208e-05 -1.214178e-05 -6.498336e-07
N 3.185691e+00 -3.749367e+00 1.773031e+00 1.024769e-05 -6.595155e-08 -1.305732e-05
N 3.233643e+00 -3.776263e+00 7.068992e+00 6.089165e-06 -6.377684e-06 2.843635e-06
N 3.193450e+00 -3.748756e+00 -3.397463e+00 3.802854e-06 1.342178e-06 -9.875768e-06
N 1.584957e+00 -9.154161e-01 1.841704e+00 -4.148990e-06 -1.379321e-08 1.120971e-05
N 1.536775e+00 -9.363318e-01 7.075286e+00 -5.428303e-07 -1.406938e-06 -3.851377e-07
N 1.582808e+00 -9.710285e-01 -3.391643e+00 3.594802e-06 2.545111e-06 -1.660571e-06
N 3.145553e+00 1.788783e+00 1.849399e+00 7.468369e-06 -6.127565e-06 -7.626398e-06
N 3.183725e+00 1.763244e+00 7.080018e+00 1.121442e-05 1.678455e-07 6.032190e-06
N 3.193714e+00 1.808867e+00 -3.408284e+00 4.372786e-06 -1.094644e-06 -5.080183e-06
N 6.404112e+00 -3.749476e+00 1.821705e+00 -3.204755e-06 -8.195205e-06 -2.263329e-05
N 6.358312e+00 -3.774781e+00 7.063095e+00 4.033777e-06 -3.979133e-06 3.314263e-06
N 6.396749e+00 -3.747921e+00 -3.381337e+00 3.538482e-06 1.326559e-07 -1.990809e-06
N 4.794806e+00 -9.658066e-01 1.775729e+00 6.391892e-06 -7.023949e-06 -6.320178e-06
N 4.795714e+00 -9.187636e-01 7.050975e+00 2.143519e-06 4.165651e-06 -2.579186e-06
N 4.795081e+00 -9.651918e-01 -3.389653e+00 -1.482977e-06 -1.644118e-06 -4.847405e-06
N -3.233172e+00 1.813779e+00 1.824205e+00 9.262297e-06 -1.924240e-06 -8.418824e-06
N -3.277117e+00 1.791467e+00 7.004429e+00 1.101191e-05 3.968157e-07 -4.979556e-06
N -3.239125e+00 1.812525e+00 -3.383540e+00 7.934100e-06 -6.099291e-07 -1.624266e-06
N -2.255579e-02 -3.751696e+00 1.837482e+00 4.928821e-06 -2.247264e-06 -1.193971e-05
N -2.311196e-02 -3.697456e+00 7.053516e+00 5.198469e-06 -4.766371e-06 1.102435e-06
N -2.000999e-02 -3.742454e+00 -3.449690e+00 5.344492e-07 2.492020e-06 -4.927962e-06
N -1.629806e+00 -9.606881e-01 1.769962e+00 -3.140516e-07 1.134657e-06 -6.884076e-06
N -1.585988e+00 -9.897992e-01 7.066600e+00 5.874699e-06 -4.040928e-06 -4.466425e-08
N -1.626852e+00 -9.692875e-01 -3.399033e+00 -2.580209e-07 -1.749907e-06 -3.030978e-06
