108
Energy=-528215.320868 Lattice="9.407463 0.000000 0.000000 -4.704007 8.147590 0.000000 -0.000127 0.000906 15.079993" Stress="0.000001 -0.000000 -0.000000 -0.000000 0.000001 0.000000 -0.000000 0.000000 0.000002" Properties=species:S:1:pos:R:3:forces:R:3
Al 1.545621 0.866432 2.366179 -0.000001 0.000010 0.000005
Al 1.543505 0.867775 7.390656 0.000005 0.000014 0.000032
Al 1.546571 0.865405 -2.668728 0.000015 0.000010 0.000050
Al -0.022531 3.582745 2.366148 0.000004 -0.000006 -0.000007
Al -0.022622 3.580562 7.390727 -0.000002 -0.000008 0.000019
Al -0.022486 3.583285 -2.668754 -0.000004 0.000010 0.000059
Al 3.106051 -1.853642 2.380470 -0.000031 -0.000011 0.000029
Al 3.114700 -1.848403 7.389845 -0.000008 0.000004 0.000027
Al 3.108255 -1.852861 -2.679270 -0.000009 -0.000001 0.000063
Al -4.726331 0.875068 2.380381 -0.000018 -0.000032 0.000020
Al -4.726384 0.865420 7.389855 0.000011 0.000014 0.000028
Al -4.726305 0.872330 -2.679121 0.000025 -0.000007 0.000044
Al -6.301233 3.578449 2.380646 -0.000062 -0.000024 -0.000003
Al -6.293517 3.583156 7.389926 0.000003 -0.000000 0.000022
Al -6.299683 3.578866 -2.679112 0.000024 0.000007 0.000082
Al -3.150798 -1.853584 2.380523 -0.000055 0.000009 -0.000006
Al -3.159433 -1.848304 7.389876 0.000004 0.000003 0.000022
Al -3.152790 -1.852785 -2.679346 0.000015 0.000004 0.000084
Al -1.590766 0.866543 2.366040 0.000016 -0.000005 0.000028
Al -1.588821 0.867951 7.390662 0.000008 -0.000000 0.000034
Al -1.591634 0.865568 -2.668728 -0.000004 -0.000006 0.000056
Al -3.151438 3.578467 2.380551 0.000007 0.000002 -0.000000
Al -3.159287 3.583243 7.389871 -0.000008 -0.000016 0.000032
Al -3.152866 3.578955 -2.678978 -0.000033 -0.000016 0.000021
Al -0.022430 -1.841165 2.380490 -0.000000 0.000088 0.000055
Al -0.022419 -1.849824 7.389853 -0.000007 -0.000014 0.000031
Al -0.022275 -1.843252 -2.678765 -0.000020 -0.000037 -0.000039
Al -0.022667 1.771913 4.877061 0.000013 0.000018 0.000013
Al -0.022546 1.771195 -5.176656 0.000004 0.000013 0.000034
Al -0.022459 1.771515 -0.153820 0.000000 0.000030 -0.000089
Al 3.114776 -3.661193 4.885880 0.000020 0.000029 0.000016
Al 3.114894 -3.661244 -5.185040 0.000004 0.000019 0.000043
Al 3.117626 -3.667177 -0.148975 -0.000029 -0.000015 -0.000128
Al 1.545024 -0.942113 4.885822 -0.000003 0.000007 0.000022
Al 1.545676 -0.943125 -5.185033 -0.000008 0.000001 0.000053
Al 1.541658 -0.937226 -0.148878 -0.000050 -0.000023 -0.000113
Al 3.111381 1.771526 4.885898 -0.000024 -0.000009 0.000012
Al 3.111981 1.770459 -5.185039 -0.000005 -0.000002 0.000040
Al 3.105302 1.771495 -0.148926 -0.000031 0.000040 -0.000105
Al 6.247920 -3.661082 4.885988 -0.000012 -0.000000 0.000003
Al 6.247994 -3.661149 -5.185053 -0.000004 0.000003 0.000038
Al 6.245374 -3.667178 -0.149042 0.000001 0.000017 -0.000097
Al 4.681311 -0.943819 4.877649 -0.000016 -0.000025 0.000017
Al 4.681425 -0.944547 -5.178450 -0.000014 -0.000011 0.000028
Ga 4.681424 -0.944634 -0.146052 0.000005 0.000021 -0.000032
Al -3.156726 1.771606 4.885801 0.000013 -0.000017 0.000023
Al -3.157173 1.770561 -5.185020 0.000003 -0.000003 0.000048
Al -3.150332 1.771561 -0.148912 0.000023 0.000012 -0.000124
Al -0.022413 -3.659667 4.878059 -0.000009 0.000011 0.000037
Al -0.022334 -3.660350 -5.179504 0.000000 0.000008 0.000066
Ga -0.022348 -3.660081 -0.146446 0.000004 -0.000004 -0.000085
Al -1.589878 -0.941923 4.885819 -0.000007 -0.000012 0.000023
Al -1.590295 -0.942948 -5.185026 -0.000009 -0.000013 0.000058
Al -1.586199 -0.937136 -0.148900 -0.000023 -0.000020 -0.000115
N 1.545781 0.866291 4.283847 0.000015 0.000003 -0.000086
N 1.543211 0.867076 -5.776306 0.000011 0.000009 -0.000027
N 1.545974 0.865890 -0.747709 -0.000016 0.000011 0.000039
N -0.022613 3.583019 4.283803 -0.000003 -0.000007 -0.000077
N -0.022544 3.579234 -5.776290 0.000001 -0.000005 -0.000020
N -0.022496 3.582595 -0.747749 -0.000008 -0.000014 0.000041
N 3.109252 -1.851728 4.293867 0.000001 0.000000 -0.000060
N 3.114650 -1.849380 -5.775032 0.000000 0.000004 -0.000018
N 3.070557 -1.874467 -0.766079 -0.000020 -0.000012 0.000014
N -4.726431 0.871440 4.293793 0.000025 0.000004 -0.000074
N -4.726319 0.864629 -5.775021 0.000017 0.000010 -0.000027
N -4.726238 0.915462 -0.765981 0.000003 0.000059 0.000008
N -6.298477 3.580134 4.293889 0.000031 0.000000 -0.000101
N -6.293419 3.582250 -5.775205 0.000007 -0.000004 -0.000023
N -6.336119 3.557929 -0.767943 -0.000008 -0.000057 0.000051
N -3.154091 -1.851669 4.293947 0.000005 0.000011 -0.000087
N -3.159247 -1.849296 -5.775012 0.000005 0.000006 -0.000019
N -3.115096 -1.874449 -0.766128 -0.000007 0.000008 0.000027
N -1.591121 0.866437 4.283745 0.000002 -0.000009 -0.000085
N -1.588394 0.867249 -5.776281 0.000011 -0.000003 -0.000037
N -1.590926 0.866014 -0.747672 0.000010 0.000003 0.000036
N -3.154371 3.580218 4.293781 -0.000024 -0.000016 -0.000095
N -3.159251 3.582351 -5.775227 0.000004 -0.000020 -0.000030
N -3.116524 3.557870 -0.768079 0.000038 0.000008 0.000148
N -0.022465 -1.844381 4.293801 -0.000002 -0.000027 -0.000101
N -0.022361 -1.850778 -5.775228 0.000002 -0.000007 -0.000035
N -0.022422 -1.801087 -0.768077 0.000055 0.000013 0.000169
N -0.022545 1.771932 1.767645 0.000006 -0.000005 0.000046
N -0.022625 1.772118 6.792136 0.000003 0.000008 -0.000039
N -0.022500 1.771417 -3.258850 0.000005 0.000009 0.000008
N 3.113021 -3.659709 1.770739 -0.000038 -0.000005 0.000060
N 3.114307 -3.660121 6.799546 -0.000000 0.000017 -0.000041
N 3.116326 -3.661656 -3.272563 0.000017 0.000020 -0.000017
N 1.545463 -0.944438 1.770854 -0.000032 -0.000021 0.000033
N 1.545580 -0.942812 6.799536 -0.000009 0.000005 -0.000049
N 1.545869 -0.941410 -3.272502 0.000003 0.000021 -0.000029
N 3.113641 1.772363 1.770751 0.000015 -0.000001 0.000074
N 3.112379 1.771714 6.799546 -0.000004 -0.000006 -0.000034
N 3.110768 1.769834 -3.272580 -0.000009 -0.000019 -0.000003
N 6.249898 -3.659631 1.770699 -0.000001 -0.000002 0.000078
N 6.248439 -3.660017 6.799611 -0.000005 0.000003 -0.000036
N 6.246652 -3.661559 -3.272609 -0.000021 0.000001 -0.000013
N 4.681013 -0.944226 1.832141 0.000131 0.000052 0.000058
N 4.681356 -0.943644 6.794041 -0.000015 -0.000010 -0.000040
N 4.681438 -0.944341 -3.259811 -0.000011 -0.000006 -0.000016
N -3.158864 1.772353 1.770750 -0.000007 0.000008 0.000064
N -3.157712 1.771779 6.799473 0.000005 -0.000002 -0.000030
N -3.155896 1.769920 -3.272538 0.000011 -0.000025 -0.000011
N -0.022537 -3.659620 1.832260 0.000081 -0.000082 0.000034
N -0.022429 -3.659476 6.794504 0.000005 0.000004 -0.000034
N -0.022286 -3.660141 -3.260667 0.000002 0.000005 -0.000037
N -1.590280 -0.944367 1.770819 0.000015 -0.000006 0.000044
N -1.590354 -0.942635 6.799518 -0.000007 -0.000008 -0.000040
N -1.590402 -0.941257 -3.272495 -0.000016 0.000011 -0.000034
