108
Energy=-1.123295e+06 Lattice="9.473306e+00 0.000000e+00 0.000000e+00 -4.744870e+00 8.199163e+00 0.000000e+00 1.203682e-03 -4.272707e-04 1.528161e+01" Stress="-8.197716e-03 4.085238e-03 1.139765e-05 4.077069e-03 -2.680127e-03 2.982828e-04 1.394898e-05 3.057220e-04 5.365181e-04" Properties=species:S:1:pos:R:3:forces:R:3 Config_type=AlGaN_super3_15_0_2.xyz
Al 1.555756e+00 8.938189e-01 2.414185e+00 6.346572e-03 -6.401082e-03 -1.664985e-03
Al 1.565317e+00 8.861784e-01 7.493521e+00 -9.092252e-04 -7.124191e-03 -1.215915e-02
Al 1.456236e+00 8.180267e-01 -2.743692e+00 4.068583e-02 1.704664e-02 1.735826e-02
Al -3.733519e-03 3.600074e+00 2.421367e+00 -3.967016e-03 8.852516e-04 2.711240e-03
Al -7.714300e-03 3.606734e+00 7.503081e+00 -1.867828e-03 -1.136333e-03 -1.026729e-03
Al -2.079348e-02 3.587050e+00 -2.720027e+00 3.942965e-03 4.076522e-03 3.741131e-03
Al 3.173934e+00 -1.835297e+00 2.434683e+00 -1.983903e-02 -2.258793e-02 2.853492e-03
Al 3.155259e+00 -1.867774e+00 7.502498e+00 2.986348e-03 -2.522247e-03 -1.105289e-02
Al 3.154327e+00 -1.879499e+00 -2.731477e+00 1.983424e-03 4.049702e-03 5.157693e-03
Al -4.768117e+00 8.909588e-01 2.418419e+00 -1.834989e-02 -1.649888e-02 1.476110e-03
Al -4.786398e+00 8.887099e-01 7.502612e+00 2.671268e-03 -5.932082e-03 -1.030905e-02
Al -4.779144e+00 8.958546e-01 -2.727423e+00 -8.573709e-04 -7.810840e-03 1.170027e-03
Al -6.360074e+00 3.617208e+00 2.412846e+00 1.992232e-02 -2.060207e-02 9.064628e-03
Al -6.347764e+00 3.618400e+00 7.494473e+00 -2.046411e-03 -3.531820e-03 5.316643e-04
Ga -6.345854e+00 3.595692e+00 -2.712659e+00 -1.039965e-03 -5.847058e-04 3.425227e-03
Al -3.165253e+00 -1.890084e+00 2.452018e+00 9.319145e-04 2.134697e-03 -2.903645e-04
Al -3.187423e+00 -1.872051e+00 7.504017e+00 4.666283e-03 2.465056e-03 -1.263070e-02
Ga -3.179541e+00 -1.876176e+00 -2.714639e+00 -1.512116e-03 -9.849271e-04 3.869420e-03
Al -1.626201e+00 8.889994e-01 2.435713e+00 8.819489e-04 -3.528528e-03 -6.322548e-03
Ga -1.636708e+00 9.025185e-01 7.503169e+00 1.152903e-02 -5.948425e-03 -3.372330e-03
Ga -1.621471e+00 9.044910e-01 -2.714487e+00 3.789736e-03 -4.756953e-03 -7.410581e-04
Ga -3.240782e+00 3.597311e+00 2.402124e+00 1.143888e-02 6.723561e-03 -2.397086e-03
Al -3.205640e+00 3.613190e+00 7.513046e+00 8.500403e-03 2.859954e-03 -1.010726e-03
Al -3.210499e+00 3.612367e+00 -2.729350e+00 5.649063e-03 1.507470e-03 4.251708e-03
Al -2.329922e-02 -1.853273e+00 2.441514e+00 6.355732e-03 -5.882460e-05 -4.994761e-03
Ga -1.836273e-02 -1.869761e+00 7.484604e+00 8.041308e-03 7.774412e-03 -3.741145e-03
Al -2.094600e-02 -1.870025e+00 -2.717483e+00 4.693435e-03 -1.875430e-03 2.913579e-03
Al 4.301773e-04 1.792944e+00 4.964881e+00 -7.381910e-03 -2.295785e-03 7.596740e-04
Al 9.195002e-03 1.796853e+00 -5.239161e+00 -1.233960e-02 2.151428e-04 -9.909897e-03
Al -2.042916e-02 1.779978e+00 -1.272222e-01 8.437463e-04 -1.366610e-03 -3.812435e-03
Ga 3.167117e+00 -3.683204e+00 4.969913e+00 -7.229484e-03 -1.905339e-03 -2.014481e-03
Al 3.165859e+00 -3.700113e+00 -5.251513e+00 -7.090056e-03 -1.869056e-03 -4.618834e-03
Al 3.152111e+00 -3.699816e+00 -2.105712e-01 -7.029443e-03 -7.055264e-04 2.029052e-02
Al 1.596052e+00 -9.498229e-01 4.966456e+00 -6.550593e-03 2.801865e-03 -1.135471e-02
Ga 1.592852e+00 -9.623548e-01 -5.257250e+00 -7.782116e-03 5.459360e-03 -2.072334e-03
Al 1.584364e+00 -9.750556e-01 -2.026648e-01 -7.240204e-03 7.424578e-03 1.789081e-02
Al 3.119833e+00 1.793787e+00 4.961571e+00 7.332263e-04 9.041823e-04 1.313214e-04
Ga 3.123394e+00 1.802309e+00 -5.278723e+00 1.695442e-03 -1.354459e-04 6.519073e-03
Al 3.137823e+00 1.782609e+00 -2.328463e-01 -1.242107e-02 -1.975551e-03 2.392792e-02
Al 6.301267e+00 -3.683869e+00 4.971448e+00 5.725946e-04 5.515547e-04 -1.017974e-03
Al 6.301433e+00 -3.671375e+00 -5.267249e+00 4.597789e-04 -8.542285e-03 3.890824e-03
Ga 6.301701e+00 -3.696759e+00 -1.321043e-01 1.671356e-03 -2.349069e-03 1.168016e-02
Al 4.730453e+00 -9.592725e-01 4.972868e+00 -5.193024e-04 6.080437e-03 -3.212099e-04
Ga 4.735899e+00 -9.698326e-01 -5.276866e+00 -1.339312e-03 1.172238e-02 2.952951e-03
Ga 4.723357e+00 -9.475519e-01 -1.427373e-01 -3.700430e-03 4.653304e-03 5.009414e-03
Ga -3.208772e+00 1.795254e+00 4.972575e+00 1.241330e-03 -2.299278e-03 1.553740e-03
Al -3.202011e+00 1.802209e+00 -5.259701e+00 1.475616e-03 -3.547498e-04 -8.712276e-04
Al -3.205498e+00 1.784124e+00 -1.599575e-01 -5.161939e-06 4.485962e-03 1.316473e-03
Ga -3.783838e-02 -3.680413e+00 4.971597e+00 -2.088717e-03 1.758006e-03 -2.429211e-05
Al -2.130835e-02 -3.678400e+00 -5.257340e+00 -5.230395e-04 -4.102079e-03 1.273321e-03
Al -2.096668e-02 -3.682403e+00 -1.357574e-01 -2.638364e-03 -1.700219e-03 -4.543823e-03
Al -1.592020e+00 -9.534664e-01 4.966280e+00 -3.296356e-03 5.399327e-03 -5.598827e-03
Ga -1.594752e+00 -9.690739e-01 -5.255820e+00 -1.060448e-03 1.304367e-02 -1.063479e-03
Al -1.592762e+00 -9.576559e-01 -1.847814e-01 1.325430e-03 6.518138e-03 1.837403e-02
N 1.557533e+00 8.945806e-01 4.358822e+00 -7.396812e-04 -7.444281e-03 -3.390429e-03
N 1.530721e+00 9.013748e-01 -5.902301e+00 -6.236961e-03 -7.231488e-03 1.930059e-03
N 1.535546e+00 8.729453e-01 -8.024889e-01 1.728769e-04 -6.808880e-03 2.829168e-03
N 5.340646e-03 3.598462e+00 4.359658e+00 8.033694e-03 -7.548106e-03 -7.706465e-03
N -6.199074e-03 3.606282e+00 -5.853647e+00 -1.804231e-03 2.666392e-04 1.025584e-03
N -3.073649e-02 3.585145e+00 -7.827629e-01 -8.631856e-03 -5.556257e-03 -5.065442e-03
N 3.164204e+00 -1.846033e+00 4.366341e+00 -1.279915e-03 1.151837e-02 -8.365293e-03
N 3.157987e+00 -1.887050e+00 -5.893048e+00 -2.643575e-03 -1.388351e-02 2.474305e-03
N 3.146034e+00 -1.880898e+00 -7.989651e-01 -1.088688e-02 -6.360236e-03 -6.089830e-03
N -4.792689e+00 8.837610e-01 4.357493e+00 -8.965862e-03 -1.459426e-02 -7.211751e-03
N -4.757756e+00 9.017067e-01 -5.900291e+00 1.166233e-02 -4.024486e-03 3.288804e-03
N -4.781467e+00 9.281735e-01 -7.951912e-01 9.453982e-03 -8.516348e-03 -6.193776e-03
N -6.364878e+00 3.603310e+00 4.354002e+00 -8.314161e-03 -7.563366e-03 -5.171031e-03
N -6.344089e+00 3.638738e+00 -5.868421e+00 2.621297e-04 1.290662e-02 -4.099381e-03
N -6.327931e+00 3.582420e+00 -7.516876e-01 9.445631e-03 4.232300e-03 2.122505e-03
N -3.170231e+00 -1.867413e+00 4.378896e+00 -9.093111e-04 1.907114e-03 -2.079482e-03
N -3.165650e+00 -1.895225e+00 -5.888511e+00 -2.505376e-04 -5.840056e-03 -3.607147e-03
N -3.163231e+00 -1.862902e+00 -7.606192e-01 1.123360e-02 6.936987e-03 5.704391e-03
N -1.616443e+00 8.907405e-01 4.365571e+00 1.862856e-02 -8.394630e-03 -7.614635e-03
N -1.616438e+00 9.188048e-01 -5.835124e+00 5.417980e-03 3.580329e-03 1.378511e-02
N -1.612680e+00 9.051743e-01 -7.571589e-01 -1.340217e-04 -9.273135e-03 1.449050e-02
N -3.215175e+00 3.610920e+00 4.356223e+00 1.024964e-02 3.907916e-03 -3.652416e-03
N -3.203191e+00 3.611973e+00 -5.852550e+00 7.605943e-03 3.902003e-03 3.270013e-03
N -3.213297e+00 3.601255e+00 -7.906383e-01 7.922977e-03 3.016561e-03 1.953092e-03
N -2.598785e-02 -1.844286e+00 4.368409e+00 7.816553e-03 1.417950e-02 -6.924352e-03
N -2.360813e-02 -1.884195e+00 -5.855094e+00 8.971309e-03 -6.591743e-03 5.114072e-03
N -3.276017e-02 -1.874344e+00 -7.843961e-01 6.011591e-03 3.034203e-03 6.747588e-04
N -1.124743e-02 1.791161e+00 1.787983e+00 -9.255384e-03 -3.540493e-03 4.442945e-03
N 6.993618e-03 1.801703e+00 6.891383e+00 2.952263e-03 1.558273e-03 -5.342697e-03
N 3.637384e-02 1.793894e+00 -3.337813e+00 -1.814981e-02 6.512658e-03 -6.172044e-03
N 3.166412e+00 -3.701541e+00 1.818240e+00 3.709782e-03 9.035227e-03 -1.711858e-02
N 3.161626e+00 -3.687285e+00 6.922009e+00 -7.488421e-03 -4.021849e-03 1.407339e-02
N 3.160895e+00 -3.696116e+00 -3.326438e+00 -7.301968e-03 -1.240968e-03 9.673909e-04
N 1.596069e+00 -9.565165e-01 1.844674e+00 -1.043291e-02 2.125890e-03 -1.701552e-02
N 1.633317e+00 -9.670847e-01 6.843931e+00 -6.883210e-03 1.412397e-02 1.385456e-02
N 1.590689e+00 -9.350535e-01 -3.299147e+00 -1.047624e-02 -1.939980e-02 6.244786e-03
N 3.130917e+00 1.800194e+00 1.787284e+00 -4.838271e-04 -6.289075e-03 -6.862374e-03
N 3.128472e+00 1.800031e+00 6.894634e+00 9.964053e-05 -1.385718e-04 -1.748886e-03
N 3.127930e+00 1.770266e+00 -3.326614e+00 -1.048715e-02 -1.899632e-02 9.186168e-03
N 6.365466e+00 -3.726295e+00 1.901968e+00 -3.546051e-02 1.987909e-02 -1.793899e-02
N 6.299999e+00 -3.682263e+00 6.899363e+00 -1.816822e-05 4.178034e-04 -1.395976e-03
N 6.279632e+00 -3.704122e+00 -3.337387e+00 -1.000238e-02 -3.128575e-03 -1.023138e-02
N 4.699562e+00 -1.041013e+00 1.836870e+00 2.274880e-02 2.983214e-02 1.471982e-03
N 4.724315e+00 -9.615901e-01 6.900925e+00 1.066789e-03 7.480147e-03 6.130124e-04
N 4.715961e+00 -9.508813e-01 -3.322326e+00 -1.258095e-02 1.132505e-02 7.762083e-03
N -3.271121e+00 1.752049e+00 1.770831e+00 2.787693e-02 -8.166274e-03 -5.173606e-03
N -3.222400e+00 1.812376e+00 6.918766e+00 -1.038783e-02 4.418064e-03 5.765734e-03
N -3.215924e+00 1.808001e+00 -3.336706e+00 -7.798266e-03 3.448197e-03 -4.138624e-03
N -8.684990e-02 -3.673567e+00 1.769627e+00 3.304193e-03 1.271099e-02 1.488536e-03
N -3.099424e-02 -3.704633e+00 6.915464e+00 2.933991e-03 -1.128694e-02 6.530848e-03
N -1.555462e-02 -3.675698e+00 -3.332308e+00 1.165402e-02 9.663619e-03 -5.796005e-03
N -1.597391e+00 -9.633544e-01 1.856220e+00 -3.502494e-03 8.567302e-03 -1.816379e-02
N -1.605980e+00 -9.660018e-01 6.864676e+00 -1.407472e-02 1.696384e-03 1.108694e-03
N -1.583888e+00 -9.748212e-01 -3.313774e+00 1.193551e-02 4.601376e-03 6.940032e-03
