108
Energy=-2.359235e+06 Lattice="9.631512e+00 0.000000e+00 0.000000e+00 -4.816417e+00 8.340777e+00 0.000000e+00 -1.216131e-03 -1.307130e-03 1.562313e+01" Stress="1.140756e-05 4.346105e-06 -2.711248e-07 -3.830430e-06 2.442637e-05 8.818706e-06 2.475363e-06 1.588493e-05 1.725198e-06" Properties=species:S:1:pos:R:3:forces:R:3 Config_type=AlGaN_super3_42_0_15.xyz
Al 1.579371e+00 8.977974e-01 2.456893e+00 3.298226e-06 -1.629858e-05 -3.494853e-06
Al 1.583999e+00 8.826011e-01 7.676609e+00 3.437451e-06 4.387946e-06 -3.389729e-07
Ga 1.595592e+00 8.873634e-01 -2.759131e+00 6.772453e-06 -1.769844e-06 2.082894e-05
Al -1.929593e-02 3.661893e+00 2.472489e+00 -1.534882e-05 -1.063994e-05 9.196205e-07
Ga -5.408862e-03 3.670728e+00 7.649598e+00 -1.525998e-06 1.245191e-05 -7.603379e-08
Ga -1.021841e-02 3.675407e+00 -2.749387e+00 3.600166e-06 -1.689826e-05 -7.456537e-06
Ga 3.189846e+00 -1.894631e+00 2.472708e+00 1.589976e-05 2.409021e-05 2.020932e-05
Ga 3.196036e+00 -1.879994e+00 7.657476e+00 4.916291e-07 -3.314707e-05 -1.371949e-05
Ga 3.191673e+00 -1.883925e+00 -2.759138e+00 5.771938e-06 -1.639507e-05 1.062119e-05
Ga -4.846943e+00 8.874059e-01 2.473543e+00 -2.303622e-05 1.761021e-05 2.187972e-05
Ga -4.844725e+00 8.711199e-01 7.651446e+00 6.868050e-06 1.853500e-05 -1.485285e-05
Al -4.840816e+00 8.879140e-01 -2.755057e+00 -5.040590e-06 4.400866e-06 -5.461728e-06
Ga -6.450378e+00 3.665509e+00 2.481778e+00 -9.515753e-06 4.901972e-06 1.240119e-06
Ga -6.454888e+00 3.674228e+00 7.635033e+00 2.773930e-06 -3.601518e-06 2.038468e-06
Al -6.446470e+00 3.666353e+00 -2.751578e+00 -1.606846e-06 1.106676e-05 -1.201616e-05
Ga -3.245518e+00 -1.903256e+00 2.478693e+00 -3.722112e-06 -2.600913e-06 4.149388e-06
Al -3.242930e+00 -1.901597e+00 7.640700e+00 9.609014e-07 1.220925e-06 2.823997e-06
Al -3.232846e+00 -1.895749e+00 -2.752639e+00 1.067958e-05 7.299162e-06 1.550543e-05
Ga -1.618497e+00 9.011543e-01 2.463113e+00 1.639706e-05 4.382314e-05 1.936349e-05
Ga -1.623562e+00 8.802630e-01 7.656710e+00 1.057662e-06 9.646650e-06 -2.631144e-06
Ga -1.641808e+00 8.787592e-01 -2.747554e+00 -1.825060e-06 -1.012160e-05 1.438428e-05
Al -3.233009e+00 3.670039e+00 2.468160e+00 9.013322e-06 -8.497107e-06 5.981193e-06
Ga -3.241080e+00 3.669953e+00 7.655389e+00 -5.107084e-06 4.620858e-06 5.868052e-06
Ga -3.245997e+00 3.659785e+00 -2.744832e+00 5.334791e-06 -2.101918e-05 1.507242e-05
Ga -1.574441e-02 -1.898293e+00 2.475002e+00 2.525426e-05 1.525557e-05 -5.154572e-05
Ga -2.187575e-02 -1.892976e+00 7.660284e+00 -7.036140e-06 1.190168e-06 1.540297e-05
Ga -2.993772e-02 -1.895643e+00 -2.763548e+00 4.443386e-06 -2.807071e-05 3.769745e-06
Ga -2.602635e-03 1.820717e+00 5.055183e+00 1.588336e-06 3.560536e-06 9.821609e-06
Ga -1.169384e-02 1.803820e+00 -5.366619e+00 -5.562674e-06 -1.973931e-06 -6.002166e-07
Ga -1.740477e-02 1.817176e+00 -1.225934e-01 1.830520e-05 1.168419e-06 5.830779e-06
Ga 3.192082e+00 -3.745972e+00 5.038429e+00 5.558062e-06 3.639993e-06 1.722551e-06
Ga 3.184975e+00 -3.737021e+00 -5.362575e+00 -4.923388e-06 2.255484e-06 -4.805448e-05
Ga 3.187818e+00 -3.751674e+00 -1.141164e-01 1.518627e-05 2.121232e-05 2.573048e-05
Ga 1.587452e+00 -9.590944e-01 5.062022e+00 -1.023145e-05 6.785538e-07 1.472265e-05
Al 1.584247e+00 -9.592400e-01 -5.372478e+00 3.250685e-06 -5.372357e-06 -4.582477e-06
Ga 1.581355e+00 -9.638644e-01 -1.274942e-01 1.338537e-05 1.928169e-05 -2.275864e-05
Ga 3.178913e+00 1.813659e+00 5.063053e+00 4.494863e-06 3.963820e-06 5.036720e-06
Ga 3.183065e+00 1.808125e+00 -5.353942e+00 5.440832e-06 5.315327e-06 1.425031e-05
Ga 3.191204e+00 1.816965e+00 -1.499789e-01 -2.971295e-06 -3.381357e-08 1.360576e-06
Al 6.395500e+00 -3.736531e+00 5.057613e+00 -8.087352e-07 -1.681291e-07 2.394586e-06
Ga 6.405241e+00 -3.735548e+00 -5.348910e+00 -1.718980e-05 -1.303697e-05 1.865077e-05
Ga 6.402486e+00 -3.744624e+00 -1.484706e-01 1.054852e-05 -1.964128e-06 2.077270e-05
Al 4.801877e+00 -9.790014e-01 5.075085e+00 2.800088e-06 -4.010708e-06 7.660172e-06
Ga 4.797003e+00 -9.701179e-01 -5.346960e+00 2.248791e-06 -1.608816e-07 8.211082e-06
Ga 4.799381e+00 -9.634071e-01 -1.685212e-01 2.095827e-06 1.323076e-05 5.748840e-06
Ga -3.244180e+00 1.821577e+00 5.048385e+00 6.523532e-06 -2.839888e-05 1.200004e-05
Ga -3.237790e+00 1.812121e+00 -5.346300e+00 3.644871e-06 2.836981e-06 4.849872e-06
Ga -3.243256e+00 1.813967e+00 -1.353528e-01 1.194145e-05 3.276688e-05 1.636695e-05
Al -2.560706e-02 -3.749995e+00 5.051205e+00 -4.923498e-06 5.341149e-06 3.742026e-06
Ga -2.413889e-02 -3.741381e+00 -5.345187e+00 4.045446e-06 2.084191e-07 -5.192250e-06
Ga -2.775335e-02 -3.751416e+00 -1.434086e-01 -3.575352e-06 -7.163896e-06 2.115939e-05
Ga -1.642047e+00 -9.877137e-01 5.074406e+00 3.988481e-06 -4.754181e-06 4.809316e-06
Ga -1.632253e+00 -9.755448e-01 -5.364718e+00 -3.760909e-05 1.694684e-05 1.439477e-05
Ga -1.634897e+00 -9.734301e-01 -1.478831e-01 -1.472644e-06 -5.257025e-06 -1.341946e-05
N 1.585190e+00 8.867392e-01 4.365215e+00 -9.844409e-06 1.610690e-06 6.318652e-06
N 1.587466e+00 8.411940e-01 -6.022547e+00 -1.941546e-05 2.742298e-06 -9.058994e-06
N 1.581544e+00 8.849652e-01 -7.821520e-01 4.516693e-06 1.549377e-05 -2.303981e-06
N 2.387982e-02 3.690276e+00 4.396733e+00 -1.097918e-05 2.355970e-05 -1.249022e-05
N -1.583483e-02 3.671159e+00 -5.992924e+00 5.298396e-06 4.270004e-07 -1.072561e-06
N -2.540310e-02 3.668019e+00 -7.724670e-01 5.289151e-06 -5.275526e-06 -7.226521e-06
N 3.231656e+00 -1.864497e+00 4.452697e+00 1.955672e-05 -2.502659e-05 -4.165636e-06
N 3.153037e+00 -1.863647e+00 -5.976944e+00 7.304439e-06 -1.509383e-07 -2.293646e-06
N 3.181357e+00 -1.897918e+00 -7.746241e-01 -4.288266e-06 1.119447e-05 -1.444128e-05
N -4.843981e+00 8.327005e-01 4.455718e+00 -9.113079e-06 -3.160037e-06 -2.642300e-06
N -4.839817e+00 8.823493e-01 -5.994747e+00 3.207623e-06 2.522747e-06 3.087854e-06
N -4.839844e+00 8.907535e-01 -8.335885e-01 -3.620984e-06 2.386279e-05 -5.869489e-06
N -6.448030e+00 3.715635e+00 4.473630e+00 1.609328e-05 -8.479813e-06 -1.691963e-05
N -6.444792e+00 3.669503e+00 -6.004902e+00 6.746228e-06 1.149772e-05 -9.372729e-06
N -6.445745e+00 3.667077e+00 -8.289605e-01 -7.564510e-06 -1.081365e-05 -1.247043e-05
N -3.278783e+00 -1.918005e+00 4.461097e+00 -7.301865e-07 3.811648e-06 -5.220275e-06
N -3.239829e+00 -1.897123e+00 -6.058063e+00 8.448379e-06 5.238703e-06 4.122890e-07
N -3.231714e+00 -1.897316e+00 -8.363670e-01 -1.503330e-05 7.785930e-06 2.017194e-07
N -1.623871e+00 8.835544e-01 4.439602e+00 -1.192355e-06 -9.072230e-06 -1.051503e-05
N -1.630055e+00 8.869636e-01 -5.989480e+00 1.768983e-05 -2.723115e-05 1.735663e-05
N -1.627265e+00 8.897160e-01 -7.640450e-01 -1.449400e-06 3.009748e-05 -3.953827e-06
N -3.278511e+00 3.693316e+00 4.388727e+00 -8.417224e-06 2.244266e-05 -9.221335e-06
N -3.238258e+00 3.668189e+00 -5.991597e+00 -6.400971e-06 1.601248e-06 1.422167e-06
N -3.231318e+00 3.668587e+00 -7.712231e-01 -9.858580e-06 -2.144414e-05 -2.649728e-05
N -2.210588e-02 -1.938767e+00 4.455910e+00 1.472151e-06 1.121698e-05 1.869442e-06
N 1.921634e-02 -1.872727e+00 -5.974894e+00 3.670695e-05 -1.054711e-05 -1.854002e-05
N -1.920848e-02 -1.892153e+00 -7.808673e-01 7.975815e-06 2.546381e-05 4.666013e-05
N 2.033371e-02 1.842220e+00 1.866707e+00 1.259833e-05 2.983054e-05 -4.693587e-06
N 2.641109e-02 1.788488e+00 7.043340e+00 5.697927e-06 -1.480512e-05 -9.523150e-06
N -2.270069e-02 1.811901e+00 -3.389390e+00 -8.842540e-06 1.658043e-05 4.445324e-06
N 3.189622e+00 -3.796465e+00 1.883656e+00 -1.759948e-05 2.587494e-05 -2.502097e-05
N 3.188976e+00 -3.748009e+00 7.019872e+00 -3.271652e-06 2.566547e-05 9.995226e-06
N 3.186371e+00 -3.747944e+00 -3.387230e+00 -7.680530e-06 -6.633214e-07 4.469350e-05
N 1.582399e+00 -9.184083e-01 1.854626e+00 -8.736001e-05 -5.889416e-05 -1.100699e-05
N 1.582570e+00 -9.143767e-01 7.043651e+00 -1.487211e-05 -4.506007e-06 -5.039611e-06
N 1.581795e+00 -9.643044e-01 -3.450773e+00 -1.616653e-05 -1.551695e-06 6.651575e-07
N 3.149657e+00 1.796086e+00 1.840316e+00 1.587563e-05 -4.612352e-05 -1.591156e-05
N 3.139783e+00 1.786084e+00 7.046366e+00 2.048811e-06 -9.226827e-07 -1.771447e-05
N 3.228964e+00 1.839220e+00 -3.357653e+00 -1.723340e-05 -1.147742e-05 -3.549580e-05
N 6.359413e+00 -3.769908e+00 1.838533e+00 2.570696e-07 -4.151325e-06 -7.212958e-06
N 6.395275e+00 -3.698703e+00 6.978939e+00 2.640582e-05 -5.318477e-06 -3.511921e-06
N 6.443147e+00 -3.719446e+00 -3.355253e+00 8.205905e-06 8.056317e-06 5.009035e-06
N 4.795140e+00 -9.648391e-01 1.808653e+00 1.153072e-05 -3.336736e-05 6.243474e-06
N 4.834800e+00 -9.934255e-01 6.994130e+00 -8.983964e-06 -1.128550e-05 1.404271e-05
N 4.838525e+00 -9.436362e-01 -3.351531e+00 1.655851e-05 -1.041817e-05 -1.357048e-05
N -3.239823e+00 1.860663e+00 1.852662e+00 -8.907533e-06 -5.973897e-05 -1.002822e-05
N -3.235034e+00 1.814824e+00 7.021740e+00 1.158966e-05 -2.517394e-05 -9.057076e-06
N -3.276679e+00 1.789257e+00 -3.366280e+00 -1.825512e-06 2.042439e-05 -1.503961e-05
N 1.291802e-02 -3.773341e+00 1.842519e+00 -1.084233e-05 -8.011055e-07 2.330697e-05
N -2.045173e-02 -3.746273e+00 6.968853e+00 -2.595349e-05 -1.550562e-06 -6.054914e-06
N -6.649608e-02 -3.772322e+00 -3.366033e+00 6.729420e-06 -1.929689e-06 1.845280e-07
N -1.633238e+00 -9.716008e-01 1.834312e+00 2.377460e-05 -1.510222e-05 1.177926e-05
N -1.670365e+00 -9.956799e-01 7.054018e+00 -1.068458e-05 1.069913e-05 -8.278254e-06
N -1.674456e+00 -9.929756e-01 -3.378455e+00 -7.515142e-06 1.972774e-05 -1.935282e-05
