108
Energy=-1.672602e+06 Lattice="9.543288e+00 0.000000e+00 0.000000e+00 -4.774365e+00 8.265212e+00 0.000000e+00 1.198424e-03 -4.110548e-03 1.541986e+01" Stress="-5.062258e-04 -1.228352e-04 1.607533e-04 -1.295396e-04 -4.618481e-04 -4.317578e-05 1.548331e-04 -5.592885e-05 -1.669235e-03" Properties=species:S:1:pos:R:3:forces:R:3 Config_type=AlGaN_super3_27_1_24.xyz
Al 1.572973e+00 8.823518e-01 2.406828e+00 7.925699e-04 -1.021553e-03 1.478006e-04
Al 1.569687e+00 8.765646e-01 7.553041e+00 2.804502e-05 6.042431e-05 1.277110e-05
Al 1.556686e+00 8.818751e-01 -2.694280e+00 3.104350e-05 1.108336e-05 2.352405e-05
Al -2.437171e-02 3.633076e+00 2.420994e+00 -6.517945e-04 1.013773e-04 3.551945e-04
Al -3.486192e-02 3.632879e+00 7.563045e+00 -5.401234e-05 -1.268186e-05 6.683592e-05
Ga -3.770735e-02 3.619587e+00 -2.719326e+00 -3.501473e-05 -1.184615e-05 2.255612e-05
Al 3.149201e+00 -1.882819e+00 2.448077e+00 1.269947e-03 2.057475e-04 -3.647066e-04
Ga 3.147426e+00 -1.892899e+00 7.548829e+00 -7.439768e-05 5.562718e-06 6.042461e-05
Ga 3.146754e+00 -1.883339e+00 -2.728176e+00 -9.381060e-06 1.279740e-05 8.012622e-05
Al -4.802670e+00 8.898810e-01 2.418664e+00 -7.546763e-04 -1.125084e-03 7.172785e-04
Ga -4.791914e+00 8.951770e-01 7.580288e+00 1.667235e-04 1.150873e-04 -1.968360e-05
Ga -4.800298e+00 8.872756e-01 -2.730461e+00 8.618451e-05 5.047780e-06 3.416240e-05
Al -6.375878e+00 3.630386e+00 2.396729e+00 7.053972e-05 5.092910e-05 6.418197e-05
Ga -6.394094e+00 3.621906e+00 7.575853e+00 8.109635e-06 -2.953046e-05 5.668304e-05
Ga -6.380203e+00 3.627229e+00 -2.707720e+00 -3.038625e-05 1.090022e-05 3.390168e-05
Al -3.199933e+00 -1.882226e+00 2.434203e+00 -3.813750e-04 3.764927e-04 -3.257350e-05
Ga -3.200091e+00 -1.885382e+00 7.567257e+00 -3.421088e-05 5.432770e-05 9.374588e-05
Ga -3.201703e+00 -1.874026e+00 -2.721407e+00 -4.020373e-05 2.565044e-05 6.894938e-05
Ga -1.610045e+00 8.834167e-01 2.435980e+00 1.512822e-06 -3.560216e-04 8.070453e-05
Ga -1.619206e+00 8.907965e-01 7.544083e+00 4.459369e-05 5.565087e-05 9.878424e-05
Al -1.606245e+00 8.891029e-01 -2.711145e+00 5.790849e-05 -6.100217e-05 2.287471e-05
Al -3.208589e+00 3.639494e+00 2.429809e+00 9.378177e-05 1.002894e-03 1.014335e-03
Al -3.184818e+00 3.623313e+00 7.550271e+00 5.445577e-05 -1.469350e-04 -8.943468e-05
Al -3.204162e+00 3.637159e+00 -2.720258e+00 -2.708005e-07 -8.596729e-05 1.166402e-04
Al -1.281539e-02 -1.886348e+00 2.432696e+00 -6.667922e-04 4.936805e-05 -1.123771e-03
Ga -1.091569e-02 -1.867753e+00 7.537221e+00 2.929284e-05 -5.864889e-05 1.970500e-04
Al -1.700485e-02 -1.875455e+00 -2.697211e+00 -3.008360e-05 -4.077339e-05 9.862290e-05
Ga -2.120702e-02 1.795303e+00 4.994188e+00 -2.127289e-06 1.245741e-04 1.309932e-04
Ga -1.631840e-02 1.808507e+00 -5.295842e+00 -1.063888e-05 7.731894e-05 7.630079e-05
Al -1.240477e-02 1.794366e+00 -1.396848e-01 -5.922053e-06 8.851375e-06 -3.432325e-05
Al 3.151809e+00 -3.722788e+00 4.972743e+00 -7.312776e-06 -4.041611e-04 1.472205e-04
Al 3.161900e+00 -3.723002e+00 -5.303302e+00 -2.653728e-06 7.398608e-05 2.792712e-05
Ga 3.147438e+00 -3.724041e+00 -1.176335e-01 -5.530127e-05 1.837190e-04 1.728130e-04
Al 1.563428e+00 -9.597073e-01 4.957887e+00 4.963126e-04 5.643377e-04 2.267658e-04
Ga 1.581808e+00 -9.446768e-01 -5.267031e+00 -9.216881e-05 1.052553e-04 1.249918e-04
Ga 1.560504e+00 -9.485826e-01 -1.315380e-01 -1.180794e-04 -3.835567e-05 1.778598e-04
Ga 3.161206e+00 1.787252e+00 4.969728e+00 5.194461e-05 -1.049111e-04 -3.320397e-05
Al 3.152408e+00 1.792014e+00 -5.284237e+00 1.901371e-05 1.353887e-06 4.398577e-05
Al 3.147699e+00 1.800932e+00 -1.245304e-01 3.128930e-05 -5.191490e-05 1.358058e-04
Ga 6.336093e+00 -3.712692e+00 4.965222e+00 -1.082616e-05 7.370335e-06 1.397687e-04
Al 6.324571e+00 -3.716040e+00 -5.294506e+00 2.894495e-05 1.027969e-06 6.340701e-05
Ga 6.346253e+00 -3.729244e+00 -1.090561e-01 2.911402e-05 9.411718e-05 -4.471725e-05
Ga 4.751304e+00 -9.540525e-01 4.963756e+00 2.401294e-05 1.351777e-04 -4.454098e-05
Al 4.748215e+00 -9.551414e-01 -5.297296e+00 -6.741804e-05 1.331960e-05 1.358596e-05
Ga 4.742190e+00 -9.500870e-01 -1.022436e-01 -1.114181e-04 -2.846185e-05 3.261557e-04
Al -3.204049e+00 1.807237e+00 4.971621e+00 1.614627e-04 -3.512807e-04 7.960527e-04
Al -3.208140e+00 1.811539e+00 -5.273227e+00 5.127848e-05 -1.890474e-05 5.217057e-05
Ga -3.208453e+00 1.813073e+00 -1.453308e-01 6.468690e-05 9.233758e-07 -1.847414e-04
Ga -2.413652e-03 -3.712533e+00 4.972894e+00 6.785017e-05 -2.814914e-04 6.671779e-05
Ga -9.348285e-03 -3.728368e+00 -5.285728e+00 5.675975e-05 -1.644808e-05 4.247752e-05
Al -1.625570e-02 -3.716808e+00 -1.325013e-01 5.721755e-04 8.494165e-05 1.624648e-04
Al -1.606662e+00 -9.581092e-01 4.964670e+00 -2.148779e-04 7.258260e-05 1.105759e-04
Ga -1.625092e+00 -9.518064e-01 -5.258672e+00 -3.407394e-05 2.554403e-05 1.675276e-04
Ga -1.598127e+00 -9.570208e-01 -1.398761e-01 -6.750776e-06 -6.491169e-05 1.803776e-04
N 1.565868e+00 8.358778e-01 4.316842e+00 -7.838920e-05 3.209007e-05 -1.493006e-04
N 1.609297e+00 8.981458e-01 -5.954244e+00 7.802959e-05 -3.006018e-05 -1.322860e-04
N 1.570399e+00 9.300171e-01 -7.681313e-01 2.462232e-05 -1.879037e-05 2.018891e-05
N -6.719826e-02 3.649562e+00 4.329777e+00 5.118495e-05 6.351103e-05 -3.411081e-05
N -2.859784e-02 3.682981e+00 -5.932765e+00 -1.053733e-06 1.362657e-05 -6.291267e-05
N -2.704350e-02 3.591180e+00 -7.413067e-01 -2.700676e-05 -1.252432e-04 3.747691e-05
N 3.114783e+00 -1.906853e+00 4.365109e+00 1.438539e-04 -3.984949e-05 -4.085602e-05
N 3.192730e+00 -1.901626e+00 -5.881101e+00 -4.768666e-06 -5.867550e-06 -4.270384e-05
N 3.161181e+00 -1.879721e+00 -7.572990e-01 -6.864336e-06 -2.507786e-05 -1.248765e-04
N -4.751669e+00 9.077983e-01 4.327571e+00 -2.540435e-04 -2.371572e-06 -5.419948e-04
N -4.791341e+00 8.891919e-01 -5.845359e+00 3.152908e-05 3.722776e-06 -2.188261e-06
N -4.841284e+00 9.013149e-01 -7.481189e-01 3.629313e-05 1.217099e-04 -6.338498e-05
N -6.378074e+00 3.631385e+00 4.305512e+00 7.252107e-05 1.136267e-04 -7.684467e-05
N -6.427536e+00 3.610245e+00 -5.862796e+00 -5.663199e-05 2.164540e-05 -7.157284e-05
N -6.343434e+00 3.609494e+00 -7.149969e-01 -2.849307e-04 -1.776424e-04 -6.693486e-05
N -3.159375e+00 -1.854381e+00 4.336254e+00 1.651762e-05 -1.722846e-05 -5.399581e-05
N -3.238530e+00 -1.897015e+00 -5.871432e+00 -3.032037e-05 1.272251e-05 -6.998316e-05
N -3.210811e+00 -1.879427e+00 -7.515300e-01 6.130452e-05 -1.605400e-05 -1.185950e-04
N -1.650460e+00 8.604196e-01 4.411594e+00 1.930421e-04 -9.488526e-05 -1.106529e-04
N -1.661689e+00 9.040899e-01 -5.895983e+00 7.085932e-05 -6.646430e-05 -1.178290e-04
N -1.573859e+00 9.081174e-01 -7.872079e-01 5.843253e-05 2.548939e-06 4.398636e-05
N -3.162271e+00 3.608660e+00 4.345369e+00 -2.443649e-04 4.768986e-04 -1.170499e-03
N -3.160609e+00 3.606288e+00 -5.942731e+00 -1.828393e-06 -3.566972e-05 -4.793390e-05
N -3.244226e+00 3.662361e+00 -8.034760e-01 -1.167003e-04 -1.098712e-04 6.317949e-05
N -1.994383e-02 -1.833820e+00 4.348706e+00 -3.004254e-04 -2.570571e-04 4.890697e-04
N -2.117436e-02 -1.868907e+00 -5.912370e+00 -1.104651e-05 -6.274787e-05 -1.284275e-04
N -1.842416e-02 -1.927728e+00 -7.840315e-01 -4.659195e-05 -4.918621e-06 -3.055588e-05
N 1.819509e-02 1.817790e+00 1.784292e+00 -4.752316e-04 3.143863e-04 -3.807584e-04
N 2.276426e-02 1.822006e+00 6.978456e+00 -1.525216e-05 8.540700e-05 -9.208158e-05
N -1.979998e-02 1.747091e+00 -3.312971e+00 -2.014350e-05 3.588067e-05 -7.279731e-05
N 3.155730e+00 -3.713443e+00 1.861731e+00 1.627387e-04 -4.101277e-04 -4.604217e-05
N 3.160782e+00 -3.766869e+00 6.904589e+00 1.270879e-04 1.193467e-04 3.882300e-06
N 3.115864e+00 -3.742451e+00 -3.385013e+00 5.312202e-06 2.593716e-05 -7.515424e-05
N 1.569331e+00 -9.622378e-01 1.854764e+00 -4.124127e-04 1.126871e-03 -2.315592e-05
N 1.573385e+00 -9.081660e-01 6.880370e+00 -1.368310e-04 -2.839807e-05 -7.543997e-06
N 1.522829e+00 -9.258388e-01 -3.286082e+00 -9.491702e-05 6.532796e-05 -2.090764e-05
N 3.156409e+00 1.793727e+00 1.798950e+00 -1.038938e-04 1.250443e-05 -1.022110e-04
N 3.120853e+00 1.771739e+00 6.942942e+00 -4.514397e-05 1.858056e-05 -1.719327e-05
N 3.103727e+00 1.771168e+00 -3.369012e+00 -4.706627e-05 6.153229e-06 -6.744617e-05
N 6.338865e+00 -3.713994e+00 1.869096e+00 4.015619e-04 -2.442428e-05 -1.761235e-04
N 6.299061e+00 -3.741461e+00 6.944543e+00 2.898421e-05 7.588067e-06 -7.644338e-05
N 6.336708e+00 -3.719538e+00 -3.382740e+00 4.684961e-05 -5.429675e-05 -9.027474e-05
N 4.746997e+00 -9.589119e-01 1.882890e+00 -6.466960e-04 -2.641677e-04 2.864745e-04
N 4.749388e+00 -9.532186e-01 6.937062e+00 -8.941161e-05 -7.048913e-05 -7.825770e-05
N 4.745823e+00 -9.571848e-01 -3.392307e+00 -6.804493e-05 -4.219701e-06 -9.586669e-05
N -3.243111e+00 1.824986e+00 1.831825e+00 7.100493e-04 1.531494e-04 -4.640712e-04
N -3.213217e+00 1.844681e+00 6.889862e+00 7.292639e-05 -3.341896e-05 -1.195575e-04
N -3.162701e+00 1.826361e+00 -3.344206e+00 3.630397e-05 2.950911e-05 -1.082876e-04
N -1.059866e-02 -3.709544e+00 1.802525e+00 -9.801267e-05 -1.826419e-04 3.722043e-05
N 2.112906e-02 -3.743918e+00 6.955126e+00 -1.490208e-07 6.532351e-05 -7.110490e-05
N 1.981573e-02 -3.688685e+00 -3.304360e+00 1.967660e-05 7.323655e-06 -9.621621e-05
N -1.606924e+00 -1.003568e+00 1.838514e+00 4.826883e-04 -1.535484e-04 1.447675e-06
N -1.615321e+00 -9.607989e-01 6.876777e+00 -6.560710e-05 -5.142240e-05 -2.184761e-04
N -1.569058e+00 -9.309998e-01 -3.279863e+00 -3.597518e-05 2.470696e-05 -1.059129e-04
