108
Energy=-1626826.760308 Lattice="9.540615 0.000000 0.000000 -4.778857 8.256010 0.000000 0.004462 0.017506 15.421699" Stress="-0.000000 -0.000002 0.000001 -0.000002 -0.000004 0.000004 0.000001 0.000004 0.000004" Properties=species:S:1:pos:R:3:forces:R:3
Al 1.572292 0.869783 2.443298 -0.001296 -0.000035 -0.000887
Al 1.565464 0.908719 7.526679 0.000233 -0.000077 0.000542
Al 1.546166 0.871337 -2.705076 0.000143 -0.000511 0.000168
Al -0.028582 3.631746 2.427561 0.000053 -0.000341 0.000242
Al -0.014737 3.616502 7.548689 0.000154 -0.000402 0.000440
Al -0.039178 3.609946 -2.702506 -0.000116 -0.000003 -0.000238
Al 3.157942 -1.872897 2.397813 -0.001072 -0.000126 -0.001009
Ga 3.171342 -1.854364 7.569267 0.000032 -0.000019 0.000620
Ga 3.148585 -1.882701 -2.695978 0.000242 0.000158 0.000653
Al -4.803659 0.874100 2.452643 0.000189 -0.000043 0.000237
Al -4.795839 0.898742 7.542722 0.000298 -0.000217 0.000196
Ga -4.795977 0.876818 -2.721862 0.000407 -0.000406 -0.000325
Ga -6.385719 3.631554 2.436901 0.000110 0.000023 0.000134
Al -6.379696 3.627926 7.544062 -0.000219 0.000036 0.000478
Ga -6.381201 3.627896 -2.708968 0.000211 0.000014 0.000062
Al -3.194038 -1.868697 2.429080 -0.000156 0.000147 -0.000099
Ga -3.188283 -1.852524 7.567562 -0.000006 0.000060 0.000332
Ga -3.188161 -1.866197 -2.724659 -0.000118 0.000084 0.000250
Ga -1.609535 0.862766 2.447546 0.000637 0.000315 -0.000607
Al -1.607710 0.891093 7.527911 0.000478 0.000256 0.000291
Al -1.601937 0.873029 -2.714832 0.000140 -0.000562 0.000478
Ga -3.208335 3.643305 2.429250 0.000469 0.000026 0.000484
Ga -3.217165 3.631529 7.547855 0.000212 -0.000379 0.000590
Al -3.205114 3.634764 -2.708223 -0.000064 -0.000008 0.000230
Al -0.020880 -1.866385 2.407300 -0.000635 -0.000280 0.000318
Ga -0.032886 -1.858850 7.560335 0.000429 -0.000307 0.001066
Al -0.024481 -1.869316 -2.709693 0.000168 -0.000195 0.000199
Al -0.027109 1.794928 4.992796 0.000894 0.000151 0.000098
Ga -0.029908 1.777412 -5.290911 -0.000512 0.000049 0.001113
Ga -0.027277 1.782419 -0.148022 -0.000173 0.000030 0.001902
Ga 3.163481 -3.716417 4.985533 -0.000127 0.000409 0.000329
Ga 3.163478 -3.718624 -5.275978 -0.000353 0.000097 0.000629
Al 3.152092 -3.712710 -0.141803 -0.000367 0.000369 -0.000127
Ga 1.556454 -0.947651 4.966614 -0.000734 0.000371 0.000790
Ga 1.559965 -0.962736 -5.278865 -0.000878 0.000653 0.000487
Al 1.550254 -0.967471 -0.138085 -0.000319 -0.000640 0.000633
Al 3.160357 1.803828 5.000385 0.000383 -0.000239 -0.000233
Ga 3.156001 1.788351 -5.317092 -0.000043 -0.000107 0.000699
Ga 3.147246 1.780157 -0.121392 -0.000392 0.000551 -0.000724
Ga 6.352908 -3.710996 4.994456 -0.000483 0.000130 0.000230
Ga 6.348079 -3.708965 -5.299804 0.000005 -0.000202 0.000055
Ga 6.335976 -3.704725 -0.126849 -0.000173 -0.000393 -0.000094
Ga 4.761785 -0.935792 4.964699 -0.000720 0.000441 0.000636
Al 4.758994 -0.953450 -5.297164 -0.000173 0.000283 -0.000114
Ga 4.751640 -0.964719 -0.099592 -0.000905 -0.000223 -0.000837
Al -3.204719 1.802218 5.000337 -0.002897 -0.002918 0.000466
Ga -3.204872 1.780672 -5.296118 0.000040 -0.000220 0.000456
Ga -3.199963 1.800749 -0.149067 0.000307 0.000275 0.000073
Al -0.026873 -3.698716 4.986192 -0.000070 0.000099 0.000336
Al -0.027141 -3.703733 -5.279616 -0.000055 -0.000213 0.001006
Al -0.003910 -3.685647 -0.152171 -0.000234 0.000143 -0.000274
Al -1.602565 -0.945672 4.979748 -0.000028 -0.002015 0.000708
Al -1.607721 -0.955748 -5.283919 -0.000360 0.000259 0.000382
Al -1.594296 -0.969302 -0.143020 0.000639 0.000965 -0.000312
N 1.566405 0.934369 4.362921 0.000204 -0.000151 0.000623
N 1.557991 0.872500 -5.981683 0.000371 -0.000577 -0.000789
N 1.564188 0.825039 -0.791526 0.000269 -0.000286 0.000092
N -0.025414 3.586265 4.339688 -0.000249 -0.000669 -0.000361
N -0.028268 3.616107 -5.963948 -0.000010 0.000032 -0.000554
N -0.069187 3.648364 -0.789814 -0.000006 0.000030 0.000390
N 3.156013 -1.873663 4.307339 0.000460 -0.000018 -0.000593
N 3.198067 -1.856892 -5.878373 0.000160 0.000040 -0.000411
N 3.121270 -1.895617 -0.706747 -0.000556 0.000254 0.000420
N -4.798921 0.938570 4.364006 0.001811 0.001045 0.000394
N -4.795145 0.830675 -5.958121 0.000435 -0.000311 -0.000564
N -4.799104 0.868323 -0.762794 0.000501 0.000066 0.000288
N -6.343417 3.610253 4.410553 0.000267 -0.000147 -0.000290
N -6.340787 3.649792 -5.951308 0.000401 0.000376 -0.000759
N -6.345516 3.648693 -0.731090 0.000345 0.000238 0.000133
N -3.151674 -1.847793 4.341663 0.000478 -0.000056 -0.000719
N -3.193714 -1.827306 -5.871191 0.000128 0.000320 -0.000008
N -3.161773 -1.848108 -0.746494 0.000237 0.000118 -0.000132
N -1.617298 0.877542 4.435609 0.000947 0.003072 -0.001668
N -1.615862 0.826890 -5.964561 0.000639 -0.000700 -0.000597
N -1.617438 0.823649 -0.795802 0.000553 -0.000777 0.000145
N -3.250906 3.613622 4.413944 0.000197 0.000622 -0.001119
N -3.254266 3.651480 -5.895487 -0.000126 -0.000004 -0.000370
N -3.210152 3.679021 -0.779004 0.000119 -0.000142 -0.000217
N -0.064485 -1.891956 4.334669 0.000036 -0.000499 -0.000305
N -0.067545 -1.901426 -5.877758 0.000247 -0.000206 -0.000489
N -0.024590 -1.872599 -0.772302 0.000281 -0.000051 -0.000568
N 0.017355 1.811319 1.843958 0.000221 0.000457 -0.002148
N -0.022237 1.805185 6.922146 -0.000217 0.000036 -0.000706
N -0.025404 1.789568 -3.290677 -0.000066 0.000218 -0.000223
N 3.203259 -3.695561 1.783877 -0.000038 0.000338 -0.000052
N 3.208287 -3.721263 6.957287 -0.000043 0.000096 -0.000301
N 3.163759 -3.761729 -3.295895 -0.000093 -0.000033 -0.000217
N 1.558483 -0.953632 1.804024 0.001443 0.000886 0.000057
N 1.571904 -0.906034 6.945461 -0.000668 0.000729 -0.000554
N 1.526229 -0.937001 -3.296149 -0.000147 0.000401 -0.000257
N 3.153304 1.746230 1.849527 0.000169 -0.000723 0.000724
N 3.160529 1.805509 6.933337 -0.000270 -0.000298 -0.000319
N 3.106943 1.766932 -3.335524 -0.000719 0.000004 -0.000306
N 6.300110 -3.685781 1.852966 -0.000231 0.000191 -0.000059
N 6.345140 -3.740902 6.979640 0.000041 -0.000492 -0.000122
N 6.297756 -3.740348 -3.319489 -0.000240 -0.000234 -0.000102
N 4.753526 -0.952530 1.879362 0.000605 0.000183 0.000674
N 4.757003 -0.901030 6.937614 -0.000325 0.000378 -0.000331
N 4.745529 -0.962059 -3.389201 -0.000508 -0.000001 -0.000169
N -3.241525 1.771076 1.828502 -0.000620 -0.000086 -0.000187
N -3.204292 1.759416 6.922472 -0.000047 -0.000344 -0.000295
N -3.161446 1.815606 -3.303591 0.000472 0.000436 -0.000077
N -0.017409 -3.658824 1.762210 0.000300 0.000148 0.000094
N -0.058853 -3.711876 6.896587 -0.000128 -0.000064 -0.000761
N 0.020345 -3.686163 -3.349459 0.000306 0.000503 0.000121
N -1.608357 -1.001741 1.778536 -0.000108 0.000058 0.000619
N -1.605360 -0.903002 6.888902 -0.000442 -0.000081 -0.000081
N -1.564286 -0.931312 -3.360173 0.000019 0.000361 -0.000145
