108
Energy=-1.626827e+06 Lattice="9.539341e+00 0.000000e+00 0.000000e+00 -4.769491e+00 8.260735e+00 0.000000e+00 -1.365328e-02 1.971595e-03 1.541489e+01" Stress="-7.629701e-06 3.830688e-06 -5.469115e-04 1.232194e-05 1.572320e-04 6.055750e-05 -5.553137e-04 5.541235e-05 -1.420933e-04" Properties=species:S:1:pos:R:3:forces:R:3 Config_type=AlGaN_super3_26_0_47.xyz
Al 1.568723e+00 8.680306e-01 2.436266e+00 -4.152296e-05 -9.819175e-05 -1.441359e-04
Al 1.555921e+00 8.828598e-01 7.548135e+00 -6.736634e-05 4.452212e-06 -1.107310e-04
Al 1.575917e+00 8.695153e-01 -2.723550e+00 -3.040145e-05 -3.044236e-06 1.148776e-05
Al -1.644501e-02 3.647496e+00 2.427947e+00 -2.343628e-04 -1.962498e-04 -2.006919e-05
Al -9.317037e-03 3.631815e+00 7.514984e+00 -4.606438e-05 -1.369350e-05 2.445066e-06
Ga -1.202486e-02 3.631210e+00 -2.683626e+00 -3.316203e-05 4.544872e-06 1.719076e-05
Al 3.161540e+00 -1.864391e+00 2.407375e+00 1.080183e-04 -1.928641e-04 -8.854740e-05
Ga 3.150302e+00 -1.868801e+00 7.550673e+00 -5.431230e-05 1.267171e-05 -2.395978e-05
Ga 3.166126e+00 -1.850166e+00 -2.697820e+00 -5.448980e-06 8.491498e-06 4.547201e-05
Al -4.799970e+00 8.586324e-01 2.396400e+00 6.018714e-06 -1.423831e-05 1.878443e-05
Ga -4.813464e+00 8.715275e-01 7.585525e+00 -1.579677e-05 -1.259648e-05 5.507870e-06
Al -4.791792e+00 8.628213e-01 -2.715474e+00 2.669048e-05 -9.437544e-06 9.517406e-05
Ga -6.410557e+00 3.631821e+00 2.440527e+00 2.200715e-05 1.049414e-05 3.777060e-05
Al -6.402796e+00 3.640693e+00 7.536887e+00 -6.069841e-05 4.948548e-05 8.792641e-05
Ga -6.395295e+00 3.617975e+00 -2.710641e+00 -3.261104e-05 1.719213e-05 1.296738e-05
Al -3.223057e+00 -1.880563e+00 2.398544e+00 1.102663e-04 1.952787e-04 6.238770e-05
Al -3.207666e+00 -1.891636e+00 7.553192e+00 -2.493089e-05 1.427875e-05 1.775734e-05
Al -3.207592e+00 -1.858821e+00 -2.690440e+00 -1.485739e-05 -1.861315e-06 1.696385e-05
Ga -1.616591e+00 8.737563e-01 2.413153e+00 -4.625690e-05 -7.462263e-06 -6.046187e-06
Ga -1.594358e+00 8.751585e-01 7.546191e+00 7.055996e-06 3.111039e-05 -3.255274e-06
Al -1.616308e+00 8.677050e-01 -2.687727e+00 -1.351021e-05 3.991035e-06 1.007849e-05
Ga -3.192446e+00 3.630143e+00 2.428013e+00 2.897267e-05 1.571079e-05 1.403314e-05
Ga -3.208531e+00 3.647351e+00 7.533615e+00 -2.215282e-05 1.514060e-05 5.235810e-06
Ga -3.191797e+00 3.617314e+00 -2.682655e+00 -2.187083e-05 1.570208e-05 1.074193e-05
Ga -1.795759e-02 -1.858191e+00 2.426550e+00 -7.461488e-05 1.284403e-05 4.332311e-05
Al -2.578526e-02 -1.872326e+00 7.541880e+00 2.370726e-06 2.437388e-05 8.638853e-06
Ga -2.028230e-02 -1.844944e+00 -2.697956e+00 -2.114506e-05 9.853771e-06 1.120960e-05
Al -7.848872e-03 1.807866e+00 4.974103e+00 -2.659195e-04 1.000440e-04 3.686968e-04
Ga 4.693589e-03 1.790561e+00 -5.279334e+00 -3.713245e-05 1.735029e-06 2.371596e-05
Ga -2.122227e-02 1.790203e+00 -1.393975e-01 -3.097144e-05 6.045732e-06 3.402258e-05
Al 3.164590e+00 -3.705198e+00 4.964668e+00 -6.901532e-05 3.292862e-04 -9.791956e-05
Ga 3.172406e+00 -3.697771e+00 -5.294088e+00 -2.867482e-05 -7.058945e-06 1.704849e-05
Al 3.166727e+00 -3.699212e+00 -1.120918e-01 6.235648e-05 1.230560e-05 1.308833e-04
Al 1.562078e+00 -9.592658e-01 4.983024e+00 -4.559933e-05 -1.342533e-04 2.761150e-04
Al 1.581410e+00 -9.422362e-01 -5.303815e+00 -2.844463e-05 -9.174382e-06 1.066386e-05
Al 1.577113e+00 -9.528545e-01 -1.288318e-01 8.376485e-05 -3.707412e-05 -2.647452e-05
Ga 3.137824e+00 1.793813e+00 4.987528e+00 5.602413e-06 2.501583e-05 2.686832e-05
Al 3.153204e+00 1.779865e+00 -5.292917e+00 -1.364946e-05 4.377090e-06 1.491698e-06
Ga 3.157523e+00 1.773507e+00 -1.366359e-01 -2.654572e-05 3.155780e-06 1.165746e-05
Al 6.322169e+00 -3.710146e+00 4.993388e+00 -2.157695e-05 -6.190775e-05 4.980157e-05
Ga 6.338541e+00 -3.705818e+00 -5.309605e+00 -4.372214e-05 3.142445e-06 2.058151e-05
Al 6.321432e+00 -3.688166e+00 -1.274154e-01 -2.907399e-05 1.674898e-05 -2.931807e-05
Ga 4.738258e+00 -9.748505e-01 4.959305e+00 -6.371550e-05 -3.168721e-05 2.549518e-05
Al 4.749084e+00 -9.552701e-01 -5.268473e+00 -2.748377e-05 -7.058259e-06 1.206705e-05
Al 4.753516e+00 -9.631874e-01 -1.374217e-01 -2.702353e-05 -7.673300e-05 1.014030e-05
Ga -3.208069e+00 1.803054e+00 4.981104e+00 -4.783572e-05 -1.125830e-05 5.043373e-06
Ga -3.208042e+00 1.785772e+00 -5.258414e+00 -2.785492e-05 5.518635e-06 3.594157e-06
Al -3.204198e+00 1.777301e+00 -1.541868e-01 2.213063e-05 4.265802e-05 1.518268e-05
Al -2.807146e-02 -3.698405e+00 5.004048e+00 5.867945e-06 1.862403e-05 1.593427e-05
Ga -2.310206e-02 -3.705367e+00 -5.300111e+00 -3.648688e-05 3.381389e-06 5.714280e-06
Ga -2.041657e-02 -3.703444e+00 -1.373936e-01 -2.188647e-05 3.254064e-06 1.494375e-05
Ga -1.613280e+00 -9.773425e-01 4.997440e+00 -2.233596e-05 1.164232e-05 4.685315e-06
Ga -1.612208e+00 -9.656680e-01 -5.284070e+00 -3.141328e-05 1.412187e-06 1.472931e-05
Al -1.631692e+00 -9.585877e-01 -1.516434e-01 -4.108058e-05 -1.140666e-05 2.607385e-05
N 1.522265e+00 8.471239e-01 4.350998e+00 1.216643e-04 2.254432e-05 -2.075664e-04
N 1.611632e+00 8.557012e-01 -5.940692e+00 3.458891e-06 1.920244e-05 5.248062e-05
N 1.569905e+00 8.255255e-01 -8.097070e-01 4.554352e-05 -5.160447e-06 -1.409036e-05
N -1.994045e-02 3.635584e+00 4.361995e+00 1.786866e-05 -3.049019e-06 -2.697083e-06
N -1.717244e-02 3.624952e+00 -5.982523e+00 4.279653e-05 4.475696e-06 -9.920171e-06
N -2.357978e-02 3.680359e+00 -7.118470e-01 5.322673e-05 -4.943500e-06 -1.561848e-05
N 3.106357e+00 -1.894924e+00 4.334614e+00 6.437583e-05 -1.797139e-04 8.220907e-05
N 3.166062e+00 -1.822890e+00 -5.878656e+00 3.591478e-05 -4.806322e-07 -8.608000e-06
N 3.156895e+00 -1.872260e+00 -7.030233e-01 1.650039e-05 8.804253e-05 -4.994834e-05
N -4.799140e+00 8.762334e-01 4.302758e+00 8.357488e-06 -1.009995e-05 -2.351848e-05
N -4.829036e+00 8.510181e-01 -5.853119e+00 1.798160e-05 -2.019111e-06 -9.172237e-06
N -4.757520e+00 8.458977e-01 -7.860366e-01 -5.798709e-06 9.238378e-05 -1.475721e-04
N -6.390731e+00 3.682481e+00 4.419782e+00 3.953207e-05 5.727970e-06 -3.370868e-05
N -6.378953e+00 3.581269e+00 -5.949867e+00 5.939093e-06 -5.816395e-06 -3.735829e-05
N -6.432760e+00 3.649277e+00 -7.350734e-01 3.174247e-05 -6.369269e-06 -1.108972e-05
N -3.203772e+00 -1.927919e+00 4.314130e+00 -1.048695e-05 3.150986e-05 -6.417840e-05
N -3.244116e+00 -1.848287e+00 -5.948441e+00 3.129483e-05 -2.648370e-06 -1.281147e-05
N -3.209900e+00 -1.876015e+00 -7.608290e-01 3.614550e-05 1.475336e-06 -1.665234e-05
N -1.573082e+00 8.957591e-01 4.388711e+00 6.079199e-05 1.661516e-06 -4.350743e-06
N -1.602079e+00 8.817432e-01 -5.902367e+00 2.694226e-05 -3.606179e-07 -9.637275e-06
N -1.649609e+00 8.529383e-01 -7.669966e-01 3.660105e-05 9.178750e-06 -3.798429e-05
N -3.207651e+00 3.682900e+00 4.408217e+00 6.589046e-05 -7.447370e-05 2.293555e-05
N -3.193714e+00 3.629535e+00 -5.913024e+00 3.289341e-05 4.630403e-06 -1.788135e-05
N -3.152808e+00 3.608695e+00 -7.051176e-01 -3.642542e-05 -6.996619e-05 -1.323142e-05
N 1.584106e-02 -1.895718e+00 4.402107e+00 2.003104e-05 4.977730e-06 5.025602e-06
N 2.717520e-02 -1.847298e+00 -5.948925e+00 3.383492e-05 1.384764e-07 -1.586045e-05
N -1.789305e-02 -1.818565e+00 -7.185768e-01 -3.563168e-07 -5.302754e-06 -2.581868e-06
N 2.189671e-02 1.821642e+00 1.842048e+00 1.335177e-04 -2.614304e-05 6.286675e-05
N 2.220033e-02 1.821196e+00 6.899331e+00 2.576073e-05 1.075434e-05 -8.174055e-05
N -2.037150e-02 1.750873e+00 -3.286708e+00 3.856402e-05 -8.132319e-06 -1.280996e-05
N 3.199168e+00 -3.685370e+00 1.806071e+00 4.498554e-05 4.745150e-05 1.890405e-05
N 3.199210e+00 -3.725430e+00 6.883272e+00 2.686415e-05 -4.859832e-05 -6.255930e-05
N 3.164171e+00 -3.706248e+00 -3.327034e+00 2.665871e-05 -4.468437e-06 -2.436372e-05
N 1.607410e+00 -9.276166e-01 1.786980e+00 -1.307920e-04 2.853839e-04 1.186861e-04
N 1.524660e+00 -9.285810e-01 6.909059e+00 6.485017e-06 -1.751552e-05 -1.147146e-04
N 1.570669e+00 -9.109203e-01 -3.385293e+00 3.275735e-05 -6.159336e-06 -2.049348e-05
N 3.148415e+00 1.747435e+00 1.843997e+00 -5.656093e-06 -1.259123e-05 -2.129209e-05
N 3.111377e+00 1.815974e+00 6.966463e+00 2.913378e-05 -5.204194e-05 -4.477881e-05
N 3.157359e+00 1.746837e+00 -3.356789e+00 1.459065e-05 7.953226e-06 1.072900e-05
N 6.290325e+00 -3.685972e+00 1.786276e+00 1.009159e-04 -3.653004e-05 -9.572286e-05
N 6.330521e+00 -3.703744e+00 6.924286e+00 1.281962e-05 1.245620e-05 -6.678891e-06
N 6.335561e+00 -3.655585e+00 -3.329653e+00 3.562854e-05 -1.412334e-05 -1.900185e-05
N 4.744555e+00 -9.595591e-01 1.793097e+00 1.061728e-05 -2.596708e-06 -1.750887e-05
N 4.784552e+00 -9.785292e-01 6.931763e+00 4.277161e-05 -1.064324e-05 -1.160321e-05
N 4.793812e+00 -9.393008e-01 -3.343045e+00 3.372854e-05 -3.719177e-06 -2.036793e-05
N -3.247541e+00 1.770517e+00 1.762942e+00 -2.635099e-05 -7.272102e-06 -3.646467e-05
N -3.215291e+00 1.788720e+00 6.940259e+00 1.895368e-05 -1.190994e-05 -1.790477e-05
N -3.199689e+00 1.747242e+00 -3.279122e+00 2.579210e-05 -1.554896e-05 -4.784056e-06
N -3.031971e-02 -3.711576e+00 1.818572e+00 2.101078e-05 -2.224988e-05 -2.968343e-05
N -7.321056e-02 -3.682973e+00 6.924448e+00 3.442779e-05 -2.295685e-06 -3.288629e-05
N -2.043133e-02 -3.705669e+00 -3.322255e+00 2.679274e-05 -1.498401e-05 -5.415479e-07
N -1.659404e+00 -9.842690e-01 1.764882e+00 -6.074674e-05 -4.119113e-05 1.173811e-06
N -1.622523e+00 -1.010014e+00 6.973826e+00 1.095446e-05 -1.172906e-05 -2.317181e-05
N -1.656020e+00 -9.366608e-01 -3.295734e+00 3.096107e-05 -5.812996e-06 -1.968934e-05
