108
Energy=-1993030.781456 Lattice="9.587671 0.000000 0.000000 -4.798841 8.300828 0.000000 0.007913 0.002982 15.512867" Stress="0.000001 -0.000001 0.000001 -0.000001 -0.000001 0.000000 0.000001 0.000000 -0.000002" Properties=species:S:1:pos:R:3:forces:R:3
Al 1.573283 0.887226 2.420712 -0.000751 0.000325 0.000054
Al 1.581567 0.869465 7.633206 0.000300 -0.000057 0.000538
Al 1.556485 0.882719 -2.749531 0.004354 -0.000847 0.000868
Al -0.025081 3.646963 2.394754 -0.000348 -0.000320 0.000719
Ga -0.032529 3.653993 7.628920 -0.000049 0.000148 0.000548
Ga -0.042681 3.636440 -2.725488 0.000071 0.000766 0.001172
Ga 3.172975 -1.897697 2.430939 -0.000104 0.000245 0.000799
Al 3.164561 -1.883130 7.616790 0.000142 -0.000022 0.000402
Ga 3.148130 -1.898661 -2.741558 0.000055 0.000358 0.000731
Ga -4.824657 0.886881 2.429720 0.000305 0.000137 0.000383
Ga -4.823976 0.880844 7.622691 0.000320 -0.000126 0.000162
Ga -4.837100 0.894259 -2.733538 -0.000483 -0.000184 0.000227
Ga -6.431336 3.647301 2.406249 0.000412 -0.000017 0.000690
Ga -6.413633 3.647398 7.621953 0.000064 0.000081 0.000455
Ga -6.414545 3.637775 -2.716260 -0.000032 -0.000299 0.000248
Al -3.222175 -1.900733 2.423832 0.000336 0.000502 0.000496
Al -3.223346 -1.885033 7.616302 0.000024 0.000086 0.000333
Ga -3.209922 -1.889967 -2.714292 -0.000124 -0.000006 0.000325
Ga -1.611160 0.894824 2.421809 0.001172 0.000203 -0.000177
Ga -1.613847 0.890044 7.622424 0.000112 -0.000332 0.000204
Ga -1.603760 0.888585 -2.729355 -0.000284 -0.000651 0.000679
Al -3.203357 3.656114 2.420971 -0.000080 -0.000152 0.000557
Al -3.208549 3.663277 7.625992 0.000003 -0.000070 0.000508
Al -3.213599 3.666650 -2.730947 -0.000101 -0.000039 0.000354
Ga -0.010634 -1.880067 2.451761 0.000072 0.000013 0.000668
Ga 0.003708 -1.875211 7.609164 0.000108 -0.000135 0.000476
Al -0.005810 -1.880565 -2.748295 0.000050 -0.000052 0.000456
Ga -0.000371 1.802291 5.010285 -0.000245 -0.000208 0.000326
Al -0.007052 1.799560 -5.314693 0.000086 0.000036 -0.000239
Al 0.002188 1.819307 -0.148422 -0.000099 -0.000186 0.001363
Ga 3.173044 -3.727449 5.020287 -0.000419 0.000319 0.000571
Al 3.162355 -3.729367 -5.330124 -0.000070 0.000185 0.000479
Al 3.183903 -3.746294 -0.140333 0.000073 0.000011 -0.000184
Al 1.587841 -0.944819 5.034042 -0.000183 -0.000031 0.000401
Al 1.581704 -0.948191 -5.316808 -0.000149 0.000144 0.000603
Ga 1.577730 -0.944350 -0.165784 -0.000384 0.000323 -0.000544
Ga 3.152622 1.791049 5.024828 0.000039 -0.000017 0.000538
Al 3.143190 1.791128 -5.314884 -0.000052 -0.000063 0.000628
Al 3.144783 1.804798 -0.148889 -0.000167 -0.000143 -0.000612
Ga 6.362696 -3.724871 5.012114 0.000460 0.000274 0.000652
Ga 6.357537 -3.741137 -5.315774 0.000195 -0.000026 0.000552
Al 6.355649 -3.743365 -0.132292 0.000094 -0.000033 -0.000774
Ga 4.770648 -0.973201 5.036756 -0.000226 0.000015 0.000216
Ga 4.750356 -0.972237 -5.332468 -0.000198 0.000084 0.000396
Ga 4.769578 -0.972878 -0.137893 -0.000302 0.000241 -0.000711
Ga -3.217500 1.822186 5.026835 -0.000096 -0.000004 0.000174
Ga -3.218263 1.824690 -5.306680 -0.000168 0.000010 0.000254
Ga -3.215119 1.826222 -0.155594 -0.000123 -0.000123 -0.000235
Ga -0.003039 -3.728555 5.023863 0.000011 0.000048 0.000385
Ga -0.004258 -3.731176 -5.302407 -0.000138 0.000001 0.000375
Ga -0.010198 -3.730378 -0.161938 -0.000094 -0.000010 -0.000616
Ga -1.619947 -0.965719 5.025970 -0.000186 -0.000039 0.000111
Ga -1.611790 -0.960598 -5.313043 -0.000196 -0.000108 0.000208
Ga -1.610474 -0.968585 -0.143755 -0.000285 0.000131 -0.000497
N 1.575914 0.833235 4.339553 0.000157 -0.000098 -0.000183
N 1.569372 0.876504 -5.945883 -0.000014 0.000048 -0.000331
N 1.573133 0.933639 -0.815076 -0.000603 0.000147 -0.002076
N -0.026825 3.651583 4.325422 -0.000191 -0.000677 -0.000219
N -0.075259 3.621493 -5.900410 0.000058 -0.000102 -0.000483
N -0.028613 3.647499 -0.721573 -0.000005 0.000088 -0.001096
N 3.132357 -1.861311 4.415021 0.000122 -0.000103 -0.000441
N 3.118929 -1.909876 -5.960158 0.000121 0.000015 -0.000447
N 3.171205 -1.940909 -0.756224 0.000214 0.000017 -0.000701
N -4.818669 0.882423 4.408370 0.000114 0.000053 -0.000185
N -4.863300 0.909873 -5.911326 0.000195 -0.000020 -0.000365
N -4.865984 0.908550 -0.749414 0.000303 -0.000004 -0.000357
N -6.415732 3.647975 4.390481 -0.000162 0.000053 -0.000635
N -6.415332 3.600794 -5.910189 -0.000130 0.000114 -0.000554
N -6.460981 3.625008 -0.723562 -0.000033 0.000161 -0.000288
N -3.218128 -1.884244 4.338801 0.000125 -0.000182 -0.000530
N -3.218577 -1.886787 -5.987645 0.000065 -0.000049 -0.000333
N -3.215563 -1.936468 -0.745515 0.000117 -0.000076 -0.000325
N -1.617855 0.888312 4.398037 0.000389 -0.000122 0.000089
N -1.583001 0.909978 -5.911121 0.000300 -0.000141 -0.000290
N -1.570800 0.910814 -0.743890 0.000468 -0.000136 -0.000591
N -3.214299 3.654626 4.330947 0.000138 -0.000005 -0.000403
N -3.184665 3.674525 -5.977267 0.000066 -0.000159 -0.000300
N -3.170631 3.681274 -0.818210 0.000138 -0.000103 -0.000373
N 0.028155 -1.854907 4.435950 0.000142 -0.000060 -0.000375
N 0.024388 -1.860050 -5.922982 0.000041 -0.000009 -0.000427
N -0.016142 -1.880822 -0.834665 0.000190 -0.000064 -0.000645
N 0.028895 1.825246 1.781880 -0.000273 0.000102 -0.000095
N 0.031091 1.782457 6.998103 -0.000007 0.000272 -0.000457
N 0.016960 1.783585 -3.397443 0.000047 0.000202 -0.000286
N 3.175946 -3.776901 1.783204 -0.000063 -0.000406 0.000035
N 3.138333 -3.704400 7.012164 0.000063 0.000056 -0.000493
N 3.133713 -3.755856 -3.407726 -0.000048 -0.000014 -0.000743
N 1.577630 -0.914421 1.807468 -0.000060 0.000410 0.000274
N 1.628376 -0.926552 6.967352 -0.000276 0.000252 -0.000452
N 1.538001 -0.934852 -3.383076 -0.000432 0.001266 -0.000087
N 3.126088 1.776667 1.767324 -0.000027 -0.000192 0.000113
N 3.125393 1.779745 7.003447 -0.000258 -0.000091 -0.000272
N 3.123640 1.781747 -3.397670 -0.002399 -0.000726 0.000540
N 6.325512 -3.704793 1.787358 0.000316 -0.000154 -0.000046
N 6.369122 -3.683727 6.999760 -0.000125 -0.000104 -0.000416
N 6.365967 -3.734054 -3.347649 -0.000071 -0.000199 -0.000430
N 4.811215 -0.985656 1.832182 -0.000081 -0.000117 0.000353
N 4.772303 -1.012809 7.031239 -0.000209 -0.000010 -0.000189
N 4.768823 -0.968577 -3.355022 -0.000177 -0.000109 -0.000338
N -3.220181 1.856311 1.818722 -0.000317 -0.000114 0.000030
N -3.217452 1.859467 7.010626 -0.000084 0.000145 -0.000203
N -3.221074 1.855469 -3.324597 0.000088 0.000269 -0.000309
N 0.025881 -3.747577 1.817328 -0.000062 0.000074 0.000399
N 0.026504 -3.753405 7.006418 0.000019 0.000039 -0.000448
N 0.019415 -3.709748 -3.311606 0.000095 -0.000002 -0.000429
N -1.653173 -0.990017 1.831183 -0.000471 -0.000053 0.000511
N -1.658889 -0.985206 7.008089 -0.000180 0.000093 -0.000205
N -1.582137 -0.986781 -3.335756 -0.000057 0.000139 -0.000185
