108
Energy=-1306398.014545 Lattice="9.490792 0.000000 0.000000 -4.749620 8.214361 0.000000 0.001564 -0.000526 15.310465" Stress="-0.000027 0.000004 -0.000000 0.000004 -0.000027 -0.000001 -0.000001 -0.000001 -0.000017" Properties=species:S:1:pos:R:3:forces:R:3
Al 1.541188 0.880673 2.382643 0.003370 -0.000351 -0.003061
Al 1.556606 0.874066 7.513806 -0.000631 -0.002126 0.000049
Al 1.535759 0.875647 -2.685164 0.002586 -0.001202 -0.002106
Al -0.060327 3.576089 2.409196 0.013221 0.009544 -0.008383
Al -0.032048 3.598848 7.528532 0.001839 -0.000967 -0.003876
Al -0.010954 3.596227 -2.696488 -0.004426 0.003150 -0.003252
Al 3.196759 -1.864209 2.406332 -0.024434 -0.006055 -0.003289
Al 3.156359 -1.862977 7.518096 0.000539 0.000287 -0.000541
Ga 3.147986 -1.871832 -2.706894 -0.000700 -0.001196 0.000218
Al -4.766147 0.894036 2.407400 -0.005115 -0.007102 -0.002707
Al -4.778144 0.867402 7.489829 0.000730 -0.001230 0.000295
Ga -4.775478 0.872944 -2.679190 0.000654 0.000072 0.000392
Al -6.368439 3.602791 2.386753 0.016553 -0.000079 0.009347
Ga -6.354559 3.604073 7.506869 0.000274 0.000802 0.000171
Al -6.372999 3.616884 -2.692482 0.001163 -0.000900 -0.000032
Al -3.185688 -1.842989 2.410873 0.005094 -0.004058 0.001134
Ga -3.203128 -1.864110 7.503354 0.000496 0.000836 0.001305
Al -3.173478 -1.876495 -2.710720 -0.000955 0.001571 0.003601
Al -1.624685 0.870815 2.391530 0.003458 0.001851 0.005859
Ga -1.608505 0.898421 7.482183 0.002335 -0.001824 0.000392
Al -1.595621 0.877087 -2.678248 0.000047 -0.000816 -0.002127
Al -3.187801 3.595025 2.413608 0.003658 0.004892 -0.000816
Al -3.188052 3.613921 7.489821 0.000583 0.000103 -0.000600
Ga -3.179827 3.617097 -2.677446 0.002274 -0.000043 -0.000231
Ga -0.018837 -1.859998 2.408976 0.003278 0.000019 0.000242
Ga -0.002913 -1.863835 7.494172 0.000487 0.000593 0.000750
Al -0.025692 -1.848972 -2.683232 0.002170 0.000210 0.000360
Al -0.032974 1.769560 4.938713 0.002325 0.002137 -0.004058
Al -0.018334 1.795952 -5.234087 0.000303 -0.000931 0.000283
Al -0.032708 1.779805 -0.157889 -0.000292 -0.000467 0.003460
Ga 3.143187 -3.702823 4.951016 -0.001882 0.001292 0.000994
Al 3.149120 -3.692081 -5.299838 0.003374 0.002315 0.009275
Al 3.152765 -3.697902 -0.125699 -0.003566 -0.000513 0.003486
Ga 1.573536 -0.952577 4.945593 -0.001625 0.001324 -0.001078
Al 1.577040 -0.947596 -5.253759 -0.001875 0.000744 0.001278
Al 1.567566 -0.941827 -0.151246 -0.002274 -0.001155 0.008083
Ga 3.142000 1.779186 4.947520 -0.002053 0.000799 -0.000373
Ga 3.118099 1.773971 -5.253912 0.000574 -0.000555 0.001266
Al 3.115475 1.782052 -0.141494 0.002547 0.001086 0.003150
Ga 6.302731 -3.682883 4.933675 0.001034 -0.000762 -0.000738
Al 6.280463 -3.692532 -5.229773 0.000357 -0.000205 -0.000007
Ga 6.295783 -3.697976 -0.131831 0.003283 0.001774 -0.002247
Al 4.738795 -0.942400 4.935162 -0.004228 -0.001636 0.000648
Al 4.718413 -0.964210 -5.258005 -0.000434 0.001403 0.001056
Ga 4.730841 -0.954169 -0.118650 -0.001156 0.000560 -0.005338
Al -3.197819 1.786479 4.938965 0.002842 -0.000535 0.000188
Ga -3.184299 1.791933 -5.265150 -0.000559 -0.001216 0.002644
Al -3.164269 1.777383 -0.121694 -0.006675 0.005482 -0.000764
Al -0.017777 -3.696818 4.945304 -0.000832 0.000595 -0.001280
Ga -0.012993 -3.682452 -5.232338 -0.000556 0.000180 0.001514
Ga -0.020685 -3.689380 -0.142114 0.000967 0.000332 0.000749
Al -1.610293 -0.941093 4.938288 0.001043 0.001078 -0.000707
Ga -1.600540 -0.948406 -5.223635 -0.000099 0.001263 -0.000002
Al -1.598319 -0.931153 -0.163159 0.000890 -0.002034 0.004868
N 1.530845 0.887601 4.268570 -0.006259 0.003818 0.009120
N 1.505908 0.853622 -5.878451 -0.000655 -0.001047 -0.001148
N 1.548360 0.875384 -0.760331 -0.000123 -0.000636 0.000573
N -0.031953 3.574529 4.291463 0.001234 -0.007923 0.003393
N -0.023878 3.602074 -5.861833 0.001201 -0.000112 -0.000500
N -0.061939 3.589321 -0.775394 -0.001711 -0.001544 0.000740
N 3.171065 -1.859523 4.289567 0.009670 0.003702 0.007528
N 3.147299 -1.862307 -5.865132 -0.000266 0.000212 -0.000720
N 3.116265 -1.892773 -0.727587 -0.002622 -0.000008 0.000566
N -4.735372 0.861625 4.322350 0.001629 -0.003828 -0.002551
N -4.772604 0.832748 -5.901618 0.000314 -0.002892 -0.002001
N -4.781258 0.918704 -0.708134 0.004596 0.000957 0.003547
N -6.314945 3.628950 4.327125 0.000038 0.000302 -0.007845
N -6.390988 3.639295 -5.835680 -0.002061 0.001006 0.000066
N -6.360400 3.569578 -0.783718 -0.000176 -0.002410 -0.002116
N -3.177015 -1.814812 4.328576 -0.003201 0.001283 -0.002644
N -3.217091 -1.886559 -5.828006 -0.001539 -0.000855 0.000827
N -3.147545 -1.847444 -0.782432 0.000844 0.001890 -0.005384
N -1.617444 0.876399 4.332132 0.001563 0.001265 0.000423
N -1.562886 0.902665 -5.861926 0.001056 -0.000719 0.000880
N -1.610133 0.884364 -0.761413 0.001249 -0.001453 0.002271
N -3.227366 3.589335 4.326542 0.000327 -0.001644 0.000007
N -3.155469 3.638205 -5.905534 -0.001410 -0.000476 -0.003048
N -3.149437 3.599847 -0.717194 0.004313 -0.005788 0.003501
N -0.056956 -1.882427 4.377373 -0.001407 -0.000969 0.002500
N 0.014091 -1.840532 -5.848353 0.002513 0.001180 -0.000077
N -0.018625 -1.817871 -0.764753 0.001123 0.003439 0.000061
N -0.045787 1.771974 1.782333 0.001453 0.003106 -0.005319
N 0.023920 1.803849 6.854805 -0.000137 0.002674 0.000215
N -0.022990 1.783110 -3.305682 -0.000756 -0.000013 0.001181
N 3.141943 -3.693375 1.813964 0.003070 -0.001913 -0.004922
N 3.151857 -3.689267 6.939637 -0.000753 -0.001242 0.002710
N 3.181637 -3.713898 -3.359658 0.003430 -0.002938 -0.004807
N 1.600161 -0.920422 1.801240 0.005859 -0.004120 -0.010865
N 1.623367 -0.934793 6.916171 -0.002053 0.003411 0.001816
N 1.533597 -0.932339 -3.325986 -0.003430 0.002656 -0.000510
N 3.126610 1.790409 1.798479 0.001677 -0.001561 -0.004381
N 3.132102 1.740882 6.923530 0.000441 -0.001918 0.000579
N 3.096500 1.803252 -3.280278 -0.002669 0.000222 0.001667
N 6.381485 -3.661551 1.828635 -0.030024 -0.005328 0.006140
N 6.261703 -3.712913 6.896857 -0.002373 -0.001832 0.001677
N 6.300460 -3.693962 -3.304731 -0.000297 -0.000222 0.000058
N 4.710839 -0.990555 1.832390 0.015347 0.019338 0.005300
N 4.686745 -0.934661 6.862388 -0.001493 0.001824 -0.002097
N 4.762717 -0.970215 -3.344897 0.001997 -0.000624 -0.000378
N -3.190295 1.790482 1.810381 0.000711 -0.004512 -0.004694
N -3.234053 1.810791 6.866566 -0.001468 0.000967 -0.001746
N -3.154320 1.767312 -3.295991 0.001766 -0.001528 -0.000011
N 0.011392 -3.724823 1.822905 -0.011003 -0.005312 0.001723
N 0.012929 -3.712189 6.857535 0.001706 -0.001334 -0.001329
N -0.055555 -3.666613 -3.257430 -0.002437 0.001029 0.000932
N -1.627321 -0.925122 1.790327 -0.007071 0.001765 -0.010047
N -1.604285 -0.951638 6.845978 -0.000752 0.000887 -0.002171
N -1.598404 -0.948276 -3.249716 -0.000962 0.001435 0.001861
