108
Energy=-1.169072e+06 Lattice="9.481530e+00 0.000000e+00 0.000000e+00 -4.743974e+00 8.209717e+00 0.000000e+00 -4.484319e-04 -9.948690e-04 1.528451e+01" Stress="-2.045898e-04 -1.553674e-04 1.411572e-04 -1.493077e-04 -5.570434e-04 4.080841e-06 1.163191e-04 5.239304e-06 1.801948e-04" Properties=species:S:1:pos:R:3:forces:R:3 Config_type=AlGaN_super3_16_1_22.xyz
Al 1.568495e+00 8.627221e-01 2.408771e+00 3.302705e-04 8.593437e-05 -2.350586e-04
Al 1.565517e+00 8.588936e-01 7.491155e+00 -1.313426e-04 1.402080e-04 -2.559091e-04
Al 1.564119e+00 8.679386e-01 -2.707153e+00 5.216104e-04 3.611241e-04 1.657274e-04
Al -1.986821e-02 3.611093e+00 2.387264e+00 -5.764137e-04 6.680922e-04 8.372192e-05
Al -2.545127e-02 3.610218e+00 7.524029e+00 -2.129121e-04 -4.159587e-04 -1.992997e-04
Al -3.026517e-02 3.621726e+00 -2.716225e+00 -6.188288e-05 4.587293e-05 8.492065e-04
Al 3.128803e+00 -1.860848e+00 2.405408e+00 -7.815530e-04 2.811277e-04 4.450925e-04
Al 3.131024e+00 -1.855660e+00 7.504980e+00 -2.332752e-04 1.134362e-04 7.685247e-05
Al 3.136059e+00 -1.874981e+00 -2.721441e+00 -1.015443e-05 2.188938e-04 -5.450325e-05
Al -4.781048e+00 8.752134e-01 2.423976e+00 2.761294e-04 4.145981e-04 3.228421e-04
Al -4.775977e+00 8.678149e-01 7.491646e+00 6.427701e-04 1.421789e-04 -2.762796e-04
Ga -4.777058e+00 8.697330e-01 -2.716734e+00 1.876238e-04 -7.829730e-05 -2.048268e-05
Al -6.359197e+00 3.597183e+00 2.417221e+00 1.018753e-04 -3.293708e-04 1.242190e-04
Ga -6.342083e+00 3.602303e+00 7.495159e+00 -1.640455e-04 9.006536e-05 -1.027602e-04
Ga -6.357102e+00 3.603736e+00 -2.713049e+00 8.332109e-05 5.842686e-05 2.475859e-04
Ga -3.178062e+00 -1.871073e+00 2.421386e+00 -2.016719e-04 1.684740e-04 -5.597893e-05
Ga -3.200237e+00 -1.868518e+00 7.474489e+00 8.319907e-05 1.905719e-04 1.718919e-04
Al -3.196719e+00 -1.876395e+00 -2.691544e+00 -2.070367e-04 2.212256e-05 -6.680164e-05
Al -1.599034e+00 8.647374e-01 2.421466e+00 -3.605757e-04 1.630180e-04 1.855831e-04
Ga -1.604088e+00 8.842519e-01 7.500208e+00 3.476993e-04 -2.188925e-05 4.618612e-05
Ga -1.600108e+00 8.870723e-01 -2.711435e+00 4.132145e-04 -1.716660e-04 -1.299196e-04
Ga -3.177516e+00 3.614474e+00 2.428362e+00 1.063626e-04 -2.237452e-05 -3.071870e-04
Al -3.189794e+00 3.615753e+00 7.492266e+00 3.776549e-04 -4.644015e-04 -2.094975e-04
Al -3.167606e+00 3.621608e+00 -2.716175e+00 -1.149854e-04 -1.671449e-04 -2.013836e-04
Al -1.335689e-02 -1.844587e+00 2.410642e+00 3.534707e-04 -7.532096e-04 2.062044e-04
Al 3.882324e-03 -1.865760e+00 7.484031e+00 -1.015512e-04 1.994775e-04 1.579958e-04
Ga -1.893984e-03 -1.859377e+00 -2.691622e+00 2.277170e-04 4.168008e-06 1.125641e-04
Ga -1.171960e-02 1.783321e+00 4.938677e+00 9.600803e-05 -3.382530e-05 2.510617e-04
Al -9.883370e-04 1.797314e+00 -5.245535e+00 -4.864744e-04 -2.331412e-04 -7.508044e-05
Ga -7.185917e-03 1.787978e+00 -1.357800e-01 -1.483682e-05 9.971097e-05 -1.395624e-04
Ga 3.149044e+00 -3.675341e+00 4.976127e+00 -5.915362e-04 1.636582e-04 1.080174e-04
Al 3.137932e+00 -3.687467e+00 -5.262127e+00 -1.411023e-04 -7.675310e-05 9.170568e-05
Al 3.146215e+00 -3.675664e+00 -1.656616e-01 -4.287593e-04 1.005176e-04 7.950264e-04
Al 1.561998e+00 -9.532056e-01 4.950310e+00 -2.747604e-04 2.628778e-04 2.207930e-04
Al 1.571712e+00 -9.458007e-01 -5.262202e+00 -4.088845e-04 -3.046843e-04 -3.310163e-04
Al 1.569327e+00 -9.493032e-01 -1.397810e-01 -2.539738e-04 8.046434e-05 1.708629e-04
Al 3.145221e+00 1.779852e+00 4.946790e+00 2.725989e-04 6.086763e-05 -2.186471e-04
Al 3.131904e+00 1.775416e+00 -5.271315e+00 -5.296917e-05 -2.528980e-04 8.587130e-04
Al 3.121846e+00 1.783272e+00 -1.248735e-01 -1.103424e-04 -5.088283e-04 1.423167e-04
Al 6.304876e+00 -3.693502e+00 4.943797e+00 4.775506e-04 -1.873978e-04 4.801940e-04
Al 6.288108e+00 -3.692421e+00 -5.234747e+00 -9.418076e-05 1.832540e-04 -1.398799e-04
Al 6.295175e+00 -3.691926e+00 -1.482507e-01 1.158159e-04 3.111474e-04 -7.302004e-04
Al 4.709109e+00 -9.384138e-01 4.943255e+00 -2.116714e-04 3.807334e-04 4.228909e-04
Al 4.706437e+00 -9.541048e-01 -5.247060e+00 -2.522371e-04 1.070819e-04 2.742026e-04
Ga 4.708544e+00 -9.646315e-01 -1.440302e-01 -1.227376e-04 -1.486308e-04 -3.370483e-04
Al -3.203103e+00 1.772493e+00 4.955007e+00 -1.171111e-04 -4.743778e-05 -3.705470e-05
Al -3.197570e+00 1.802195e+00 -5.262457e+00 -1.314002e-04 2.393286e-04 1.621875e-04
Ga -3.187178e+00 1.790227e+00 -1.301432e-01 -6.457974e-05 -2.367873e-05 1.262206e-04
Al -3.395889e-02 -3.677496e+00 4.945845e+00 2.347252e-04 -2.068675e-04 -3.674036e-04
Al -7.266010e-03 -3.693713e+00 -5.256646e+00 3.235845e-04 4.878992e-04 -2.547817e-04
Ga -2.572924e-02 -3.683273e+00 -1.270904e-01 5.597245e-06 4.086839e-05 -3.572726e-04
Al -1.593539e+00 -9.558115e-01 4.947417e+00 8.178307e-05 -8.971672e-04 9.945116e-04
Ga -1.601670e+00 -9.625175e-01 -5.252317e+00 2.363041e-04 2.201788e-04 1.397548e-04
Al -1.598331e+00 -9.585637e-01 -1.313817e-01 -3.561126e-04 -2.066724e-04 -1.725907e-04
N 1.605165e+00 8.437400e-01 4.321289e+00 -8.454852e-05 -1.337287e-04 -1.485233e-04
N 1.556569e+00 8.695325e-01 -5.875894e+00 6.425589e-05 -3.052017e-05 -7.082740e-06
N 1.600492e+00 8.469039e-01 -7.795074e-01 2.293648e-04 1.164760e-04 3.063611e-04
N 1.133337e-02 3.638791e+00 4.290549e+00 6.478717e-05 8.811994e-05 1.340527e-04
N -2.059626e-02 3.611135e+00 -5.845761e+00 2.391116e-05 3.334883e-07 -1.020353e-04
N -2.647208e-02 3.656435e+00 -7.855401e-01 3.462507e-04 -1.938189e-04 -1.021850e-03
N 3.134028e+00 -1.820498e+00 4.321057e+00 1.965839e-04 -3.306365e-04 -9.987642e-05
N 3.139068e+00 -1.860677e+00 -5.859026e+00 1.041266e-04 7.890961e-05 -7.337153e-05
N 3.093334e+00 -1.885914e+00 -7.966590e-01 -1.083708e-05 1.336392e-05 -2.618369e-04
N -4.768234e+00 8.752822e-01 4.339824e+00 -3.161255e-06 -1.892071e-04 -3.628979e-05
N -4.764057e+00 8.676812e-01 -5.864995e+00 -6.141429e-05 -2.020688e-05 -1.221846e-04
N -4.810047e+00 8.974858e-01 -7.467923e-01 -5.303198e-05 2.390624e-04 1.571130e-04
N -6.347890e+00 3.605805e+00 4.345688e+00 -1.945313e-04 -1.357358e-04 -1.791340e-04
N -6.346287e+00 3.612316e+00 -5.804817e+00 -2.650691e-04 5.143597e-04 -2.550298e-04
N -6.385316e+00 3.580386e+00 -7.308378e-01 -2.728256e-04 2.458581e-04 5.630953e-05
N -3.181265e+00 -1.864370e+00 4.404483e+00 -4.011878e-04 9.703907e-05 -3.315988e-04
N -3.230152e+00 -1.888399e+00 -5.838899e+00 3.407045e-04 -6.883644e-04 -2.858334e-04
N -3.141441e+00 -1.888353e+00 -7.655929e-01 3.190135e-05 -1.621873e-04 1.771143e-04
N -1.646458e+00 8.470342e-01 4.339431e+00 1.231781e-04 8.446333e-04 -4.818760e-04
N -1.602032e+00 9.246995e-01 -5.811399e+00 6.564974e-04 -1.176611e-04 5.643008e-05
N -1.603475e+00 8.318400e-01 -7.414125e-01 4.950921e-04 -3.492645e-04 2.720713e-04
N -3.218283e+00 3.589963e+00 4.394906e+00 -4.127844e-05 1.238491e-04 1.585003e-04
N -3.185464e+00 3.611973e+00 -5.873245e+00 -1.596066e-04 -6.689190e-05 -9.287121e-05
N -3.146790e+00 3.635470e+00 -7.957059e-01 2.712548e-04 -2.867425e-05 1.820591e-04
N -1.653979e-02 -1.855631e+00 4.335711e+00 2.361816e-04 -1.166646e-04 -1.353914e-04
N 2.449388e-02 -1.886837e+00 -5.883326e+00 4.322919e-04 -1.402994e-04 2.691093e-04
N -1.480383e-02 -1.814463e+00 -7.171885e-01 3.259592e-05 6.507728e-05 -4.639602e-05
N -1.943948e-02 1.781913e+00 1.854359e+00 -8.988162e-05 -7.876940e-04 -2.187815e-04
N 2.218268e-02 1.810872e+00 6.915158e+00 1.486715e-05 4.283791e-04 1.197099e-04
N 2.897831e-02 1.811831e+00 -3.322673e+00 -2.333787e-04 1.413597e-04 -2.443266e-04
N 3.178383e+00 -3.659945e+00 1.762031e+00 -1.112498e-05 -7.610087e-04 -2.410953e-04
N 3.144604e+00 -3.684888e+00 6.956508e+00 4.212549e-04 -3.728273e-04 1.257923e-04
N 3.139852e+00 -3.688773e+00 -3.332823e+00 3.466800e-05 1.572542e-04 -2.231050e-04
N 1.563717e+00 -9.520436e-01 1.786295e+00 -3.421433e-04 2.749891e-04 -9.440645e-05
N 1.564150e+00 -9.529152e-01 6.876128e+00 -3.242851e-04 8.992339e-05 -9.530119e-05
N 1.601940e+00 -9.247645e-01 -3.345147e+00 -2.665753e-05 -1.845309e-04 8.314104e-05
N 3.134917e+00 1.784471e+00 1.800614e+00 -7.062911e-05 -4.161110e-05 -4.409106e-05
N 3.137078e+00 1.736699e+00 6.864683e+00 -3.822189e-04 -7.890257e-05 3.049300e-04
N 3.093034e+00 1.759783e+00 -3.367259e+00 -3.666945e-04 -4.165116e-04 -4.972029e-04
N 6.300133e+00 -3.735728e+00 1.767367e+00 5.809783e-04 3.679879e-04 5.109045e-04
N 6.255083e+00 -3.723994e+00 6.848492e+00 -8.776432e-05 1.042678e-04 -4.722337e-04
N 6.256284e+00 -3.662918e+00 -3.325825e+00 -2.795525e-05 -5.599929e-05 1.331648e-04
N 4.676271e+00 -9.316508e-01 1.832143e+00 9.049932e-04 3.399880e-04 2.455392e-04
N 4.666794e+00 -9.262751e-01 6.860388e+00 6.966394e-05 5.211249e-05 -2.181035e-04
N 4.718177e+00 -1.001131e+00 -3.325873e+00 5.091364e-06 -1.214305e-04 1.011626e-04
N -3.186035e+00 1.739349e+00 1.842534e+00 -8.818527e-05 -2.248122e-04 -1.151321e-04
N -3.230266e+00 1.805409e+00 6.872178e+00 -5.187570e-04 -4.718500e-05 3.308559e-04
N -3.190932e+00 1.836561e+00 -3.353417e+00 -2.693562e-05 2.121649e-04 1.276030e-04
N -6.567033e-02 -3.664811e+00 1.847713e+00 3.755257e-04 4.885773e-04 1.215840e-04
N 1.461934e-02 -3.662290e+00 6.862479e+00 2.057875e-06 -1.369314e-04 -6.408902e-05
N 2.083189e-02 -3.707820e+00 -3.343796e+00 3.452091e-05 -2.954273e-05 3.814914e-05
N -1.564099e+00 -9.305360e-01 1.787709e+00 2.225173e-05 1.865228e-04 -4.553448e-04
N -1.555954e+00 -9.748634e-01 6.860823e+00 -6.978973e-05 1.311998e-04 -6.066138e-04
N -1.640331e+00 -9.812568e-01 -3.290415e+00 -5.267737e-04 6.957012e-06 1.008187e-04
