108
Energy=-1.718376e+06 Lattice="9.498746e+00 0.000000e+00 0.000000e+00 -4.758554e+00 8.223390e+00 0.000000e+00 -1.051288e-03 -7.651929e-04 1.534242e+01" Stress="-2.668604e-02 1.719977e-03 -2.189909e-04 1.712179e-03 -2.271462e-02 7.475620e-04 -2.338730e-04 7.451213e-04 -1.908988e-02" Properties=species:S:1:pos:R:3:forces:R:3 Config_type=AlGaN_super3_28_1_3.xyz
Al 1.543620e+00 9.427969e-01 2.413315e+00 -4.575851e-03 -2.205731e-02 1.027749e-02
Al 1.548549e+00 8.610510e-01 7.504588e+00 2.338882e-03 9.759149e-03 2.414482e-03
Al 1.559042e+00 8.780616e-01 -2.732905e+00 1.708371e-03 1.557620e-03 6.773769e-03
Al -3.503627e-02 3.618160e+00 2.413118e+00 7.995154e-03 -1.666624e-02 2.527993e-02
Al -2.567433e-02 3.591447e+00 7.487692e+00 5.947010e-04 -1.561935e-03 9.937122e-04
Al -1.135262e-02 3.589765e+00 -2.724505e+00 4.750379e-04 1.223702e-03 6.926890e-03
Al 3.118797e+00 -1.828678e+00 2.290479e+00 4.662627e-02 -3.674926e-02 5.380683e-02
Ga 3.156368e+00 -1.860526e+00 7.515199e+00 2.235129e-03 -3.320492e-03 -1.379954e-03
Ga 3.159172e+00 -1.854602e+00 -2.730903e+00 -1.997583e-03 -2.725410e-03 2.771026e-03
Ga -4.806363e+00 8.529625e-01 2.394899e+00 5.434509e-03 2.435798e-03 8.139744e-03
Al -4.781626e+00 8.642147e-01 7.505278e+00 -1.640885e-03 6.230006e-03 1.607254e-03
Al -4.790227e+00 8.782023e-01 -2.721242e+00 2.102719e-03 7.393649e-03 1.025918e-02
Ga -6.382792e+00 3.597192e+00 2.447200e+00 4.111651e-03 4.045625e-03 2.078827e-03
Ga -6.372381e+00 3.598720e+00 7.493941e+00 5.501389e-04 -1.434641e-03 -2.509012e-04
Al -6.372248e+00 3.593128e+00 -2.719169e+00 7.023876e-04 5.284110e-04 3.833332e-03
Ga -3.200935e+00 -1.870082e+00 2.413581e+00 4.327342e-03 3.495313e-03 4.875500e-03
Ga -3.191597e+00 -1.854164e+00 7.507284e+00 -3.257608e-04 -2.918762e-03 -9.003196e-04
Ga -3.182494e+00 -1.861797e+00 -2.704449e+00 6.863527e-05 -4.011559e-03 6.005886e-03
Al -1.587337e+00 9.423902e-01 2.424583e+00 -4.959798e-04 -2.156275e-02 -8.386078e-03
Al -1.614668e+00 8.888470e-01 7.518706e+00 3.391463e-03 5.897170e-03 1.863171e-03
Ga -1.618645e+00 8.910939e-01 -2.716745e+00 -3.407848e-04 4.399290e-03 9.207524e-03
Ga -3.167155e+00 3.626326e+00 2.440726e+00 -2.076008e-03 -8.588060e-04 2.935461e-03
Ga -3.186354e+00 3.605828e+00 7.516357e+00 -5.500145e-04 -6.373931e-04 -2.741116e-04
Ga -3.200023e+00 3.603720e+00 -2.722438e+00 3.263522e-05 -1.565073e-03 4.376426e-03
Al -7.763379e-03 -1.858312e+00 2.436585e+00 -5.779488e-03 2.681805e-03 3.805440e-03
Ga -6.963263e-03 -1.832983e+00 7.524673e+00 -2.888503e-03 -6.497880e-03 1.392706e-03
Ga -1.548359e-02 -1.842145e+00 -2.723259e+00 3.141555e-03 -4.187270e-03 5.832878e-03
Al 7.242269e-03 1.786318e+00 4.977851e+00 -1.276931e-02 7.918180e-03 2.536504e-03
Ga -3.039937e-02 1.769847e+00 -5.303504e+00 2.029090e-03 2.532508e-03 4.717085e-03
Al -3.030744e-02 1.778411e+00 -1.483366e-01 -9.255262e-05 1.865905e-03 -4.773885e-03
Al 3.165101e+00 -3.712716e+00 4.992173e+00 4.398529e-03 9.507925e-03 -8.925083e-03
Ga 3.152212e+00 -3.713848e+00 -5.282011e+00 2.724840e-03 4.373762e-03 1.590947e-03
Ga 3.167618e+00 -3.716031e+00 -1.107029e-01 2.808212e-03 -9.484131e-04 -4.674264e-03
Ga 1.575973e+00 -9.523871e-01 4.975486e+00 7.964624e-03 -6.201776e-03 -7.328693e-03
Al 1.569652e+00 -9.446753e-01 -5.286619e+00 3.141434e-03 3.394539e-04 5.690860e-03
Ga 1.576257e+00 -9.336824e-01 -1.042559e-01 -3.110138e-03 -5.009725e-04 -1.104365e-03
Al 3.115762e+00 1.800084e+00 4.976078e+00 3.955436e-03 -9.932870e-03 9.681022e-03
Ga 3.141134e+00 1.770044e+00 -5.283951e+00 -1.278017e-03 -1.201486e-03 3.878922e-03
Al 3.133838e+00 1.779161e+00 -1.699913e-01 1.159149e-03 -6.364306e-04 -1.036064e-02
Al 6.300149e+00 -3.706846e+00 4.990004e+00 -4.754151e-03 1.065433e-03 -5.407993e-03
Ga 6.310181e+00 -3.705156e+00 -5.274598e+00 -2.520974e-03 1.128240e-03 4.186715e-03
Ga 6.312706e+00 -3.711423e+00 -1.185538e-01 -1.331271e-03 1.625061e-03 -1.234506e-02
Al 4.726716e+00 -9.530812e-01 4.992195e+00 -9.891288e-03 -8.715632e-03 -2.629820e-03
Ga 4.735538e+00 -9.268395e-01 -5.278784e+00 -2.667971e-03 -2.839613e-03 2.588711e-03
Al 4.742996e+00 -9.315427e-01 -1.405952e-01 2.281953e-03 6.079851e-04 -1.299874e-02
Ga -3.207696e+00 1.783117e+00 4.983467e+00 -2.645953e-04 8.470987e-05 -1.280338e-04
Al -3.205960e+00 1.784321e+00 -5.302563e+00 -8.853264e-04 -9.833187e-04 5.952877e-03
Al -3.197522e+00 1.775923e+00 -1.310348e-01 -9.760943e-04 -2.819752e-03 -9.318756e-03
Al -2.517532e-02 -3.691566e+00 4.984735e+00 1.094774e-03 1.296784e-03 -2.738295e-03
Ga -1.401173e-02 -3.690070e+00 -5.268957e+00 -6.933023e-04 1.851908e-03 1.633932e-03
Ga -2.896441e-02 -3.698770e+00 -1.197795e-01 -1.417221e-03 1.375605e-03 -1.439972e-02
Ga -1.603661e+00 -9.434626e-01 4.976347e+00 -6.539432e-04 -2.397210e-03 -2.089722e-03
Ga -1.591032e+00 -9.246041e-01 -5.288529e+00 -1.773356e-03 -2.593556e-03 2.299447e-03
Al -1.594301e+00 -9.249013e-01 -1.217442e-01 -4.109779e-03 -1.201558e-03 -1.926978e-03
N 1.550897e+00 9.197741e-01 4.377604e+00 2.253149e-03 4.307144e-03 -1.857665e-02
N 1.553798e+00 8.130884e-01 -5.928830e+00 1.723150e-03 6.265333e-03 -2.375254e-03
N 1.548724e+00 9.082171e-01 -7.941385e-01 4.499728e-04 5.234264e-04 4.129282e-03
N -2.308229e-02 3.610167e+00 4.369769e+00 1.669552e-03 -7.634080e-03 -3.613041e-03
N -2.287811e-02 3.607040e+00 -5.956127e+00 6.360067e-04 -8.010608e-04 -1.449756e-03
N -2.554467e-02 3.560860e+00 -8.121933e-01 4.420196e-04 -5.990758e-04 3.081525e-03
N 3.195680e+00 -1.903702e+00 4.391495e+00 -1.329928e-04 3.244058e-03 -1.678547e-02
N 3.113186e+00 -1.845097e+00 -5.864397e+00 1.875812e-03 -2.473404e-03 2.545724e-04
N 3.191436e+00 -1.845771e+00 -7.538717e-01 -1.346683e-03 -1.818028e-03 7.058634e-03
N -4.840311e+00 8.337930e-01 4.407164e+00 2.775917e-03 9.010906e-03 -1.376608e-02
N -4.744584e+00 8.939663e-01 -5.931467e+00 4.994256e-04 3.645803e-03 -3.467600e-03
N -4.779290e+00 8.699980e-01 -7.674270e-01 1.333707e-03 4.294853e-03 -9.221869e-04
N -6.363638e+00 3.600085e+00 4.450599e+00 4.911852e-04 5.723107e-03 -1.136737e-02
N -6.362272e+00 3.613597e+00 -5.892948e+00 1.973154e-03 -9.464009e-04 -1.891705e-03
N -6.362476e+00 3.569599e+00 -8.089617e-01 6.748486e-04 -3.905778e-04 5.012952e-03
N -3.228588e+00 -1.884344e+00 4.413590e+00 2.659419e-03 -1.705147e-03 -6.704738e-03
N -3.183546e+00 -1.865033e+00 -5.883283e+00 1.261812e-03 -1.541407e-03 -3.345446e-04
N -3.176873e+00 -1.817948e+00 -7.177050e-01 1.369557e-03 -2.004839e-03 1.927061e-03
N -1.581710e+00 8.961679e-01 4.319005e+00 6.564876e-03 7.450654e-03 -8.164155e-07
N -1.658771e+00 9.080691e-01 -5.919179e+00 8.523221e-04 1.072744e-03 -3.236237e-03
N -1.615410e+00 8.802838e-01 -7.105883e-01 5.490931e-04 1.890484e-03 -2.471312e-03
N -3.194959e+00 3.665166e+00 4.423682e+00 -2.332555e-03 -4.788911e-03 -6.011042e-03
N -3.194303e+00 3.577598e+00 -5.863946e+00 -2.150917e-03 -1.735570e-03 -2.766495e-03
N -3.191982e+00 3.575907e+00 -7.437717e-01 -6.641343e-05 -2.053179e-03 3.277874e-03
N -2.480322e-02 -1.905708e+00 4.346851e+00 -2.325262e-03 -1.771640e-03 -3.748708e-03
N 3.425677e-02 -1.827239e+00 -5.860450e+00 -4.742658e-03 -6.184029e-03 -1.219389e-03
N -5.050864e-02 -1.825621e+00 -7.458073e-01 2.200181e-03 -2.406295e-03 2.581214e-03
N -3.002825e-02 1.816569e+00 1.777312e+00 4.929411e-03 -4.751410e-03 2.656364e-03
N -2.598403e-02 1.773565e+00 6.914986e+00 -5.749562e-04 -7.621316e-04 -5.252279e-03
N 1.147842e-02 1.798383e+00 -3.317532e+00 5.388681e-04 1.084552e-04 -2.531400e-03
N 3.256752e+00 -3.703068e+00 1.898779e+00 -3.171944e-02 1.923684e-02 -2.311313e-02
N 3.193154e+00 -3.731742e+00 6.889303e+00 -1.248028e-03 3.516335e-03 -2.413718e-05
N 3.196718e+00 -3.735141e+00 -3.320498e+00 8.418758e-05 4.642579e-03 1.784020e-03
N 1.621479e+00 -1.021443e+00 1.960243e+00 -4.909470e-02 4.714484e-02 -3.234180e-02
N 1.569523e+00 -9.063690e-01 6.933971e+00 6.890798e-04 -2.256742e-03 -6.538521e-03
N 1.572089e+00 -9.014768e-01 -3.374921e+00 4.288948e-04 -7.142789e-04 2.794074e-04
N 3.084380e+00 1.757838e+00 1.730290e+00 3.084733e-03 5.143254e-03 5.733483e-03
N 3.135339e+00 1.731611e+00 6.896442e+00 -1.348256e-03 -1.837635e-04 -2.297216e-03
N 3.137738e+00 1.781011e+00 -3.294679e+00 -6.469502e-04 -8.571723e-04 1.161065e-04
N 6.233826e+00 -3.746178e+00 1.836689e+00 2.007044e-02 9.246590e-03 -2.167648e-03
N 6.267453e+00 -3.719551e+00 6.878838e+00 1.301720e-03 2.697332e-03 -1.137411e-03
N 6.313092e+00 -3.745588e+00 -3.299474e+00 -1.832289e-04 3.148418e-03 3.535607e-04
N 4.685038e+00 -9.758669e-01 1.731904e+00 3.388601e-03 1.428054e-03 4.449601e-03
N 4.733841e+00 -8.952123e-01 6.891518e+00 -6.509835e-04 -5.245250e-03 -2.648446e-03
N 4.742441e+00 -8.871920e-01 -3.316888e+00 -1.119731e-03 -5.895842e-03 -5.674162e-04
N -3.158780e+00 1.758913e+00 1.758524e+00 -4.877329e-03 5.316699e-03 1.024996e-02
N -3.197437e+00 1.736515e+00 6.947832e+00 -3.920052e-04 4.271091e-04 -3.174592e-03
N -3.242865e+00 1.762333e+00 -3.381452e+00 -3.910176e-04 -9.345462e-04 -6.372938e-04
N -1.839348e-02 -3.640555e+00 1.811036e+00 -2.569048e-03 -7.547435e-03 1.241508e-02
N -1.732633e-02 -3.683071e+00 6.869990e+00 -6.739889e-04 1.836165e-03 1.567578e-03
N -6.358268e-02 -3.712806e+00 -3.313367e+00 -9.027295e-04 1.752964e-03 3.395906e-03
N -1.552348e+00 -9.310996e-01 1.779365e+00 -5.483974e-04 6.162632e-03 1.094286e-02
N -1.595732e+00 -8.835881e-01 6.941721e+00 -1.252117e-03 -5.386239e-03 -4.676168e-03
N -1.597815e+00 -9.318715e-01 -3.335809e+00 -3.015182e-03 -3.341949e-03 -1.324267e-03
