108
Energy=-1.809929e+06 Lattice="9.562014e+00 0.000000e+00 0.000000e+00 -4.782984e+00 8.279136e+00 0.000000e+00 2.387985e-03 -2.097041e-03 1.547054e+01" Stress="5.571528e-05 -6.589024e-05 1.880120e-04 -7.631762e-05 7.282812e-06 -1.112789e-04 1.745480e-04 -1.174053e-04 1.304548e-04" Properties=species:S:1:pos:R:3:forces:R:3 Config_type=AlGaN_super3_30_1_29.xyz
Al 1.579902e+00 8.946019e-01 2.443889e+00 1.495898e-04 2.853260e-05 -7.371752e-05
Al 1.583217e+00 8.840282e-01 7.582298e+00 -1.285352e-06 -9.823424e-05 4.508834e-05
Ga 1.568171e+00 8.758482e-01 -2.728351e+00 5.061105e-05 1.286372e-06 3.586576e-05
Al -2.598320e-02 3.642475e+00 2.442725e+00 2.168828e-04 1.248968e-04 -9.000908e-05
Al -8.872916e-03 3.649560e+00 7.572322e+00 -5.033925e-05 -1.931040e-06 1.509814e-04
Ga -1.751346e-02 3.641893e+00 -2.722584e+00 3.445429e-06 1.407369e-05 1.441815e-04
Al 3.180370e+00 -1.882047e+00 2.436072e+00 -3.553538e-05 3.375683e-04 -1.421646e-04
Ga 3.175072e+00 -1.878852e+00 7.579764e+00 2.396494e-05 3.884610e-05 1.071176e-04
Al 3.165801e+00 -1.876201e+00 -2.721120e+00 1.593484e-05 1.611935e-06 1.886825e-04
Al -4.820406e+00 8.750921e-01 2.429872e+00 -1.228694e-04 1.229715e-04 -6.164053e-05
Al -4.811019e+00 8.776943e-01 7.584664e+00 1.101009e-04 -1.426114e-05 1.102534e-04
Ga -4.800238e+00 8.773785e-01 -2.722610e+00 9.098459e-05 -4.554005e-06 8.173049e-05
Al -6.413488e+00 3.619802e+00 2.472356e+00 -1.390431e-04 1.444117e-05 2.351316e-04
Ga -6.422526e+00 3.629399e+00 7.577037e+00 6.977724e-05 1.021376e-04 9.894820e-05
Al -6.402508e+00 3.647125e+00 -2.755852e+00 2.081393e-05 2.863975e-05 6.367045e-05
Ga -3.217940e+00 -1.876733e+00 2.440860e+00 1.186937e-05 -7.071957e-05 3.295589e-04
Al -3.206687e+00 -1.890049e+00 7.578624e+00 3.410821e-05 6.803808e-05 8.429762e-05
Ga -3.212162e+00 -1.883608e+00 -2.732217e+00 2.076071e-07 3.629107e-05 1.503741e-04
Al -1.610528e+00 8.829986e-01 2.463087e+00 5.803494e-05 -6.953585e-05 1.505188e-04
Ga -1.623179e+00 8.712639e-01 7.588020e+00 1.075094e-04 -9.179586e-05 9.690944e-05
Al -1.623872e+00 8.796031e-01 -2.758241e+00 5.896275e-05 -6.373151e-05 7.507571e-05
Ga -3.192131e+00 3.641359e+00 2.430843e+00 -7.872597e-05 8.314911e-05 1.773796e-05
Ga -3.201606e+00 3.630196e+00 7.597073e+00 6.965316e-05 -1.996448e-05 7.410863e-05
Ga -3.213871e+00 3.635771e+00 -2.729390e+00 6.798393e-06 -5.784570e-05 1.085228e-04
Ga -2.333315e-02 -1.865945e+00 2.445234e+00 -3.464600e-05 -8.887359e-05 1.207565e-04
Ga -2.973195e-02 -1.865632e+00 7.611147e+00 7.078719e-05 -7.325768e-05 8.500852e-05
Ga -2.076764e-02 -1.877709e+00 -2.757940e+00 1.469837e-05 -7.548618e-05 2.132021e-05
Ga -1.267040e-02 1.812736e+00 5.005989e+00 -1.359182e-04 7.632849e-05 1.298765e-04
Ga -2.526967e-02 1.797050e+00 -5.330342e+00 -7.469788e-05 1.248640e-04 9.844233e-05
Ga -4.146338e-02 1.802557e+00 -1.166754e-01 -5.690009e-05 1.477320e-04 2.672394e-05
Al 3.187268e+00 -3.718852e+00 5.006775e+00 -1.733070e-04 1.857215e-05 2.960237e-05
Ga 3.164247e+00 -3.717514e+00 -5.302787e+00 -9.212876e-05 1.443103e-04 1.765216e-04
Al 3.176842e+00 -3.700021e+00 -1.417931e-01 -4.951640e-06 1.388044e-04 9.028655e-05
Ga 1.578385e+00 -9.540003e-01 4.997970e+00 -2.108319e-04 7.659583e-05 9.484050e-05
Al 1.565683e+00 -9.613295e-01 -5.307550e+00 -2.237777e-05 4.135569e-05 6.630571e-05
Ga 1.597731e+00 -9.718804e-01 -1.256964e-01 -1.567901e-04 1.688623e-04 7.787453e-05
Al 3.159843e+00 1.797567e+00 5.004620e+00 2.512511e-04 1.009601e-03 -4.893013e-04
Ga 3.168066e+00 1.806259e+00 -5.316703e+00 1.902662e-05 2.811918e-05 1.101871e-04
Ga 3.167586e+00 1.807946e+00 -1.269057e-01 8.050758e-06 1.605837e-04 1.393449e-04
Al 6.343183e+00 -3.722619e+00 5.005131e+00 4.916347e-04 7.905436e-04 -3.306809e-04
Al 6.362844e+00 -3.709104e+00 -5.324318e+00 2.624469e-05 4.288430e-05 1.213196e-04
Ga 6.350542e+00 -3.723021e+00 -1.249373e-01 3.380985e-05 7.848902e-05 2.551905e-04
Ga 4.766168e+00 -9.622069e-01 5.015620e+00 1.153233e-04 2.305808e-05 1.119794e-04
Ga 4.770119e+00 -9.602623e-01 -5.327221e+00 -1.020982e-04 2.484145e-05 9.383649e-05
Al 4.743377e+00 -9.701964e-01 -1.324898e-01 -8.127735e-05 3.806654e-05 2.228287e-04
Ga -3.217726e+00 1.792472e+00 4.996405e+00 2.447207e-05 1.185551e-04 1.976812e-04
Al -3.215847e+00 1.795159e+00 -5.309962e+00 -2.929555e-05 2.712796e-05 7.694181e-05
Ga -3.201251e+00 1.789307e+00 -1.258015e-01 -8.270372e-05 5.995140e-05 9.569651e-05
Ga -3.371930e-02 -3.720182e+00 5.008369e+00 -8.413454e-05 -2.428798e-05 1.862695e-04
Al -3.126196e-02 -3.714941e+00 -5.306214e+00 7.760626e-06 1.001271e-05 5.125688e-05
Ga -3.021772e-02 -3.726424e+00 -1.386020e-01 -2.177534e-05 1.272340e-04 1.534298e-04
Al -1.624174e+00 -9.650767e-01 5.021319e+00 -1.850512e-04 -6.237023e-05 9.484328e-05
Al -1.621455e+00 -9.667698e-01 -5.311397e+00 -6.621982e-05 1.128186e-05 6.830732e-05
Ga -1.624942e+00 -9.449847e-01 -1.503268e-01 -8.549938e-05 8.469192e-05 1.035580e-04
N 1.611583e+00 9.078840e-01 4.354090e+00 2.094996e-04 -5.366524e-05 1.562516e-06
N 1.574548e+00 8.327513e-01 -5.969612e+00 8.102112e-05 -3.599239e-05 -7.287724e-05
N 1.565155e+00 8.807177e-01 -7.535211e-01 1.263863e-04 -6.711488e-05 -4.746735e-05
N -2.417203e-02 3.690568e+00 4.365424e+00 -5.012809e-04 -3.301946e-04 -1.636960e-04
N 1.868694e-02 3.671596e+00 -5.975472e+00 2.922980e-05 -9.484277e-05 -1.474393e-04
N -6.082824e-02 3.660799e+00 -7.443669e-01 -6.938300e-05 -5.718163e-06 -1.129492e-04
N 3.173581e+00 -1.928888e+00 4.356366e+00 2.781032e-05 -1.021549e-04 -9.236348e-05
N 3.122236e+00 -1.857689e+00 -5.925946e+00 3.598570e-05 -8.205632e-05 -1.395408e-04
N 3.207172e+00 -1.900489e+00 -7.911795e-01 6.425663e-05 -1.787057e-04 -3.579090e-05
N -4.850034e+00 8.972590e-01 4.345007e+00 -5.505920e-04 3.638746e-04 4.197165e-04
N -4.766736e+00 9.072685e-01 -5.970422e+00 4.640246e-05 1.004807e-05 -9.594494e-05
N -4.804063e+00 8.328636e-01 -7.404786e-01 1.040353e-04 -6.635357e-05 -1.543678e-04
N -6.447236e+00 3.616981e+00 4.392851e+00 6.626167e-04 -2.206922e-03 5.608311e-04
N -6.402100e+00 3.687427e+00 -5.914387e+00 9.628596e-07 -3.960266e-05 -1.173290e-04
N -6.404077e+00 3.642269e+00 -8.381039e-01 -7.773303e-06 -1.164773e-04 -1.378571e-04
N -3.168674e+00 -1.903837e+00 4.420709e+00 -1.343316e-04 1.466249e-04 4.653153e-05
N -3.163890e+00 -1.905891e+00 -5.961428e+00 7.421460e-05 -3.880344e-05 -1.206791e-04
N -3.253939e+00 -1.860185e+00 -7.460477e-01 1.455347e-05 -2.600796e-05 -1.737309e-04
N -1.612239e+00 8.311652e-01 4.376402e+00 2.119152e-04 -1.543846e-04 -1.829299e-04
N -1.663041e+00 8.531350e-01 -5.905059e+00 1.242487e-04 -6.305046e-05 -1.023314e-04
N -1.618386e+00 8.860596e-01 -8.425101e-01 1.243900e-04 -1.028729e-04 -2.541832e-05
N -3.163230e+00 3.668931e+00 4.405324e+00 2.349047e-05 -1.232790e-04 7.403728e-05
N -3.251441e+00 3.617223e+00 -5.888235e+00 5.468718e-05 -9.989953e-05 -1.064700e-04
N -3.169602e+00 3.661619e+00 -7.381541e-01 1.616844e-04 -7.375920e-05 -1.600008e-04
N -6.489591e-02 -1.852075e+00 4.412211e+00 1.549944e-04 3.702172e-05 -7.363126e-05
N -2.453706e-02 -1.875310e+00 -5.865837e+00 4.544158e-05 -5.549623e-05 -4.300760e-05
N -1.802773e-02 -1.876696e+00 -7.753532e-01 5.150293e-05 -1.765263e-04 -7.965056e-05
N -2.861782e-02 1.800712e+00 1.881631e+00 -4.085319e-05 2.615131e-05 -1.137746e-04
N 1.958145e-02 1.823502e+00 6.999683e+00 -5.023038e-05 8.719315e-05 -1.038830e-04
N -6.108129e-02 1.780474e+00 -3.351638e+00 -4.335716e-05 7.093529e-05 -8.587400e-05
N 3.214184e+00 -3.688901e+00 1.783757e+00 7.014538e-06 -1.400628e-05 -9.862717e-05
N 3.209686e+00 -3.746562e+00 6.927805e+00 -6.122575e-05 2.948616e-06 -1.483737e-04
N 3.168423e+00 -3.672173e+00 -3.330438e+00 -2.829657e-05 6.252296e-05 -1.669398e-04
N 1.620462e+00 -9.352492e-01 1.859539e+00 4.946140e-05 -5.344425e-05 -9.653197e-05
N 1.571295e+00 -9.142097e-01 6.972104e+00 -1.668836e-04 1.191229e-04 -1.503335e-04
N 1.619776e+00 -9.807766e-01 -3.387870e+00 -5.499516e-05 5.134589e-05 -5.145852e-05
N 3.164146e+00 1.809176e+00 1.860122e+00 -3.169190e-05 -1.489462e-04 -9.358458e-05
N 3.165352e+00 1.747829e+00 6.938179e+00 1.840950e-04 7.563043e-05 -3.837268e-04
N 3.164606e+00 1.842737e+00 -3.341298e+00 -3.174200e-05 -9.203282e-06 -6.822674e-05
N 6.358694e+00 -3.770977e+00 1.856977e+00 -2.314464e-04 -1.012482e-04 -2.359428e-04
N 6.309780e+00 -3.696296e+00 6.928304e+00 4.865038e-06 -1.866797e-05 3.699263e-04
N 6.387608e+00 -3.740149e+00 -3.401412e+00 -6.118172e-06 -4.436128e-05 -7.832445e-05
N 4.715992e+00 -9.378373e-01 1.796367e+00 -1.738339e-04 -1.352903e-04 -1.849081e-04
N 4.804662e+00 -9.358318e-01 7.001072e+00 -6.350320e-05 4.015172e-05 -1.106878e-04
N 4.718466e+00 -9.833572e-01 -3.349145e+00 -1.056324e-04 -2.565921e-05 -1.495716e-04
N -3.205648e+00 1.746909e+00 1.860248e+00 -4.904386e-05 1.420577e-05 -1.980332e-04
N -3.253739e+00 1.773416e+00 6.968494e+00 -1.181783e-04 3.890447e-06 -5.450446e-05
N -3.177703e+00 1.776604e+00 -3.390684e+00 -6.960729e-05 4.466138e-05 -8.938591e-05
N -7.335188e-02 -3.747096e+00 1.844697e+00 1.531531e-04 -1.180633e-04 -2.272455e-04
N -2.286650e-02 -3.718504e+00 6.975628e+00 -4.787066e-05 -8.142681e-05 -4.913400e-05
N -6.115251e-02 -3.745756e+00 -3.389141e+00 -9.501188e-06 1.482822e-06 -9.558323e-05
N -1.618090e+00 -9.042336e-01 1.820776e+00 -1.653973e-05 7.431658e-05 -2.350564e-04
N -1.655366e+00 -9.858233e-01 6.935048e+00 -1.227930e-04 1.167506e-05 1.683642e-06
N -1.624097e+00 -9.164596e-01 -3.393512e+00 -7.511992e-05 4.229115e-05 -8.057554e-05
