108
Energy=-1764153.282555 Lattice="9.557256 0.000000 0.000000 -4.781108 8.278826 0.000000 -0.000371 -0.009966 15.446461" Stress="0.000002 -0.000000 0.000000 -0.000001 0.000004 -0.000002 0.000000 -0.000002 -0.000005" Properties=species:S:1:pos:R:3:forces:R:3
Al 1.578094 0.867427 2.398610 -0.000002 -0.000104 0.000089
Al 1.549558 0.885455 7.579867 0.000104 0.000097 0.000386
Al 1.569387 0.892436 -2.700308 0.000073 -0.000049 0.000325
Al -0.018997 3.651233 2.427511 -0.000559 0.000129 -0.000101
Al -0.022033 3.625679 7.560099 0.001121 0.000281 -0.000204
Al -0.013702 3.636752 -2.712014 -0.000034 0.000064 0.000204
Al 3.153506 -1.882906 2.405921 -0.000059 -0.000241 -0.000180
Ga 3.174338 -1.891877 7.563211 -0.000021 0.000102 0.000319
Ga 3.174515 -1.871886 -2.689523 -0.000056 0.000048 0.000163
Al -4.818422 0.878596 2.430833 0.000042 -0.000193 -0.000090
Ga -4.796931 0.869970 7.563275 0.000132 0.000024 0.000280
Al -4.811822 0.875619 -2.706500 0.000102 -0.000009 0.000091
Ga -6.413326 3.631066 2.398484 0.000173 -0.000092 0.000242
Ga -6.418093 3.637891 7.575667 -0.000186 0.000090 0.000298
Ga -6.403621 3.637731 -2.694607 -0.000021 0.000079 0.000057
Ga -3.209376 -1.895210 2.438469 -0.000187 0.000250 0.000048
Al -3.199247 -1.886436 7.552069 0.000069 -0.000101 0.000210
Al -3.210698 -1.876700 -2.712770 -0.000043 0.000058 0.000224
Ga -1.610724 0.875820 2.446385 0.000076 -0.000009 0.000420
Al -1.606526 0.869234 7.567099 -0.000326 -0.000193 0.000200
Ga -1.606443 0.881566 -2.739305 0.000222 -0.000119 0.000263
Ga -3.194969 3.647388 2.425818 0.000076 0.000023 0.000148
Ga -3.190676 3.628054 7.556641 -0.000195 -0.000012 0.000074
Ga -3.210490 3.645360 -2.694074 0.000118 -0.000080 0.000350
Al -0.008094 -1.870206 2.419488 0.000050 -0.000035 0.000136
Ga -0.039561 -1.865094 7.584742 -0.000012 -0.000174 0.000204
Ga -0.029226 -1.872694 -2.718552 0.000116 -0.000077 0.000361
Ga -0.028922 1.808236 4.998211 -0.000129 0.000046 0.000250
Al -0.020948 1.800606 -5.311253 -0.000112 0.000090 0.000074
Ga -0.002111 1.817710 -0.135079 -0.000169 0.000176 -0.000032
Al 3.181234 -3.729313 4.981464 -0.000677 0.000206 -0.000070
Ga 3.171493 -3.732205 -5.288567 -0.000113 0.000158 0.000150
Al 3.174324 -3.715295 -0.134572 -0.000017 -0.000006 0.000234
Ga 1.565414 -0.966377 4.977875 -0.000127 0.000054 0.000374
Ga 1.554320 -0.943694 -5.289779 -0.000179 0.000095 0.000199
Al 1.572266 -0.962407 -0.130090 -0.000185 0.000118 0.000227
Ga 3.156610 1.797766 4.985825 0.000014 -0.000008 0.000331
Ga 3.147268 1.804359 -5.277666 0.000042 0.000011 0.000257
Al 3.159066 1.795801 -0.147716 -0.000104 -0.000266 0.000259
Al 6.333266 -3.717329 5.008541 0.000118 0.000017 0.000316
Ga 6.346742 -3.707616 -5.293822 -0.000048 0.000078 0.000180
Al 6.342041 -3.724207 -0.162064 -0.000297 0.000070 0.000139
Ga 4.765068 -0.971739 4.976844 -0.000235 -0.000019 0.000087
Ga 4.780048 -0.959115 -5.281689 -0.000106 -0.000093 0.000224
Ga 4.749590 -0.959168 -0.132328 -0.000003 0.000020 0.000120
Al -3.201532 1.790663 4.999728 0.000005 0.000047 0.000177
Ga -3.198065 1.803322 -5.293871 0.000049 -0.000002 0.000226
Ga -3.227411 1.810195 -0.143152 0.000131 -0.000068 0.000103
Ga -0.024796 -3.714552 4.976444 0.000168 -0.000034 0.000151
Al -0.026350 -3.708245 -5.293386 0.000033 -0.000010 0.000217
Al -0.021008 -3.710869 -0.123149 0.000078 -0.000010 0.000007
Al -1.619646 -0.965060 5.006288 -0.000056 0.000031 0.000334
Al -1.618398 -0.955693 -5.308596 -0.000136 -0.000006 0.000171
Ga -1.606550 -0.979019 -0.142057 -0.000089 -0.000004 0.000111
N 1.565007 0.876941 4.306650 0.000150 0.000072 -0.000254
N 1.528065 0.909469 -5.953164 0.000175 -0.000005 -0.000325
N 1.606480 0.854615 -0.772188 0.000096 0.000021 -0.000156
N -0.019838 3.687110 4.352556 0.000682 -0.000432 -0.000517
N -0.021266 3.596348 -5.964319 -0.000004 0.000012 -0.000408
N -0.027025 3.684104 -0.792625 0.000188 0.000013 -0.000008
N 3.157707 -1.934761 4.328438 0.000114 0.000166 0.000119
N 3.166354 -1.877139 -5.908342 -0.000025 -0.000010 -0.000317
N 3.121908 -1.902310 -0.710638 0.000025 -0.000082 -0.000084
N -4.764361 0.904836 4.346300 0.000136 0.000116 -0.000040
N -4.804616 0.885593 -5.916863 0.000084 0.000082 -0.000224
N -4.846002 0.901747 -0.797444 0.000070 0.000005 -0.000068
N -6.448248 3.662227 4.380095 -0.000084 0.000027 -0.000284
N -6.360761 3.666033 -5.892055 0.000016 -0.000012 -0.000321
N -6.391451 3.640735 -0.697956 0.000099 0.000050 0.000009
N -3.161008 -1.914032 4.413163 0.000038 -0.000011 -0.000075
N -3.164464 -1.854498 -5.971031 0.000067 0.000000 -0.000309
N -3.207672 -1.922110 -0.796467 0.000055 -0.000058 -0.000094
N -1.654650 0.850102 4.423235 0.000224 -0.000008 -0.000413
N -1.573049 0.859723 -5.936328 0.000126 -0.000096 -0.000201
N -1.609546 0.882832 -0.765614 0.000197 -0.000066 -0.000293
N -3.163796 3.611105 4.410395 -0.000007 0.000121 -0.000136
N -3.248166 3.668508 -5.909293 -0.000025 -0.000099 -0.000378
N -3.209784 3.695500 -0.711646 -0.000034 -0.000041 -0.000210
N -0.066017 -1.852829 4.335662 0.000030 -0.000132 -0.000295
N -0.065986 -1.896199 -5.878997 0.000083 -0.000148 -0.000213
N 0.022311 -1.904115 -0.736823 0.000130 -0.000090 -0.000295
N 0.017458 1.829395 1.846880 0.000148 0.000031 0.000176
N -0.025231 1.793739 6.990808 0.000322 0.000712 -0.000120
N 0.026683 1.829602 -3.368747 -0.000021 0.000111 -0.000155
N 3.213499 -3.700972 1.785680 0.000236 -0.000105 -0.000032
N 3.213541 -3.748026 6.899804 -0.000114 -0.000052 0.000517
N 3.208736 -3.742433 -3.313937 0.000041 0.000045 -0.000237
N 1.569039 -0.961531 1.801045 -0.000067 0.000206 -0.000180
N 1.569847 -0.915715 6.962722 -0.000173 0.000027 -0.000385
N 1.573698 -0.904284 -3.314126 -0.000189 0.000115 -0.000274
N 3.163747 1.745565 1.776550 0.000044 0.000102 -0.000263
N 3.114758 1.769383 6.962635 -0.000012 -0.000120 -0.000296
N 3.156971 1.756073 -3.294287 -0.000034 -0.000089 -0.000124
N 6.300279 -3.740558 1.750633 0.000133 -0.000092 -0.000422
N 6.303641 -3.702050 6.933951 -0.000635 -0.000455 0.000109
N 6.307728 -3.690847 -3.305394 -0.000002 -0.000081 -0.000216
N 4.720511 -0.936501 1.851709 -0.000062 0.000059 0.000150
N 4.797526 -0.988580 6.950237 -0.000123 -0.000065 -0.000328
N 4.800805 -0.935115 -3.295110 -0.000100 -0.000073 -0.000160
N -3.251463 1.771983 1.827161 -0.000150 -0.000002 -0.000114
N -3.165350 1.767562 6.918798 -0.000013 0.000024 -0.000022
N -3.251932 1.782453 -3.315739 -0.000048 -0.000040 -0.000148
N -0.020355 -3.672282 1.790807 -0.000103 0.000042 -0.000021
N -0.023456 -3.718655 6.944721 -0.000022 0.000037 -0.000225
N -0.023852 -3.719473 -3.381984 -0.000046 -0.000036 -0.000241
N -1.577410 -0.985490 1.823627 -0.000086 -0.000006 -0.000184
N -1.653547 -0.939075 6.930672 0.000026 -0.000167 -0.000114
N -1.661066 -0.982559 -3.384636 -0.000183 0.000024 -0.000237
