108
Energy=-1260622.887530 Lattice="9.491570 0.000000 0.000000 -4.746468 8.217307 0.000000 0.001145 0.004146 15.311605" Stress="-0.000003 -0.000001 0.000000 -0.000001 -0.000006 0.000001 0.000000 0.000001 -0.000001" Properties=species:S:1:pos:R:3:forces:R:3
Al 1.560342 0.877732 2.387576 0.000231 -0.000089 0.000296
Al 1.559402 0.883702 7.500555 -0.000086 0.000066 0.000146
Al 1.562678 0.884009 -2.681934 0.000278 0.000097 -0.000032
Al -0.008554 3.607321 2.427685 0.000050 -0.000015 0.000058
Al -0.015088 3.613258 7.495527 -0.000042 -0.000056 -0.000146
Al -0.026019 3.606171 -2.713130 0.000099 0.000077 0.000023
Al 3.145810 -1.856336 2.412755 0.000067 0.000140 -0.000099
Al 3.151185 -1.862424 7.507523 -0.000073 -0.000077 -0.000123
Ga 3.154172 -1.867222 -2.704606 -0.000019 -0.000001 0.000111
Al -4.775191 0.871047 2.404719 0.000101 -0.000112 0.000175
Al -4.772075 0.872868 7.518810 -0.000273 0.000195 -0.000094
Al -4.765396 0.877786 -2.717954 -0.000093 0.000034 -0.000148
Al -6.357741 3.610286 2.387329 0.000261 -0.000100 0.000045
Al -6.368229 3.605368 7.522365 0.000149 0.000085 -0.000033
Ga -6.361993 3.594792 -2.695595 -0.000100 0.000057 0.000035
Al -3.197397 -1.875075 2.439572 -0.000610 0.000121 -0.000012
Ga -3.191150 -1.868327 7.512422 0.000023 -0.000063 0.000079
Al -3.192825 -1.858176 -2.741505 -0.000004 -0.000194 -0.000064
Ga -1.601645 0.885530 2.402557 0.000032 -0.000106 0.000092
Al -1.599789 0.881240 7.510353 -0.000035 -0.000109 0.000188
Al -1.614026 0.882340 -2.703009 0.000097 0.000214 -0.000034
Ga -3.194170 3.609662 2.419090 -0.000119 -0.000118 0.000191
Ga -3.171619 3.609070 7.504778 0.000012 -0.000096 0.000034
Al -3.174401 3.591990 -2.706576 -0.000101 0.000106 -0.000047
Al -0.015931 -1.869204 2.381904 0.000034 -0.000149 -0.000088
Al -0.022215 -1.850802 7.525830 -0.000038 -0.000081 0.000139
Ga -0.028181 -1.852651 -2.685791 0.000017 -0.000180 0.000152
Al -0.026193 1.806105 4.972026 -0.000127 -0.000021 0.000123
Ga -0.026475 1.793538 -5.253732 0.000054 0.000033 0.000216
Al -0.015199 1.784917 -0.166431 -0.000165 -0.000011 -0.000276
Al 3.167010 -3.690970 4.951945 -0.000097 0.000005 -0.000196
Al 3.159472 -3.695394 -5.255365 -0.000200 -0.000142 0.000087
Ga 3.135352 -3.708701 -0.137578 -0.000075 0.000146 0.000066
Ga 1.569323 -0.952475 4.962097 -0.000234 0.000128 -0.000049
Ga 1.571395 -0.945698 -5.268736 -0.000216 0.000152 0.000198
Al 1.559141 -0.937275 -0.126883 -0.000215 0.000126 -0.000039
Ga 3.144246 1.788993 4.952933 0.000179 -0.000060 -0.000010
Al 3.145594 1.779209 -5.265103 -0.000064 0.000142 0.000047
Al 3.143196 1.775750 -0.136184 -0.000017 0.000030 0.000005
Al 6.291109 -3.699274 4.947658 0.000229 -0.000335 -0.000043
Al 6.294253 -3.691534 -5.257122 -0.000088 0.000028 0.000444
Ga 6.302578 -3.698434 -0.132825 -0.000094 -0.000102 0.000024
Al 4.722147 -0.952421 4.952724 -0.000048 0.000474 -0.000317
Al 4.729316 -0.946583 -5.257558 0.000017 0.000048 -0.000020
Ga 4.725268 -0.932249 -0.136910 -0.000055 -0.000010 0.000052
Al -3.185131 1.777664 4.975379 -0.000319 -0.000079 -0.000069
Al -3.191401 1.771283 -5.245314 -0.000034 0.000222 -0.000052
Al -3.199719 1.792486 -0.174759 -0.000000 -0.000083 -0.000134
Ga -0.031243 -3.692907 4.969928 -0.000065 -0.000091 0.000129
Ga -0.029609 -3.699296 -5.259947 0.000082 -0.000118 0.000096
Al -0.014029 -3.703925 -0.142241 0.000001 -0.000041 -0.000005
Ga -1.610250 -0.944446 4.957363 -0.000048 -0.000038 0.000082
Al -1.621176 -0.942917 -5.251967 0.000012 0.000043 0.000006
Ga -1.606453 -0.944577 -0.139730 -0.000086 0.000022 -0.000070
N 1.512706 0.900482 4.308906 0.000207 -0.000034 -0.000333
N 1.594623 0.903707 -5.910435 0.000113 -0.000079 -0.000105
N 1.564970 0.873495 -0.752714 0.000155 0.000068 0.000169
N -0.020643 3.605539 4.348043 -0.000055 -0.000022 -0.000165
N -0.021532 3.657414 -5.898102 -0.000025 0.000059 0.000113
N -0.021317 3.570585 -0.805353 -0.000009 -0.000005 -0.000079
N 3.181165 -1.884409 4.328544 0.000035 -0.000202 0.000092
N 3.189780 -1.893883 -5.882545 0.000075 0.000081 -0.000051
N 3.103720 -1.843386 -0.734967 -0.000054 -0.000054 -0.000033
N -4.724712 0.855055 4.323408 0.000164 -0.000065 -0.000170
N -4.766727 0.873003 -5.867436 0.000068 0.000054 -0.000047
N -4.776312 0.920760 -0.797000 0.000167 0.000039 0.000106
N -6.389387 3.635044 4.298826 -0.000161 0.000174 0.000005
N -6.401007 3.586883 -5.873696 0.000029 -0.000115 0.000067
N -6.315336 3.583290 -0.716412 0.000112 0.000034 -0.000059
N -3.228838 -1.889951 4.353390 -0.000033 0.000145 -0.000101
N -3.188801 -1.868617 -5.815382 -0.000024 0.000088 0.000012
N -3.189736 -1.867181 -0.829913 -0.000005 0.000085 -0.000077
N -1.601946 0.931699 4.377757 0.000151 0.000016 -0.000037
N -1.647333 0.855661 -5.881361 0.000067 -0.000116 -0.000244
N -1.608132 0.921478 -0.779535 0.000139 0.000046 -0.000009
N -3.146994 3.587419 4.400442 0.000026 0.000003 -0.000035
N -3.138782 3.583244 -5.832546 0.000037 -0.000122 0.000019
N -3.224271 3.591071 -0.785362 0.000060 -0.000143 -0.000054
N -0.017495 -1.865744 4.285942 0.000101 -0.000049 -0.000138
N -0.067291 -1.837250 -5.883140 0.000040 -0.000158 -0.000060
N 0.018646 -1.885521 -0.709462 0.000091 -0.000151 0.000115
N 0.018726 1.815235 1.755124 -0.000106 0.000262 0.000089
N -0.022460 1.790760 6.899116 -0.000129 -0.000011 -0.000007
N -0.019634 1.781052 -3.266551 -0.000275 -0.000110 0.000011
N 3.186497 -3.675207 1.840032 -0.000087 0.000203 -0.000118
N 3.190972 -3.662437 6.868259 -0.000010 0.000160 0.000145
N 3.144057 -3.739992 -3.334962 0.000055 -0.000062 -0.000012
N 1.565351 -0.948795 1.796464 -0.000065 0.000167 0.000029
N 1.562561 -0.952291 6.950284 0.000079 -0.000043 -0.000040
N 1.560957 -0.901299 -3.302360 -0.000102 0.000156 -0.000018
N 3.143530 1.779457 1.791945 0.000043 0.000011 0.000094
N 3.146201 1.789798 6.937225 0.000294 -0.000378 -0.000025
N 3.136359 1.734497 -3.343447 0.000025 -0.000110 0.000011
N 6.297948 -3.687772 1.847807 -0.000106 0.000204 -0.000151
N 6.309090 -3.738596 6.867090 -0.000063 0.000014 0.000100
N 6.262992 -3.675511 -3.339040 0.000034 0.000077 -0.000169
N 4.728451 -0.950714 1.845603 0.000339 -0.000273 0.000142
N 4.682827 -0.922013 6.874727 0.000011 -0.000089 0.000037
N 4.758298 -0.922221 -3.343707 0.000022 0.000004 0.000059
N -3.231920 1.763347 1.738406 -0.000060 0.000006 0.000021
N -3.191173 1.734072 6.886342 0.000030 -0.000028 -0.000040
N -3.187829 1.781766 -3.319893 0.000057 0.000015 -0.000012
N -0.058357 -3.675795 1.773436 0.000021 0.000062 -0.000051
N -0.068175 -3.665459 6.949250 -0.000014 0.000007 -0.000007
N 0.014851 -3.714620 -3.293146 0.000140 -0.000074 0.000000
N -1.617412 -0.997830 1.836756 0.000094 0.000085 -0.000016
N -1.564424 -0.927029 6.928864 0.000102 0.000069 -0.000071
N -1.640616 -0.921440 -3.331798 0.000012 -0.000018 -0.000042
