108
Energy=-2816988.739452 Lattice="9.636100 0.000000 0.000000 -4.833152 8.327715 0.000000 -0.254629 -0.220975 15.561448" Stress="-0.000151 0.000007 -0.000050 0.000007 -0.000138 -0.000042 -0.000051 -0.000042 -0.000174" Properties=species:S:1:pos:R:3:forces:R:3
Al 1.461869 0.797513 2.464183 0.000549 -0.005461 -0.002056
Ga 1.440300 0.774210 7.627837 0.000554 -0.005445 0.000387
Ga 1.681810 0.980018 -2.742290 0.000454 -0.005812 0.000972
Al -0.135322 3.556021 2.472540 -0.001507 0.001566 -0.003194
Ga -0.160669 3.538819 7.627528 -0.000195 -0.000324 0.001493
Ga 0.078650 3.747886 -2.739176 -0.000484 -0.000254 0.002748
Ga 3.082650 -2.005605 2.450066 -0.000613 0.000668 0.000517
Ga 3.069575 -2.019387 7.628002 -0.000155 0.000293 0.001180
Ga 3.310889 -1.811045 -2.741905 -0.000774 -0.000170 0.001197
Ga -4.982951 0.789357 2.450810 0.001933 -0.004304 0.000099
Ga -4.994216 0.777771 7.631625 0.001181 -0.005135 0.000129
Ga -4.754138 0.987422 -2.743013 0.000365 -0.005865 -0.000189
Ga -6.590994 3.550852 2.453380 0.000678 0.001381 0.001111
Ga -6.596001 3.543137 7.630308 0.000224 0.000194 0.001296
Ga -6.355301 3.751671 -2.739475 -0.000396 -0.000173 0.001230
Ga -3.353840 -2.004761 2.451188 0.001161 0.001919 0.001095
Ga -3.364904 -2.015703 7.630458 0.000438 0.000694 0.001186
Ga -3.123805 -1.808703 -2.744088 -0.000422 0.000114 0.000776
Ga -1.761468 0.807604 2.432663 0.008557 -0.001825 0.002758
Ga -1.793675 0.781550 7.629452 0.006488 -0.003185 -0.001096
Ga -1.556761 0.987132 -2.755031 0.006056 -0.003541 -0.003487
Ga -3.377764 3.557179 2.449952 0.006224 0.004229 0.000017
Ga -3.396387 3.546672 7.631249 0.005418 0.002127 0.000083
Ga -3.154559 3.756220 -2.742821 0.004966 0.001938 -0.000126
Ga -0.151543 -1.993828 2.449118 0.006917 0.003279 -0.000116
Ga -0.165586 -2.011992 7.630271 0.005448 0.002632 0.000006
Ga 0.076636 -1.803363 -2.744288 0.005076 0.002239 -0.000275
Ga -0.145524 1.701877 5.023400 -0.005059 -0.002516 0.000571
Ga 0.092324 1.908435 -5.338211 -0.005070 -0.002273 0.000235
Ga 0.047291 1.868259 -0.168504 -0.000613 0.001258 0.014125
Ga 3.082952 -3.860549 5.035419 -0.004529 -0.002012 0.000153
Ga 3.323012 -3.650935 -5.336102 -0.004964 -0.001801 0.000384
Ga 3.307465 -3.663947 -0.134372 -0.008467 -0.006993 0.003218
Ga 1.479153 -1.091634 5.035494 -0.005854 0.004617 -0.001107
Ga 1.721105 -0.885329 -5.335950 -0.005874 0.003747 -0.000930
Ga 1.707008 -0.899449 -0.135789 -0.010635 -0.000124 0.001828
Ga 3.048393 1.700966 5.034887 0.000230 -0.000378 0.001370
Ga 3.289574 1.911155 -5.337993 0.000133 -0.000321 0.001407
Ga 3.270425 1.897240 -0.137908 -0.006196 -0.005687 0.004357
Ga 6.278534 -3.856203 5.037361 0.000458 0.000371 0.001351
Ga 6.520640 -3.648927 -5.336308 0.000225 0.000187 0.001553
Ga 6.503930 -3.665625 -0.135040 -0.006746 -0.005507 0.004779
Ga 4.677903 -1.091097 5.041984 -0.000414 0.005963 -0.000181
Ga 4.918787 -0.882859 -5.335711 -0.000623 0.005750 0.000080
Ga 4.906551 -0.894141 -0.147346 -0.006016 0.000738 0.002966
Ga -3.384990 1.705750 5.035472 0.001405 -0.000454 0.001128
Ga -3.144967 1.915437 -5.341669 0.000530 -0.000033 0.000823
Ga -3.159782 1.900825 -0.156599 -0.006310 -0.003125 0.003496
Ga -0.155092 -3.852974 5.038229 0.000882 0.000666 0.001018
Ga 0.086213 -3.644269 -5.337422 0.000554 0.000459 0.001219
Ga 0.073335 -3.655739 -0.149667 -0.005092 -0.004619 0.004026
Ga -1.756787 -1.086162 5.037613 -0.000249 0.007157 -0.000127
Ga -1.515230 -0.879391 -5.339753 -0.000333 0.006055 -0.000325
Ga -1.532085 -0.892792 -0.154664 -0.005167 -0.001273 0.002493
N 1.453667 0.783665 4.388176 0.000533 -0.006373 -0.007929
N 1.690365 0.990897 -5.966022 0.000327 -0.006016 -0.000246
N 1.669859 0.970821 -0.772452 -0.001671 -0.005969 -0.002090
N -0.149472 3.552460 4.393266 -0.000850 0.000315 -0.009032
N 0.089217 3.756759 -5.965134 -0.000649 -0.000236 -0.001585
N 0.067590 3.736674 -0.764816 -0.001717 -0.002585 -0.004645
N 3.078134 -2.010590 4.413065 -0.000120 0.000312 -0.000609
N 3.319514 -1.802495 -5.965646 -0.000645 -0.000120 -0.001550
N 3.305597 -1.815501 -0.774488 -0.003349 -0.001938 -0.000959
N -4.984042 0.784519 4.413677 0.001037 -0.005443 0.000273
N -4.744908 0.993720 -5.964302 0.000474 -0.005852 0.000049
N -4.762224 0.982778 -0.778066 -0.002112 -0.007214 -0.000002
N -6.586851 3.551513 4.416611 0.000284 0.000392 -0.000626
N -6.345995 3.760117 -5.963589 -0.000303 -0.000083 -0.001366
N -6.362739 3.745826 -0.770952 -0.002364 -0.001533 -0.000943
N -3.356654 -2.006120 4.414479 0.000175 0.000464 -0.000820
N -3.115959 -1.799828 -5.964154 -0.000396 0.000026 -0.001296
N -3.130839 -1.816387 -0.778316 -0.002787 -0.001870 -0.001072
N -1.785723 0.789755 4.404536 0.006205 -0.003587 0.001182
N -1.544691 0.997742 -5.966455 0.005885 -0.003768 0.001362
N -1.570944 0.975898 -0.799670 0.002951 -0.005375 0.006176
N -3.388492 3.553619 4.412985 0.005438 0.002645 0.000294
N -3.146622 3.764269 -5.964484 0.005020 0.002064 -0.000060
N -3.159447 3.751906 -0.778054 0.002893 0.000549 0.000724
N -0.159273 -2.004012 4.411978 0.005741 0.002281 0.000302
N 0.083987 -1.795912 -5.965334 0.005077 0.002091 -0.000136
N 0.070752 -1.807565 -0.779966 0.002843 0.000841 0.000786
N -0.080053 1.750893 1.872595 -0.001771 -0.001637 -0.007642
N -0.153677 1.694328 6.995032 -0.005448 -0.002502 -0.000418
N 0.085904 1.902010 -3.370863 -0.005540 -0.002636 -0.000190
N 3.119087 -3.868546 1.841398 0.007378 -0.000581 0.000131
N 3.075925 -3.866409 7.001794 -0.005513 -0.002175 -0.000031
N 3.316523 -3.656640 -3.369355 -0.005411 -0.002401 -0.000478
N 1.487332 -1.049219 1.837752 0.000542 0.014582 0.001491
N 1.473418 -1.098014 7.001015 -0.006258 0.003199 0.001114
N 1.715640 -0.891463 -3.371305 -0.006373 0.003316 0.000897
N 3.033874 1.692934 1.839883 0.002084 0.001932 -0.003721
N 3.042894 1.696398 7.002475 0.000066 -0.000422 -0.001410
N 3.283968 1.906352 -3.369542 -0.000459 -0.000608 -0.001566
N 6.259829 -3.861505 1.845095 0.002391 0.002663 -0.004086
N 6.273107 -3.862545 7.003940 0.000044 -0.000135 -0.001295
N 6.514743 -3.654990 -3.367697 -0.000375 -0.000527 -0.001636
N 4.684872 -1.084312 1.819550 0.006341 0.010999 -0.002920
N 4.672473 -1.095835 7.005809 -0.000978 0.005389 0.000101
N 4.913193 -0.887795 -3.369528 -0.000886 0.005577 0.000031
N -3.376297 1.714068 1.808596 0.007683 0.003558 -0.002938
N -3.390679 1.700244 7.003144 -0.000061 -0.000345 -0.001319
N -3.151444 1.910354 -3.375522 -0.000148 -0.000466 -0.000714
N -0.148949 -3.847436 1.821132 0.006941 0.005087 -0.003808
N -0.160794 -3.859092 7.004236 0.000142 -0.000066 -0.001094
N 0.080559 -3.650259 -3.369421 -0.000344 -0.000454 -0.001210
N -1.747625 -1.080057 1.809570 0.005460 0.012327 -0.001628
N -1.762152 -1.092159 7.003661 -0.000808 0.005353 -0.000029
N -1.520922 -0.886189 -3.375293 -0.000966 0.005320 0.000532
