108
Energy=-573990.664547 Lattice="9.414506 0.000000 0.000000 -4.712513 8.149096 0.000000 0.043986 -0.022827 15.100832" Stress="0.000002 0.000002 0.000013 0.000002 -0.000003 -0.000007 0.000013 -0.000007 0.000001" Properties=species:S:1:pos:R:3:forces:R:3
Al 1.549292 0.855370 2.369766 0.001784 0.002247 0.000983
Al 1.566757 0.849241 7.393489 0.001006 0.001283 0.000537
Al 1.535390 0.875655 -2.669667 0.001096 0.001303 0.000652
Al -0.017327 3.571500 2.371194 -0.000253 0.001048 -0.000052
Al -0.000623 3.565495 7.397421 0.000144 -0.000036 -0.000037
Al -0.036012 3.583774 -2.672470 0.000363 0.000373 -0.000670
Al 3.127226 -1.856519 2.371621 0.001416 -0.000832 0.000530
Al 3.146724 -1.866452 7.392527 0.000475 -0.000333 0.000455
Al 3.116689 -1.844356 -2.672291 0.000420 -0.000692 0.000914
Al -4.722689 0.858003 2.371951 0.001239 0.001608 -0.001391
Al -4.716494 0.848758 7.388120 0.001097 0.001567 -0.000121
Al -4.751750 0.867228 -2.658249 0.000899 0.001082 -0.000622
Al -6.295379 3.577012 2.378030 0.000196 -0.000307 -0.001118
Al -6.277694 3.568257 7.395236 0.000133 -0.000072 -0.000626
Al -6.315536 3.581602 -2.671389 -0.000000 0.000431 -0.000625
Al -3.160926 -1.864407 2.387820 0.001929 0.002487 0.001157
Al -3.132069 -1.861535 7.394453 0.000237 -0.000086 -0.000420
Al -3.182916 -1.844330 -2.682344 0.001143 -0.000182 -0.000339
Al -1.584439 0.870864 2.389638 -0.002843 0.006950 0.002104
Al -1.567355 0.854540 7.386067 -0.000495 0.000229 -0.000059
Al -1.606833 0.881654 -2.651425 -0.001409 0.001059 -0.005305
Al -3.155864 3.579439 2.374077 -0.000678 -0.001877 -0.001044
Al -3.137587 3.580279 7.386893 -0.000735 -0.001694 -0.000244
Al -3.171720 3.591690 -2.655486 -0.000732 -0.000719 -0.000518
Al -0.002314 -1.847461 2.389158 -0.000858 -0.002240 -0.000456
Al 0.006429 -1.856209 7.396409 -0.000603 -0.001425 0.000081
Ga -0.028621 -1.838069 -2.670041 0.000193 -0.001249 0.000814
Al -0.005846 1.756983 4.886197 0.000158 0.001594 0.000391
Al -0.033714 1.772039 -5.190108 0.000260 0.001827 0.000285
Al -0.013075 1.790642 -0.134853 -0.009206 -0.004419 -0.006597
Al 3.139456 -3.676507 4.882012 0.000212 0.001267 -0.000402
Al 3.106306 -3.650201 -5.188867 0.000958 0.001086 0.000226
Al 3.114785 -3.659026 -0.147738 0.000120 0.000874 -0.000188
Al 1.573688 -0.957509 4.885348 -0.000138 0.000143 0.001064
Al 1.543377 -0.934865 -5.199693 -0.000509 -0.000345 0.000034
Al 1.561083 -0.934392 -0.130862 0.000379 -0.000669 -0.001624
Al 3.129155 1.759120 4.881349 -0.000154 0.000421 -0.000478
Al 3.086156 1.777223 -5.189592 0.000062 0.000732 0.000551
Al 3.110393 1.774593 -0.147720 0.000681 0.000178 0.000172
Al 6.273878 -3.673403 4.889523 -0.000288 0.000059 -0.000332
Al 6.241020 -3.654302 -5.192557 0.000005 0.000156 -0.000841
Al 6.248334 -3.663314 -0.149542 0.001281 -0.000340 -0.000682
Al 4.708658 -0.954789 4.885837 -0.001009 -0.000841 -0.000499
Al 4.668038 -0.941250 -5.192493 -0.000327 -0.001416 0.000418
Al 4.671892 -0.944074 -0.148592 -0.000024 0.000503 0.000791
Al -3.146660 1.763929 4.888094 -0.000839 0.000411 -0.000426
Ga -3.182058 1.782761 -5.184888 -0.000770 0.000401 0.000958
Al -3.170359 1.783918 -0.153204 -0.010046 0.004276 0.003717
Al -0.000761 -3.668844 4.886822 -0.000660 0.000058 -0.000642
Al -0.039155 -3.647347 -5.199217 -0.000721 0.000033 0.000094
Al -0.021678 -3.669707 -0.130640 -0.000220 0.002154 -0.000881
Al -1.566788 -0.951043 4.883584 -0.001463 -0.000827 -0.001467
Al -1.602496 -0.932381 -5.196782 -0.001270 -0.001793 0.000523
Ga -1.616173 -0.931017 -0.120914 0.001972 0.001714 0.002758
N 1.558156 0.851385 4.287397 0.000876 0.000911 -0.000770
N 1.525503 0.871725 -5.790734 0.000874 0.001146 -0.000539
N 1.540171 0.869165 -0.741993 -0.001470 0.001031 -0.001157
N -0.006075 3.569038 4.285097 0.000458 -0.000370 0.000253
N -0.041774 3.587390 -5.785893 0.000138 -0.000444 0.000825
N -0.026145 3.589939 -0.751399 -0.001015 -0.001380 0.000488
N 3.138523 -1.861939 4.287796 0.000310 -0.000185 0.000063
N 3.106043 -1.845327 -5.792264 0.000286 -0.000468 0.000084
N 3.110771 -1.845877 -0.748489 0.000285 -0.000966 -0.000132
N -4.716248 0.853830 4.286676 0.000690 0.001157 0.000580
N -4.793656 0.848426 -5.803231 0.000376 0.001394 -0.000706
N -4.742430 0.864345 -0.744091 -0.000849 0.001134 0.001543
N -6.285163 3.573098 4.289162 0.000147 0.000042 0.000785
N -6.318792 3.588684 -5.790947 0.000115 -0.000131 0.000396
N -6.305097 3.586822 -0.751397 -0.000048 0.000419 0.001429
N -3.142466 -1.863268 4.296784 -0.000122 -0.000619 0.001482
N -3.174507 -1.840452 -5.789909 0.000388 -0.000188 0.000692
N -3.207115 -1.869892 -0.769007 -0.000067 -0.000911 0.001415
N -1.578513 0.864812 4.300409 0.000299 0.000765 0.000835
N -1.573940 0.857028 -5.806021 0.000756 0.000193 -0.001333
N -1.654307 0.928979 -0.766026 0.025367 -0.004039 0.005098
N -3.145627 3.576813 4.288582 -0.000626 -0.001157 0.000467
N -3.176716 3.643164 -5.807294 -0.000593 -0.000904 -0.000805
N -3.169018 3.596657 -0.741966 -0.000800 -0.000068 0.000913
N 0.005497 -1.855708 4.299773 -0.000354 -0.001456 0.000018
N -0.035153 -1.833759 -5.783882 0.000045 -0.001211 -0.000132
N 0.012539 -1.851599 -0.695858 -0.002105 -0.003426 -0.000345
N -0.023036 1.760983 1.768191 0.002688 0.001728 0.002776
N 0.000421 1.754433 6.798333 0.000819 0.001727 -0.000208
N -0.037109 1.770877 -3.269576 0.000436 0.000975 0.001168
N 3.125258 -3.671186 1.774159 0.000621 0.001738 -0.000339
N 3.145111 -3.678725 6.795205 0.001186 0.001481 -0.000468
N 3.104710 -3.659837 -3.266924 0.001142 0.001385 0.000461
N 1.562539 -0.948604 1.777533 -0.000139 -0.000125 0.001899
N 1.577856 -0.959814 6.803375 -0.000022 0.000021 -0.000490
N 1.584250 -0.913321 -3.287127 -0.000012 -0.000265 -0.001023
N 3.119682 1.766533 1.774702 -0.000668 0.000066 -0.000006
N 3.133724 1.758224 6.794072 -0.000555 0.000239 0.000101
N 3.100286 1.777134 -3.268870 -0.000290 -0.000146 0.000511
N 6.261401 -3.668493 1.771146 0.000706 0.000819 -0.000030
N 6.279445 -3.674981 6.802423 -0.000227 0.000000 0.000655
N 6.244676 -3.656634 -3.275471 -0.000087 -0.000303 0.000931
N 4.697239 -0.950410 1.775617 -0.001094 -0.001178 -0.001172
N 4.714042 -0.956248 6.797390 -0.000794 -0.001663 -0.000212
N 4.675087 -0.934064 -3.273936 -0.000935 -0.001095 -0.000169
N -3.151940 1.765946 1.769096 -0.002062 0.001734 0.001919
N -3.142189 1.761225 6.802280 -0.000702 0.000241 0.000859
N -3.178523 1.779705 -3.211854 -0.001072 0.000594 -0.000447
N -0.017559 -3.663144 1.784018 0.000175 0.000734 0.000966
N 0.002138 -3.670013 6.798765 -0.000685 0.000350 0.000576
N -0.031630 -3.698759 -3.288575 -0.000091 -0.000518 0.000193
N -1.581093 -0.917358 1.882582 -0.002604 -0.013082 -0.011107
N -1.561806 -0.953729 6.798018 -0.001179 -0.001543 0.000020
N -1.639601 -0.906926 -3.281587 -0.001533 -0.001344 -0.000319
