108
Energy=-1.993031e+06 Lattice="9.587503e+00 0.000000e+00 0.000000e+00 -4.798158e+00 8.301329e+00 0.000000e+00 7.080714e-03 2.860676e-03 1.551474e+01" Stress="2.941661e-04 -1.679053e-04 1.624585e-04 -1.665207e-04 1.640221e-04 4.811961e-05 1.673059e-04 5.449670e-05 -2.020905e-04" Properties=species:S:1:pos:R:3:forces:R:3 Config_type=AlGaN_super3_34_0_12.xyz
Al 1.572488e+00 8.878473e-01 2.421844e+00 -4.723827e-04 2.627861e-04 -3.810438e-05
Al 1.581452e+00 8.694734e-01 7.634849e+00 2.247393e-04 -3.278652e-05 3.423473e-04
Al 1.564166e+00 8.878766e-01 -2.750096e+00 1.329171e-03 -2.853565e-03 8.477994e-04
Al -2.507827e-02 3.647759e+00 2.396693e+00 -3.023279e-04 -3.318098e-04 4.388975e-04
Ga -3.276648e-02 3.654348e+00 7.630365e+00 -5.094960e-05 1.079824e-04 4.102929e-04
Ga -4.243032e-02 3.637236e+00 -2.725714e+00 -2.500889e-05 5.693121e-04 9.459807e-04
Ga 3.172077e+00 -1.897626e+00 2.431997e+00 -8.567362e-05 2.483600e-04 5.458851e-04
Al 3.163723e+00 -1.883187e+00 7.618077e+00 1.027385e-04 -3.231524e-05 3.248644e-04
Ga 3.147737e+00 -1.898733e+00 -2.742055e+00 -1.670803e-04 3.632452e-04 5.030721e-04
Ga -4.824394e+00 8.868462e-01 2.430547e+00 2.044559e-04 1.390028e-04 2.647886e-04
Ga -4.823839e+00 8.806176e-01 7.623787e+00 2.399498e-04 -7.768073e-05 1.082832e-04
Ga -4.837089e+00 8.941451e-01 -2.734502e+00 -4.349035e-05 -2.552780e-04 2.157656e-04
Ga -6.430640e+00 3.647356e+00 2.407034e+00 2.751505e-04 -4.286312e-05 5.295069e-04
Ga -6.413621e+00 3.647566e+00 7.623255e+00 5.186309e-05 4.337671e-05 3.353891e-04
Ga -6.414397e+00 3.637627e+00 -2.717002e+00 8.347921e-05 1.447969e-04 2.237001e-04
Al -3.222330e+00 -1.900692e+00 2.424564e+00 2.476651e-04 3.522048e-04 2.919263e-04
Al -3.224021e+00 -1.885249e+00 7.617539e+00 2.364924e-05 5.283747e-05 2.407283e-04
Ga -3.210093e+00 -1.890023e+00 -2.714959e+00 -4.426765e-05 5.487269e-05 2.136349e-04
Ga -1.610228e+00 8.949491e-01 2.422533e+00 8.720762e-04 1.778816e-04 -1.662889e-04
Ga -1.613816e+00 8.896080e-01 7.623648e+00 1.028830e-04 -2.535075e-04 1.651256e-04
Ga -1.602135e+00 8.882084e-01 -2.729599e+00 -1.584317e-05 -4.869509e-04 5.015821e-04
Al -3.203305e+00 3.655996e+00 2.421810e+00 -7.564158e-05 -1.441485e-04 3.958047e-04
Al -3.208588e+00 3.663221e+00 7.627520e+00 9.408017e-06 -3.976578e-05 3.504867e-04
Al -3.213067e+00 3.666593e+00 -2.731613e+00 -2.294108e-05 2.097477e-05 2.350012e-04
Ga -1.101357e-02 -1.880165e+00 2.452731e+00 5.903831e-05 -3.483009e-05 4.800287e-04
Ga 3.166890e-03 -1.875622e+00 7.610518e+00 7.699728e-05 -1.101653e-04 4.058155e-04
Al -5.884201e-03 -1.881038e+00 -2.748882e+00 2.197952e-04 2.725732e-04 3.128488e-04
Ga -6.139230e-04 1.801971e+00 5.011984e+00 -1.600214e-04 -1.908873e-04 2.496343e-04
Al -6.058015e-03 1.800000e+00 -5.315087e+00 -4.552999e-06 -1.159132e-05 -1.323506e-04
Al 2.045545e-03 1.819576e+00 -1.478347e-01 -1.675626e-05 -8.864290e-05 1.156542e-03
Ga 3.171973e+00 -3.727712e+00 5.021672e+00 -3.012696e-04 2.893009e-04 4.500440e-04
Al 3.162267e+00 -3.729296e+00 -5.330676e+00 -7.436172e-05 1.385691e-04 3.610371e-04
Al 3.183452e+00 -3.746405e+00 -1.409274e-01 7.662182e-05 4.282239e-05 6.554159e-05
Al 1.587073e+00 -9.449112e-01 5.035330e+00 -1.181688e-04 7.353601e-07 3.034244e-04
Al 1.581673e+00 -9.479637e-01 -5.317115e+00 -1.618903e-04 6.979993e-05 6.789179e-04
Ga 1.576745e+00 -9.439483e-01 -1.666460e-01 -2.603201e-04 2.747790e-04 -4.255817e-04
Ga 3.152516e+00 1.791075e+00 5.026281e+00 2.739000e-05 -2.623659e-05 3.770998e-04
Al 3.143394e+00 1.791139e+00 -5.315151e+00 1.685261e-05 -4.742966e-05 1.366302e-04
Al 3.144490e+00 1.804770e+00 -1.500437e-01 -1.988729e-04 -1.467099e-04 -5.249817e-05
Ga 6.362233e+00 -3.725295e+00 5.013441e+00 3.555892e-04 2.408266e-04 4.772782e-04
Ga 6.357432e+00 -3.741282e+00 -5.316190e+00 1.212538e-04 -6.605993e-06 4.073220e-04
Al 6.355110e+00 -3.743619e+00 -1.335751e-01 2.030597e-06 -2.503096e-05 -3.106851e-04
Ga 4.769933e+00 -9.734375e-01 5.037653e+00 -1.675662e-04 2.896661e-05 1.687304e-04
Ga 4.750170e+00 -9.722555e-01 -5.333140e+00 -1.763793e-04 1.892599e-05 2.965411e-04
Ga 4.768895e+00 -9.727351e-01 -1.389414e-01 -2.729103e-04 1.071721e-04 -3.321386e-04
Ga -3.217398e+00 1.822107e+00 5.027922e+00 -5.052774e-05 -2.544752e-05 9.847319e-05
Ga -3.217487e+00 1.824592e+00 -5.307190e+00 -6.157084e-05 2.696815e-05 1.781229e-04
Ga -3.214887e+00 1.825983e+00 -1.563691e-01 -5.489033e-05 -5.696652e-05 1.687775e-05
Ga -3.576129e-03 -3.728983e+00 5.024903e+00 1.426155e-05 3.691680e-05 3.177164e-04
Ga -4.411724e-03 -3.731623e+00 -5.303038e+00 -3.135114e-05 7.180011e-05 2.836539e-04
Ga -1.058001e-02 -3.730803e+00 -1.628893e-01 -2.079741e-05 3.373666e-05 -3.293879e-04
Ga -1.620480e+00 -9.661372e-01 5.026875e+00 -1.554721e-04 -1.250726e-05 1.040694e-04
Ga -1.611764e+00 -9.607875e-01 -5.313633e+00 -1.058238e-04 -7.987545e-05 1.821662e-04
Ga -1.610952e+00 -9.687643e-01 -1.444205e-01 -1.865731e-04 6.325899e-05 -2.471811e-04
N 1.575706e+00 8.331637e-01 4.340570e+00 1.695803e-04 -8.192243e-05 -1.395136e-04
N 1.569981e+00 8.766555e-01 -5.946835e+00 2.752549e-05 5.927685e-05 -2.031278e-04
N 1.572407e+00 9.338870e-01 -8.170081e-01 -1.395176e-04 3.669830e-04 -1.504029e-03
N -2.705925e-02 3.650894e+00 4.326848e+00 -1.380938e-04 -3.987340e-04 -1.562837e-04
N -7.465113e-02 3.621831e+00 -5.901353e+00 6.533616e-05 -5.514863e-05 -4.118149e-04
N -2.854952e-02 3.647944e+00 -7.227294e-01 2.434570e-06 2.355703e-05 -8.406862e-04
N 3.131624e+00 -1.861496e+00 4.415812e+00 1.120068e-04 -1.255160e-04 -3.674248e-04
N 3.118789e+00 -1.909857e+00 -5.961129e+00 1.555542e-04 2.388414e-05 -4.021921e-04
N 3.170634e+00 -1.940893e+00 -7.574172e-01 1.877637e-04 2.271322e-05 -4.349086e-04
N -4.818544e+00 8.823691e-01 4.409221e+00 7.460346e-05 3.765319e-05 -1.333193e-04
N -4.862596e+00 9.099010e-01 -5.912089e+00 9.016823e-05 3.896952e-05 -2.045744e-04
N -4.865832e+00 9.084972e-01 -7.506657e-01 2.002681e-04 7.770824e-05 -3.227405e-04
N -6.415503e+00 3.648038e+00 4.391032e+00 -1.595512e-04 2.300660e-05 -4.977929e-04
N -6.414752e+00 3.600973e+00 -5.911055e+00 -1.221361e-04 9.155252e-06 -3.527885e-04
N -6.460852e+00 3.625265e+00 -7.248139e-01 2.560909e-05 1.900300e-05 -2.548057e-04
N -3.218476e+00 -1.884608e+00 4.339273e+00 5.384488e-05 -2.114300e-04 -3.932701e-04
N -3.218471e+00 -1.886960e+00 -5.988529e+00 3.963920e-05 -4.193193e-05 -2.412642e-04
N -3.215900e+00 -1.936710e+00 -7.465695e-01 8.437681e-05 -9.351209e-06 -2.047881e-04
N -1.617433e+00 8.879908e-01 4.399098e+00 2.259075e-04 -1.208308e-04 3.668861e-05
N -1.581968e+00 9.098279e-01 -5.911878e+00 2.363393e-04 -9.939455e-05 -2.101134e-04
N -1.570141e+00 9.105291e-01 -7.443387e-01 3.151328e-04 -7.543556e-05 -4.782625e-04
N -3.214151e+00 3.654603e+00 4.331612e+00 8.678430e-05 -2.617636e-05 -3.146002e-04
N -3.183893e+00 3.674525e+00 -5.978100e+00 2.568719e-05 -1.441866e-04 -1.811485e-04
N -3.170061e+00 3.681263e+00 -8.192597e-01 5.171289e-05 -1.285177e-04 -2.253490e-04
N 2.779206e-02 -1.855256e+00 4.436741e+00 1.070244e-04 -8.282435e-05 -3.217154e-04
N 2.458809e-02 -1.860334e+00 -5.923750e+00 -2.178518e-06 -2.352456e-05 -3.823987e-04
N -1.640736e-02 -1.881201e+00 -8.357959e-01 8.649970e-05 -1.085605e-04 -4.101433e-04
N 2.875206e-02 1.826079e+00 1.782899e+00 -2.377795e-04 8.425086e-05 -3.188832e-04
N 3.094199e-02 1.782655e+00 6.999183e+00 -9.694528e-07 2.403255e-04 -3.003425e-04
N 1.934568e-02 1.784420e+00 -3.397793e+00 2.145196e-05 1.148134e-04 -2.369213e-04
N 3.175109e+00 -3.777438e+00 1.783687e+00 4.505704e-06 -2.398543e-04 -9.286153e-05
N 3.137415e+00 -3.704441e+00 7.013090e+00 4.540260e-05 1.388177e-05 -3.788788e-04
N 3.133361e+00 -3.755844e+00 -3.408952e+00 -4.408574e-05 -5.827458e-05 -5.396748e-04
N 1.576658e+00 -9.136976e-01 1.807720e+00 1.790355e-06 3.148799e-04 1.084602e-04
N 1.627508e+00 -9.264403e-01 6.968303e+00 -2.306895e-04 2.098675e-04 -3.577467e-04
N 1.537707e+00 -9.345375e-01 -3.383774e+00 -1.038643e-04 1.790564e-03 1.148353e-04
N 3.125911e+00 1.776664e+00 1.767571e+00 -2.112680e-05 -1.906631e-04 -9.407958e-05
N 3.125121e+00 1.779737e+00 7.004586e+00 -1.987403e-04 -7.197640e-05 -1.988769e-04
N 3.122414e+00 1.781259e+00 -3.398118e+00 -7.729452e-04 1.007603e-04 1.037902e-04
N 6.325167e+00 -3.705455e+00 1.787468e+00 2.737405e-04 1.126810e-05 -1.556075e-04
N 6.368310e+00 -3.684030e+00 7.000619e+00 -1.083264e-04 -8.445668e-05 -2.962034e-04
N 6.365570e+00 -3.734154e+00 -3.348525e+00 1.679361e-05 -1.849777e-04 -3.313840e-04
N 4.810651e+00 -9.856271e-01 1.832498e+00 -9.064678e-05 -1.850570e-04 1.372136e-04
N 4.771414e+00 -1.013045e+00 7.032195e+00 -1.485503e-04 9.967646e-06 -1.696381e-04
N 4.768357e+00 -9.686914e-01 -3.355980e+00 -1.194496e-04 -3.946157e-05 -2.620351e-04
N -3.220028e+00 1.856157e+00 1.819046e+00 -2.542499e-04 -1.168207e-04 -1.383566e-04
N -3.217485e+00 1.859444e+00 7.011637e+00 -5.921069e-05 1.228518e-04 -1.457033e-04
N -3.220324e+00 1.855407e+00 -3.325247e+00 -4.700644e-06 1.732427e-04 -2.407271e-04
N 2.546004e-02 -3.747903e+00 1.817593e+00 -3.021596e-05 1.210257e-04 2.058046e-04
N 2.584969e-02 -3.753817e+00 7.007311e+00 2.387645e-05 2.743808e-05 -3.631521e-04
N 1.917233e-02 -3.710362e+00 -3.312540e+00 5.472552e-06 -1.192143e-04 -3.423753e-04
N -1.653547e+00 -9.899440e-01 1.831715e+00 -3.994658e-04 -5.172148e-05 2.877886e-04
N -1.659586e+00 -9.855395e-01 7.009070e+00 -1.381276e-04 8.154669e-05 -1.908796e-04
N -1.582030e+00 -9.870005e-01 -3.336478e+00 -1.435871e-04 1.161817e-04 -1.563604e-04
