108
Energy=-8.028639e+05 Lattice="9.476278e+00 0.000000e+00 0.000000e+00 -4.738139e+00 8.206697e+00 0.000000e+00 9.377101e-16 1.624162e-15 1.531397e+01" Stress="5.477420e-03 5.490975e-03 -9.964479e-05 5.477844e-03 1.113907e-02 -4.795101e-04 -1.101605e-04 -4.843558e-04 1.793470e-02" Properties=species:S:1:pos:R:3:forces:R:3 Config_type=AlGaN_super3_8_1_0.xyz
Al 1.564294e+00 9.031460e-01 2.504900e+00 -1.298539e-03 -1.406720e-02 -1.197908e-02
Al 1.564294e+00 9.031460e-01 7.521855e+00 -1.282815e-03 -1.405843e-02 -6.130670e-03
Al 1.564294e+00 9.031460e-01 -2.775158e+00 -1.216367e-03 -1.419510e-02 -6.375637e-03
Al 2.938992e-08 3.612582e+00 2.504900e+00 -2.530950e-03 -1.376316e-03 -1.120731e-02
Al 2.938992e-08 3.612582e+00 7.521855e+00 -2.737764e-03 -1.430539e-03 -3.836380e-03
Al 2.938992e-08 3.612582e+00 -2.775158e+00 -2.980505e-03 -1.452993e-03 -4.936446e-03
Al 3.173845e+00 -1.884678e+00 2.504900e+00 -3.212426e-03 1.444922e-03 -1.226352e-02
Al 3.173845e+00 -1.884678e+00 7.521855e+00 -2.795699e-03 1.742820e-03 -4.974223e-03
Al 3.173845e+00 -1.884678e+00 -2.775158e+00 -3.158073e-03 1.749760e-03 -5.948837e-03
Al -4.783396e+00 9.031460e-01 2.504900e+00 1.388194e-03 -1.281962e-02 -1.060021e-02
Al -4.783396e+00 9.031460e-01 7.521855e+00 1.376218e-03 -1.310854e-02 -5.123334e-03
Al -4.783396e+00 9.031460e-01 -2.775158e+00 1.170255e-03 -1.335126e-02 -5.091394e-03
Al -6.347690e+00 3.612582e+00 2.504900e+00 -5.348384e-04 -2.089463e-05 -9.570082e-03
Al -6.347690e+00 3.612582e+00 7.521855e+00 -4.012810e-04 -1.474741e-04 -3.267844e-03
Al -6.347690e+00 3.612582e+00 -2.775158e+00 -4.182384e-04 -1.749665e-04 -3.512433e-03
Al -3.173845e+00 -1.884678e+00 2.504900e+00 -1.449547e-04 2.537994e-03 -1.107851e-02
Al -3.173845e+00 -1.884678e+00 7.521855e+00 -9.504459e-04 2.871635e-03 -4.034292e-03
Al -3.173845e+00 -1.884678e+00 -2.775158e+00 -3.697227e-04 3.240573e-03 -4.449933e-03
Al -1.654808e+00 9.031460e-01 2.504900e+00 1.379866e-02 -7.836399e-03 -1.220601e-02
Al -1.654808e+00 9.031460e-01 7.521855e+00 1.364706e-02 -7.498709e-03 -6.484237e-03
Al -1.654808e+00 9.031460e-01 -2.775158e+00 1.376941e-02 -7.894016e-03 -6.827433e-03
Al -3.219102e+00 3.612582e+00 2.504900e+00 1.224870e-02 5.202635e-03 -1.094208e-02
Al -3.219102e+00 3.612582e+00 7.521855e+00 1.219829e-02 5.142950e-03 -4.281645e-03
Ga -3.219102e+00 3.612582e+00 -2.775158e+00 1.521703e-02 7.869895e-03 -6.043209e-03
Ga -4.525702e-02 -1.884678e+00 2.504900e+00 1.480493e-02 1.058822e-02 -1.409712e-02
Ga -4.525702e-02 -1.884678e+00 7.521855e+00 1.497961e-02 1.068356e-02 -6.164374e-03
Al -4.525702e-02 -1.884678e+00 -2.775158e+00 1.181298e-02 8.410320e-03 -6.090632e-03
Al 1.469567e-08 1.806291e+00 5.013378e+00 -1.169126e-02 -8.611324e-03 -6.420345e-03
Al 1.469567e-08 1.806291e+00 -5.283635e+00 -1.177714e-02 -8.217137e-03 -6.246118e-03
Al 1.469567e-08 1.806291e+00 -2.666800e-01 -1.208020e-02 -8.484800e-03 3.289573e-02
Ga 3.173845e+00 -3.690969e+00 5.013378e+00 -1.511765e-02 -8.028925e-03 -5.606373e-03
Al 3.173845e+00 -3.690969e+00 -5.283635e+00 -1.217166e-02 -5.739565e-03 -4.874344e-03
Ga 3.173845e+00 -3.690969e+00 -2.666800e-01 -1.513953e-02 -8.226627e-03 4.508886e-02
Al 1.609551e+00 -9.815320e-01 5.013378e+00 -1.406978e-02 8.218917e-03 -6.957385e-03
Al 1.609551e+00 -9.815320e-01 -5.283635e+00 -1.385193e-02 7.966312e-03 -6.480435e-03
Al 1.609551e+00 -9.815320e-01 -2.666800e-01 -1.388866e-02 8.134901e-03 3.223318e-02
Al 3.128588e+00 1.806291e+00 5.013378e+00 3.071166e-04 -3.096783e-03 -4.770706e-03
Al 3.128588e+00 1.806291e+00 -5.283635e+00 9.189846e-05 -3.117136e-03 -4.369653e-03
Al 3.128588e+00 1.806291e+00 -2.666800e-01 1.382031e-04 -3.368371e-03 3.503595e-02
Al 6.302433e+00 -3.690969e+00 5.013378e+00 5.531516e-04 -2.183097e-04 -3.581135e-03
Al 6.302433e+00 -3.690969e+00 -5.283635e+00 1.058626e-04 -4.741226e-04 -3.300800e-03
Al 6.302433e+00 -3.690969e+00 -2.666800e-01 1.533472e-04 -1.072104e-04 3.622182e-02
Al 4.738139e+00 -9.815320e-01 5.013378e+00 -1.176397e-03 1.342673e-02 -4.783190e-03
Ga 4.738139e+00 -9.815320e-01 -5.283635e+00 -7.136679e-04 1.704089e-02 -5.530447e-03
Ga 4.738139e+00 -9.815320e-01 -2.666800e-01 -4.673440e-04 1.719163e-02 4.454168e-02
Al -3.219102e+00 1.806291e+00 5.013378e+00 2.919836e-03 -2.011451e-03 -5.636490e-03
Al -3.219102e+00 1.806291e+00 -5.283635e+00 3.311721e-03 -1.618603e-03 -5.695368e-03
Al -3.219102e+00 1.806291e+00 -2.666800e-01 3.666166e-03 -2.214712e-03 3.453554e-02
Al -4.525703e-02 -3.690969e+00 5.013378e+00 2.547910e-03 1.100248e-03 -4.266055e-03
Al -4.525703e-02 -3.690969e+00 -5.283635e+00 3.143988e-03 1.031993e-03 -4.052191e-03
Al -4.525703e-02 -3.690969e+00 -2.666800e-01 2.911177e-03 1.549858e-03 3.564659e-02
Ga -1.609551e+00 -9.815320e-01 5.013378e+00 1.993780e-03 1.829591e-02 -7.094857e-03
Al -1.609551e+00 -9.815320e-01 -5.283635e+00 1.330825e-03 1.463101e-02 -5.399122e-03
Al -1.609551e+00 -9.815320e-01 -2.666800e-01 1.193222e-03 1.479712e-02 3.328268e-02
N 1.564294e+00 9.031460e-01 4.418497e+00 -7.639549e-04 -1.355364e-02 6.260909e-03
N 1.564294e+00 9.031460e-01 -5.878516e+00 -5.203048e-04 -1.382482e-02 5.872341e-03
N 1.564294e+00 9.031460e-01 -8.615610e-01 -3.245773e-04 -1.338320e-02 6.885410e-03
N 2.938992e-08 3.612582e+00 4.418497e+00 1.662350e-02 -1.081891e-02 -4.095807e-03
N 2.938992e-08 3.612582e+00 -5.878516e+00 -1.856848e-03 2.442181e-04 3.420460e-03
N 2.938992e-08 3.612582e+00 -8.615610e-01 1.663605e-02 -1.055109e-02 -2.219053e-03
N 3.173845e+00 -1.884678e+00 4.418497e+00 -2.540610e-03 2.312077e-02 -4.948287e-03
N 3.173845e+00 -1.884678e+00 -5.878516e+00 -2.166114e-02 -9.247616e-03 -5.101005e-03
N 3.173845e+00 -1.884678e+00 -8.615610e-01 -2.100559e-02 1.220420e-02 -1.003381e-02
N -4.783396e+00 9.031460e-01 4.418497e+00 9.240149e-04 -1.354848e-02 6.729015e-03
N -4.783396e+00 9.031460e-01 -5.878516e+00 3.482469e-04 4.315024e-03 -2.114070e-04
N -4.783396e+00 9.031460e-01 -8.615610e-01 3.853009e-04 4.428025e-03 1.765282e-03
N -6.347690e+00 3.612582e+00 4.418497e+00 -5.198482e-04 4.538130e-04 4.141677e-03
N -6.347690e+00 3.612582e+00 -5.878516e+00 -4.159456e-04 4.931638e-04 3.444090e-03
N -6.347690e+00 3.612582e+00 -8.615610e-01 -3.295728e-04 1.931500e-04 4.961329e-03
N -3.173845e+00 -1.884678e+00 4.418497e+00 -2.048937e-02 -9.170937e-03 -4.339919e-03
N -3.173845e+00 -1.884678e+00 -5.878516e+00 1.820618e-02 -9.035810e-03 -4.560700e-03
N -3.173845e+00 -1.884678e+00 -8.615610e-01 1.732618e-02 -9.150525e-03 -2.265842e-03
N -1.654808e+00 9.031460e-01 4.418497e+00 1.318387e-02 1.016495e-02 3.011712e-03
N -1.654808e+00 9.031460e-01 -5.878516e+00 1.352272e-02 -8.178505e-03 8.729176e-03
N -1.654808e+00 9.031460e-01 -8.615610e-01 1.333925e-02 -7.554294e-03 9.310136e-03
N -3.219102e+00 3.612582e+00 4.418497e+00 -3.379050e-03 -2.419219e-03 2.294356e-04
N -3.219102e+00 3.612582e+00 -5.878516e+00 1.171600e-02 6.091252e-03 5.180169e-03
N -3.219102e+00 3.612582e+00 -8.615610e-01 -3.359963e-03 -2.391910e-03 2.496949e-02
N -4.525702e-02 -1.884678e+00 4.418497e+00 3.048589e-02 -3.263224e-03 2.113194e-02
N -4.525702e-02 -1.884678e+00 -5.878516e+00 1.150327e-02 7.491149e-03 2.920425e-02
N -4.525702e-02 -1.884678e+00 -8.615610e-01 1.154746e-02 6.849631e-03 6.897868e-03
N 1.469567e-08 1.806291e+00 1.910020e+00 -1.158719e-02 -7.791376e-03 -2.879496e-02
N 1.469567e-08 1.806291e+00 6.926975e+00 -1.149925e-02 -7.405487e-03 5.786809e-03
N 1.469567e-08 1.806291e+00 -3.370038e+00 -1.152520e-02 -7.201147e-03 5.828524e-03
N 3.173845e+00 -3.690969e+00 1.910020e+00 -1.257913e-02 -5.876586e-03 -1.726756e-02
N 3.173845e+00 -3.690969e+00 6.926975e+00 -1.239767e-02 -5.960192e-03 2.951928e-02
N 3.173845e+00 -3.690969e+00 -3.370038e+00 3.694377e-03 2.642389e-03 -8.736077e-04
N 1.609551e+00 -9.815320e-01 1.910020e+00 2.030097e-03 1.686485e-02 -3.189094e-02
N 1.609551e+00 -9.815320e-01 6.926975e+00 2.012326e-03 1.630785e-02 2.478216e-03
N 1.609551e+00 -9.815320e-01 -3.370038e+00 -1.345886e-02 7.684649e-03 8.792409e-03
N 3.128588e+00 1.806291e+00 1.910020e+00 1.252672e-03 -1.975085e-03 -3.137526e-02
N 3.128588e+00 1.806291e+00 6.926975e+00 1.098260e-03 -1.640742e-03 3.318308e-03
N 3.128588e+00 1.806291e+00 -3.370038e+00 1.155252e-03 -1.550489e-03 3.448231e-03
N 6.302433e+00 -3.690969e+00 1.910020e+00 7.104772e-04 -1.488457e-04 -3.072992e-02
N 6.302433e+00 -3.690969e+00 6.926975e+00 6.655045e-04 -1.292477e-04 3.474062e-03
N 6.302433e+00 -3.690969e+00 -3.370038e+00 5.046862e-04 -1.004349e-04 3.633348e-03
N 4.738139e+00 -9.815320e-01 1.910020e+00 -1.013400e-03 1.409311e-02 -1.695608e-02
N 4.738139e+00 -9.815320e-01 6.926975e+00 -8.283318e-04 1.337856e-02 5.037832e-03
N 4.738139e+00 -9.815320e-01 -3.370038e+00 -7.345642e-04 1.340386e-02 2.885781e-02
N -3.219102e+00 1.806291e+00 1.910020e+00 2.447288e-03 -1.597876e-03 -3.211471e-02
N -3.219102e+00 1.806291e+00 6.926975e+00 2.484936e-03 -1.402550e-03 2.711676e-03
N -3.219102e+00 1.806291e+00 -3.370038e+00 2.585756e-03 -2.340202e-02 -5.230446e-03
N -4.525703e-02 -3.690969e+00 1.910020e+00 2.336512e-03 -2.232150e-02 -3.949299e-02
N -4.525703e-02 -3.690969e+00 6.926975e+00 2.211668e-03 -2.189901e-02 -4.676369e-03
N -4.525703e-02 -3.690969e+00 -3.370038e+00 -1.700463e-02 1.106091e-02 -4.464483e-03
N -1.609551e+00 -9.815320e-01 1.910020e+00 -1.830532e-02 2.499213e-02 -3.735533e-02
N -1.609551e+00 -9.815320e-01 6.926975e+00 -1.798125e-02 2.473646e-02 2.133296e-02
N -1.609551e+00 -9.815320e-01 -3.370038e+00 5.421215e-04 1.337738e-02 5.734204e-03
