108
Energy=-2267683.832229 Lattice="9.620499 0.000000 0.000000 -4.810910 8.329446 0.000000 -0.000513 -0.002818 15.597425" Stress="-0.000000 -0.000000 -0.000001 -0.000000 -0.000001 -0.000001 -0.000001 -0.000001 -0.000000" Properties=species:S:1:pos:R:3:forces:R:3
Al 1.579836 0.894912 2.446662 0.000209 -0.000047 -0.000024
Al 1.576628 0.877749 7.643084 -0.000046 -0.000036 -0.000037
Al 1.575772 0.889517 -2.731024 -0.000048 -0.000014 0.000023
Al -0.006652 3.661817 2.450264 0.000071 0.000135 0.000043
Ga -0.021751 3.660465 7.634809 -0.000024 0.000003 -0.000041
Ga -0.017550 3.654207 -2.728755 -0.000023 0.000027 -0.000037
Ga 3.195816 -1.884683 2.478315 0.000152 0.000124 0.000038
Ga 3.180941 -1.893954 7.627176 -0.000059 0.000033 -0.000029
Ga 3.180145 -1.889160 -2.749248 -0.000066 0.000108 0.000017
Al -4.840212 0.873060 2.467142 0.000222 0.000005 0.000013
Ga -4.846246 0.875596 7.636439 0.000027 0.000048 0.000018
Ga -4.844556 0.885595 -2.739966 -0.000006 0.000023 0.000044
Ga -6.461452 3.658514 2.457657 0.000141 0.000006 -0.000012
Ga -6.443465 3.662563 7.637457 0.000059 0.000025 -0.000012
Ga -6.439940 3.660780 -2.738416 -0.000072 0.000027 0.000108
Al -3.244209 -1.901732 2.466645 0.000092 0.000076 -0.000017
Ga -3.228554 -1.896864 7.618682 0.000031 0.000038 -0.000059
Ga -3.229931 -1.895951 -2.727311 -0.000070 0.000059 0.000012
Ga -1.617939 0.889510 2.446063 0.000217 0.000085 0.000084
Ga -1.609543 0.876627 7.639716 0.000068 -0.000032 -0.000022
Ga -1.609044 0.889997 -2.725025 0.000012 0.000013 -0.000122
Ga -3.224085 3.656746 2.474069 0.000174 0.000005 -0.000036
Ga -3.223718 3.677927 7.656039 -0.000029 0.000029 -0.000055
Ga -3.229213 3.672617 -2.763951 -0.000027 -0.000026 -0.000063
Ga -0.024076 -1.881481 2.459723 0.000165 0.000008 -0.000061
Al -0.017691 -1.888184 7.656814 0.000035 0.000016 -0.000062
Ga -0.016390 -1.888195 -2.755064 -0.000048 0.000070 -0.000076
Ga -0.010484 1.830120 5.037597 -0.000064 0.000107 -0.000075
Ga -0.015712 1.817319 -5.347721 -0.000081 0.000036 -0.000061
Al -0.005365 1.822434 -0.129218 0.000299 0.000006 0.000117
Al 3.206533 -3.740152 5.032598 -0.000067 0.000036 0.000039
Al 3.179940 -3.740732 -5.349759 -0.000078 0.000031 -0.000011
Ga 3.200828 -3.752800 -0.125526 0.000163 0.000188 0.000022
Ga 1.588354 -0.962928 5.066005 -0.000095 0.000078 -0.000011
Ga 1.578718 -0.970096 -5.364384 -0.000040 0.000050 0.000009
Ga 1.576755 -0.948325 -0.141440 0.000142 0.000190 0.000032
Ga 3.176190 1.801177 5.034858 -0.000089 0.000011 0.000011
Ga 3.174336 1.815519 -5.345569 0.000021 0.000028 0.000011
Ga 3.163319 1.811511 -0.126243 0.000184 0.000061 -0.000098
Al 6.368016 -3.733708 5.024190 -0.000049 0.000034 -0.000039
Ga 6.387981 -3.742405 -5.351530 0.000013 0.000087 0.000029
Al 6.379212 -3.746545 -0.118038 0.000254 0.000079 0.000127
Al 4.792562 -0.978313 5.021515 -0.000087 0.000004 0.000008
Ga 4.784026 -0.976282 -5.350117 -0.000055 0.000028 -0.000031
Ga 4.794342 -0.972793 -0.111350 0.000205 0.000142 -0.000059
Ga -3.237606 1.809709 5.044356 0.000101 -0.000003 -0.000071
Ga -3.228780 1.826915 -5.349951 0.000028 0.000042 -0.000062
Ga -3.227803 1.812990 -0.126995 0.000129 0.000154 0.000119
Ga -0.023245 -3.739986 5.064278 0.000026 0.000167 0.000003
Al -0.015980 -3.734005 -5.366826 0.000013 0.000049 -0.000032
Ga -0.031364 -3.743319 -0.135940 0.000177 0.000068 0.000158
Ga -1.641038 -0.981197 5.046146 -0.000011 0.000111 -0.000084
Ga -1.620151 -0.975736 -5.357772 -0.000075 0.000050 -0.000067
Ga -1.633955 -0.969651 -0.126390 0.000183 -0.000049 0.000110
N 1.574879 0.880831 4.356732 0.000109 -0.000042 -0.000005
N 1.579944 0.888332 -6.041078 0.000074 -0.000046 -0.000092
N 1.536893 0.913262 -0.807155 -0.000103 -0.000081 -0.000040
N -0.020939 3.707126 4.381886 0.000054 -0.000137 0.000049
N -0.066958 3.688921 -5.976650 0.000047 -0.000089 0.000047
N 0.020544 3.638541 -0.736082 -0.000165 -0.000117 0.000004
N 3.219846 -1.912869 4.463431 0.000071 -0.000017 -0.000040
N 3.185572 -1.940899 -5.979821 0.000061 -0.000020 0.000017
N 3.185299 -1.893036 -0.766045 -0.000108 -0.000129 -0.000066
N -4.836434 0.837595 4.387047 0.000079 -0.000066 0.000011
N -4.836937 0.884649 -5.983145 0.000028 -0.000086 0.000055
N -4.838034 0.884738 -0.763750 -0.000135 -0.000164 -0.000112
N -6.482482 3.687486 4.440233 0.000047 -0.000102 -0.000026
N -6.398417 3.686645 -5.971829 -0.000051 -0.000072 -0.000010
N -6.483392 3.687217 -0.745450 -0.000148 -0.000075 -0.000035
N -3.271775 -1.919044 4.395006 0.000094 -0.000023 0.000055
N -3.232291 -1.892471 -6.004028 0.000006 -0.000062 0.000081
N -3.232774 -1.942848 -0.746656 -0.000128 -0.000062 -0.000045
N -1.621460 0.886569 4.420593 0.000100 -0.000097 0.000045
N -1.623735 0.888088 -5.982111 0.000098 -0.000080 0.000026
N -1.578290 0.913819 -0.732755 -0.000172 -0.000140 0.000059
N -3.189192 3.688948 4.447612 0.000122 -0.000067 0.000023
N -3.225761 3.716256 -5.948637 0.000096 -0.000092 0.000069
N -3.227641 3.667722 -0.781841 -0.000171 -0.000158 0.000061
N -0.018501 -1.889218 4.423424 0.000064 -0.000114 0.000034
N -0.021661 -1.935106 -6.017143 0.000039 -0.000026 0.000026
N -0.023765 -1.890271 -0.777138 -0.000137 -0.000124 0.000101
N 0.027245 1.839248 1.805930 -0.000367 0.000021 -0.000089
N 0.024533 1.789422 7.018630 0.000006 0.000034 0.000090
N 0.022934 1.789077 -3.363938 0.000043 -0.000001 0.000051
N 3.227844 -3.765783 1.853166 -0.000090 -0.000076 0.000118
N 3.188894 -3.747803 6.948508 0.000009 0.000042 -0.000059
N 3.194497 -3.742674 -3.427772 -0.000039 0.000005 -0.000009
N 1.586314 -0.916294 1.840473 -0.000279 -0.000023 -0.000028
N 1.538372 -0.941444 7.056022 -0.000051 0.000027 0.000076
N 1.581747 -0.910852 -3.371592 -0.000044 0.000031 0.000023
N 3.184879 1.761012 1.863958 -0.000229 -0.000032 0.000091
N 3.137878 1.783160 7.019337 0.000019 -0.000011 0.000059
N 3.136171 1.788423 -3.356592 -0.000017 -0.000045 -0.000029
N 6.346681 -3.715023 1.811550 -0.000272 -0.000083 -0.000176
N 6.386511 -3.746405 6.943570 -0.000034 0.000033 0.000047
N 6.389208 -3.742337 -3.379249 0.000013 -0.000031 -0.000043
N 4.829719 -0.943592 1.872600 -0.000238 -0.000114 0.000131
N 4.788831 -0.966423 6.942001 -0.000024 -0.000031 -0.000015
N 4.790440 -0.967198 -3.376609 0.000001 -0.000057 0.000035
N -3.275477 1.787231 1.853496 -0.000111 -0.000005 -0.000144
N -3.231527 1.812517 7.021875 -0.000060 0.000010 0.000016
N -3.226355 1.807866 -3.370891 -0.000020 0.000039 0.000046
N -0.023686 -3.745849 1.835122 -0.000176 0.000036 -0.000195
N -0.021683 -3.694747 7.041348 0.000004 -0.000010 0.000008
N -0.027710 -3.739751 -3.440713 -0.000015 -0.000002 -0.000007
N -1.674345 -0.993679 1.852887 -0.000130 0.000045 -0.000155
N -1.582224 -0.995213 7.026742 -0.000081 -0.000019 0.000049
N -1.628484 -0.963107 -3.376388 0.000009 -0.000088 0.000090
