108
Energy=-2.588105e+06 Lattice="9.476278e+00 0.000000e+00 0.000000e+00 -4.738139e+00 8.206697e+00 0.000000e+00 9.377101e-16 1.624162e-15 1.531397e+01" Stress="-9.320466e-02 7.324552e-03 -8.799099e-05 7.318082e-03 -8.499420e-02 -3.587106e-04 -8.955799e-05 -3.560962e-04 -8.682069e-02" Properties=species:S:1:pos:R:3:forces:R:3 Config_type=AlGaN_super3_47_2_0.xyz
Al 1.564294e+00 9.031460e-01 2.504900e+00 -1.321615e-03 -1.480964e-02 -1.287648e-02
Al 1.564294e+00 9.031460e-01 7.521855e+00 -1.555815e-03 -1.465074e-02 -4.189197e-03
Ga 1.564294e+00 9.031460e-01 -2.775158e+00 -2.236739e-03 -1.855719e-02 -7.347868e-03
Ga 2.938992e-08 3.612582e+00 2.504900e+00 -2.797449e-03 -1.561254e-03 -1.281639e-02
Al 2.938992e-08 3.612582e+00 7.521855e+00 -3.097830e-03 -1.696036e-03 -2.489025e-03
Ga 2.938992e-08 3.612582e+00 -2.775158e+00 -3.173295e-03 -1.651556e-03 -3.525202e-03
Ga 3.173845e+00 -1.884678e+00 2.504900e+00 -3.231128e-03 1.924087e-03 -1.376048e-02
Ga 3.173845e+00 -1.884678e+00 7.521855e+00 -3.523133e-03 1.633884e-03 -3.851289e-03
Ga 3.173845e+00 -1.884678e+00 -2.775158e+00 -3.414653e-03 1.984964e-03 -4.021539e-03
Ga -4.783396e+00 9.031460e-01 2.504900e+00 4.343594e-04 -1.746434e-02 -1.420860e-02
Ga -4.783396e+00 9.031460e-01 7.521855e+00 4.899377e-04 -1.741939e-02 -4.360300e-03
Ga -4.783396e+00 9.031460e-01 -2.775158e+00 7.065186e-04 -1.726634e-02 -5.643784e-03
Ga -6.347690e+00 3.612582e+00 2.504900e+00 -6.088976e-04 -6.791001e-05 -1.100593e-02
Ga -6.347690e+00 3.612582e+00 7.521855e+00 -7.886213e-04 -1.655633e-04 -1.466615e-03
Ga -6.347690e+00 3.612582e+00 -2.775158e+00 -1.907043e-04 5.880784e-06 -2.352943e-03
Al -3.173845e+00 -1.884678e+00 2.504900e+00 -3.277484e-04 3.172413e-03 -1.126511e-02
Ga -3.173845e+00 -1.884678e+00 7.521855e+00 -5.876823e-04 3.170669e-03 -2.727353e-03
Ga -3.173845e+00 -1.884678e+00 -2.775158e+00 -3.886570e-04 3.518280e-03 -2.966437e-03
Ga -1.654808e+00 9.031460e-01 2.504900e+00 1.666733e-02 -9.614746e-03 -1.709428e-02
Ga -1.654808e+00 9.031460e-01 7.521855e+00 1.674117e-02 -9.193071e-03 -7.861711e-03
Ga -1.654808e+00 9.031460e-01 -2.775158e+00 1.653546e-02 -9.460182e-03 -8.806993e-03
Ga -3.219102e+00 3.612582e+00 2.504900e+00 1.551816e-02 7.995233e-03 -1.377204e-02
Ga -3.219102e+00 3.612582e+00 7.521855e+00 1.568804e-02 8.117154e-03 -5.185556e-03
Ga -3.219102e+00 3.612582e+00 -2.775158e+00 1.539979e-02 8.001524e-03 -5.121105e-03
Ga -4.525702e-02 -1.884678e+00 2.504900e+00 1.500717e-02 1.138011e-02 -1.504575e-02
Ga -4.525702e-02 -1.884678e+00 7.521855e+00 1.537694e-02 1.135435e-02 -6.559908e-03
Ga -4.525702e-02 -1.884678e+00 -2.775158e+00 1.518262e-02 1.126165e-02 -6.093482e-03
Ga 1.469567e-08 1.806291e+00 5.013378e+00 -1.520330e-02 -1.138093e-02 -6.329718e-03
Al 1.469567e-08 1.806291e+00 -5.283635e+00 -1.163688e-02 -8.688998e-03 -6.068341e-03
Ga 1.469567e-08 1.806291e+00 -2.666800e-01 -1.503617e-02 -1.137398e-02 4.523306e-02
Ga 3.173845e+00 -3.690969e+00 5.013378e+00 -1.592429e-02 -8.088068e-03 -4.908794e-03
Ga 3.173845e+00 -3.690969e+00 -5.283635e+00 -1.520307e-02 -8.383068e-03 -5.605919e-03
Ga 3.173845e+00 -3.690969e+00 -2.666800e-01 -1.539413e-02 -7.982587e-03 4.667931e-02
Ga 1.609551e+00 -9.815320e-01 5.013378e+00 -1.671623e-02 9.053601e-03 -8.756221e-03
Ga 1.609551e+00 -9.815320e-01 -5.283635e+00 -1.636148e-02 1.007903e-02 -8.993023e-03
Ga 1.609551e+00 -9.815320e-01 -2.666800e-01 -1.652663e-02 9.599294e-03 4.285704e-02
Ga 3.128588e+00 1.806291e+00 5.013378e+00 4.797060e-04 -3.124274e-03 -3.147837e-03
Al 3.128588e+00 1.806291e+00 -5.283635e+00 -1.931428e-04 -3.712320e-03 -3.682790e-03
Ga 3.128588e+00 1.806291e+00 -2.666800e-01 2.342219e-04 -3.655732e-03 4.882332e-02
Ga 6.302433e+00 -3.690969e+00 5.013378e+00 6.738245e-04 -1.550229e-04 -1.950271e-03
Ga 6.302433e+00 -3.690969e+00 -5.283635e+00 1.870735e-04 -8.573287e-04 -2.298551e-03
Ga 6.302433e+00 -3.690969e+00 -2.666800e-01 1.888086e-04 -1.101824e-04 5.020682e-02
Ga 4.738139e+00 -9.815320e-01 5.013378e+00 -7.210911e-04 1.740699e-02 -5.546946e-03
Ga 4.738139e+00 -9.815320e-01 -5.283635e+00 -7.805988e-04 1.775234e-02 -5.332111e-03
Ga 4.738139e+00 -9.815320e-01 -2.666800e-01 -7.705720e-04 1.724165e-02 4.665527e-02
Ga -3.219102e+00 1.806291e+00 5.013378e+00 3.284189e-03 -1.534817e-03 -4.086756e-03
Ga -3.219102e+00 1.806291e+00 -5.283635e+00 3.106020e-03 -2.436624e-03 -4.078880e-03
Ga -3.219102e+00 1.806291e+00 -2.666800e-01 3.590909e-03 -1.990531e-03 4.802405e-02
Al -4.525703e-02 -3.690969e+00 5.013378e+00 3.151337e-03 1.356281e-03 -3.226765e-03
Ga -4.525703e-02 -3.690969e+00 -5.283635e+00 2.927764e-03 1.031389e-03 -2.849197e-03
Ga -4.525703e-02 -3.690969e+00 -2.666800e-01 3.329640e-03 1.486721e-03 4.906478e-02
Ga -1.609551e+00 -9.815320e-01 5.013378e+00 2.398076e-03 1.860632e-02 -6.978970e-03
Ga -1.609551e+00 -9.815320e-01 -5.283635e+00 2.073061e-03 1.902980e-02 -6.338185e-03
Ga -1.609551e+00 -9.815320e-01 -2.666800e-01 2.237530e-03 1.873006e-02 4.568562e-02
N 1.564294e+00 9.031460e-01 4.418497e+00 -1.287221e-03 -1.781457e-02 -1.628225e-02
N 1.564294e+00 9.031460e-01 -5.878516e+00 -1.086395e-03 3.878452e-03 -1.913031e-03
N 1.564294e+00 9.031460e-01 -8.615610e-01 -1.210459e-03 -1.768311e-02 9.199912e-03
N 2.938992e-08 3.612582e+00 4.418497e+00 -2.492090e-03 1.456059e-04 2.930258e-03
N 2.938992e-08 3.612582e+00 -5.878516e+00 -2.482483e-03 -2.128241e-02 -1.381526e-02
N 2.938992e-08 3.612582e+00 -8.615610e-01 -2.171508e-03 7.640315e-05 6.102203e-03
N 3.173845e+00 -1.884678e+00 4.418497e+00 -2.880615e-03 1.823052e-03 2.016281e-03
N 3.173845e+00 -1.884678e+00 -5.878516e+00 -3.163625e-03 1.455848e-03 1.683454e-03
N 3.173845e+00 -1.884678e+00 -8.615610e-01 -2.769673e-03 1.769362e-03 5.583082e-03
N -4.783396e+00 9.031460e-01 4.418497e+00 3.735159e-04 -1.797280e-02 6.695539e-03
N -4.783396e+00 9.031460e-01 -5.878516e+00 -1.829961e-02 -6.738052e-03 1.401478e-02
N -4.783396e+00 9.031460e-01 -8.615610e-01 3.514881e-04 -1.756502e-02 9.843719e-03
N -6.347690e+00 3.612582e+00 4.418497e+00 1.839836e-02 1.125352e-02 1.080953e-02
N -6.347690e+00 3.612582e+00 -5.878516e+00 -8.981196e-05 -2.115145e-02 9.962768e-03
N -6.347690e+00 3.612582e+00 -8.615610e-01 -6.949471e-04 3.206015e-04 6.473477e-03
N -3.173845e+00 -1.884678e+00 4.418497e+00 -1.497571e-03 2.098394e-03 -2.121458e-02
N -3.173845e+00 -1.884678e+00 -5.878516e+00 -1.083468e-03 2.045073e-03 2.144565e-03
N -3.173845e+00 -1.884678e+00 -8.615610e-01 -1.202389e-03 1.969035e-03 5.446816e-03
N -1.654808e+00 9.031460e-01 4.418497e+00 1.662999e-02 -9.645681e-03 1.098661e-02
N -1.654808e+00 9.031460e-01 -5.878516e+00 3.190048e-02 -9.752366e-04 1.621014e-02
N -1.654808e+00 9.031460e-01 -8.615610e-01 1.655747e-02 -9.569040e-03 1.333370e-02
N -3.219102e+00 3.612582e+00 4.418497e+00 -3.085049e-03 1.944353e-02 1.426363e-02
N -3.219102e+00 3.612582e+00 -5.878516e+00 1.555744e-02 8.816486e-03 5.926073e-03
N -3.219102e+00 3.612582e+00 -8.615610e-01 1.536763e-02 8.401602e-03 9.677766e-03
N -4.525702e-02 -1.884678e+00 4.418497e+00 1.485495e-02 -1.152668e-02 1.413361e-02
N -4.525702e-02 -1.884678e+00 -5.878516e+00 1.505866e-02 9.847777e-03 5.800312e-03
N -4.525702e-02 -1.884678e+00 -8.615610e-01 1.466058e-02 1.002612e-02 9.561070e-03
N 1.469567e-08 1.806291e+00 1.910020e+00 3.432637e-03 -2.110485e-02 -3.226445e-02
N 1.469567e-08 1.806291e+00 6.926975e+00 3.980944e-03 8.706965e-04 2.163544e-02
N 1.469567e-08 1.806291e+00 -3.370038e+00 -1.478919e-02 -1.000947e-02 -1.725910e-02
N 3.173845e+00 -3.690969e+00 1.910020e+00 -1.587217e-02 -8.595362e-03 -3.940668e-02
N 3.173845e+00 -3.690969e+00 6.926975e+00 3.440272e-03 -1.945766e-02 1.387370e-02
N 3.173845e+00 -3.690969e+00 -3.370038e+00 -1.558933e-02 -8.422610e-03 6.197956e-03
N 1.609551e+00 -9.815320e-01 1.910020e+00 -1.732276e-02 2.730940e-02 -2.915357e-02
N 1.609551e+00 -9.815320e-01 6.926975e+00 -1.679947e-02 2.757274e-02 1.611322e-02
N 1.609551e+00 -9.815320e-01 -3.370038e+00 -1.664271e-02 9.470085e-03 1.017655e-02
N 3.128588e+00 1.806291e+00 1.910020e+00 -1.761001e-02 -1.284464e-02 -3.632180e-02
N 3.128588e+00 1.806291e+00 6.926975e+00 -1.763918e-02 -1.301485e-02 9.789297e-03
N 3.128588e+00 1.806291e+00 -3.370038e+00 1.347526e-03 -1.944004e-03 -2.129167e-02
N 6.302433e+00 -3.690969e+00 1.910020e+00 6.698801e-04 2.189983e-02 -3.594430e-02
N 6.302433e+00 -3.690969e+00 6.926975e+00 -1.840683e-02 -1.113657e-02 9.939153e-03
N 6.302433e+00 -3.690969e+00 -3.370038e+00 5.544121e-04 -1.724272e-04 2.479163e-03
N 4.738139e+00 -9.815320e-01 1.910020e+00 1.856153e-02 7.076965e-03 -3.203700e-02
N 4.738139e+00 -9.815320e-01 6.926975e+00 -3.180104e-04 1.792975e-02 5.860150e-03
N 4.738139e+00 -9.815320e-01 -3.370038e+00 -3.715777e-04 1.763708e-02 6.394381e-03
N -3.219102e+00 1.806291e+00 1.910020e+00 3.138271e-03 -1.751093e-03 -4.465418e-02
N -3.219102e+00 1.806291e+00 6.926975e+00 2.904251e-03 -2.116579e-03 1.691034e-03
N -3.219102e+00 1.806291e+00 -3.370038e+00 2.996585e-03 -1.683660e-03 1.665642e-03
N -4.525703e-02 -3.690969e+00 1.910020e+00 2.642837e-03 1.097292e-04 -4.382982e-02
N -4.525703e-02 -3.690969e+00 6.926975e+00 2.138463e-03 -1.362897e-04 -2.135428e-02
N -4.525703e-02 -3.690969e+00 -3.370038e+00 2.460756e-03 8.550084e-05 1.992226e-03
N -1.609551e+00 -9.815320e-01 1.910020e+00 -1.747632e-02 7.073321e-03 -3.237570e-02
N -1.609551e+00 -9.815320e-01 6.926975e+00 1.081504e-03 1.820791e-02 5.899593e-03
N -1.609551e+00 -9.815320e-01 -3.370038e+00 1.375925e-03 1.785899e-02 5.976233e-03
