108
Energy=-573990.751760 Lattice="9.411698 0.000000 0.000000 -4.710488 8.148442 0.000000 -0.022778 -0.001251 15.094500" Stress="-0.000003 -0.000001 -0.000006 -0.000001 -0.000005 -0.000000 -0.000006 -0.000000 -0.000005" Properties=species:S:1:pos:R:3:forces:R:3
Al 1.541494 0.866356 2.364753 0.000288 0.000118 0.000072
Al 1.532445 0.865315 7.396175 0.000263 -0.000018 -0.000070
Al 1.552036 0.866335 -2.667335 0.000019 -0.000041 -0.000195
Al -0.026414 3.581425 2.365089 0.000243 0.000064 0.000116
Al -0.035751 3.580444 7.396387 -0.000008 0.000064 -0.000052
Al -0.019351 3.583139 -2.666467 -0.000027 -0.000052 -0.000160
Al 3.106440 -1.853866 2.379653 0.000743 0.000223 0.000179
Al 3.105381 -1.851272 7.396138 0.000055 -0.000036 -0.000257
Al 3.117113 -1.854146 -2.677058 0.000052 0.000016 -0.000190
Al -4.731611 0.875680 2.380148 -0.000127 -0.001322 -0.000235
Al -4.741370 0.865821 7.395431 0.000163 0.000074 -0.000267
Al -4.725549 0.872338 -2.675507 0.000345 0.000318 -0.000524
Al -6.301372 3.583512 2.365811 0.000099 0.000030 -0.000205
Al -6.315062 3.579745 7.386460 0.000065 0.000019 -0.000204
Al -6.301136 3.577113 -2.652704 -0.000082 0.000131 -0.000195
Al -3.157791 -1.857392 2.371563 -0.000146 0.000165 -0.000146
Al -3.176387 -1.854583 7.410359 0.000042 0.000027 -0.000365
Al -3.146900 -1.853155 -2.677767 0.000012 0.000117 -0.000193
Al -1.596537 0.873867 2.354694 0.000333 -0.000320 -0.000011
Al -1.604514 0.875020 7.410739 0.000192 -0.000102 -0.000101
Al -1.588821 0.867347 -2.666607 0.000251 -0.000121 0.000094
Al -3.165730 3.583749 2.364539 0.000062 0.000108 0.000119
Al -3.169677 3.580408 7.386762 0.000108 -0.000084 -0.000142
Al -3.149541 3.579594 -2.652036 0.000130 -0.000065 0.000053
Al -0.019120 -1.851368 2.354379 0.000131 -0.000133 0.000096
Al -0.025923 -1.848543 7.400816 0.000148 -0.000112 -0.000171
Al -0.015926 -1.839901 -2.652086 0.000009 -0.000041 -0.000160
Al -0.028827 1.777589 4.880344 0.000113 0.000193 0.000083
Al -0.013896 1.772636 -5.178294 -0.000064 0.000125 -0.000085
Al -0.021280 1.771877 -0.155515 -0.000387 0.000005 -0.000247
Al 3.109724 -3.662906 4.880358 0.000035 0.000220 -0.000168
Al 3.134599 -3.662663 -5.184176 -0.000053 0.000125 -0.000097
Al 3.113908 -3.667431 -0.145666 0.000243 0.000089 -0.000417
Al 1.547755 -0.944643 4.882568 -0.000090 0.000077 -0.000073
Al 1.561760 -0.936226 -5.180331 -0.000193 0.000090 -0.000095
Al 1.542039 -0.943100 -0.149647 -0.000020 0.000109 -0.000135
Al 3.103076 1.771281 4.880816 0.000103 -0.000017 -0.000312
Al 3.116392 1.765877 -5.184421 0.000003 -0.000014 -0.000401
Al 3.110167 1.775867 -0.149113 -0.000418 0.000579 0.001399
Al 6.240703 -3.669179 4.883317 0.000163 -0.000006 -0.000165
Al 6.254183 -3.663723 -5.180600 0.000037 -0.000022 -0.000170
Al 6.255795 -3.669353 -0.149382 0.000438 0.000162 -0.000018
Al 4.668411 -0.945401 4.883275 0.000006 0.000032 -0.000365
Al 4.692181 -0.943188 -5.179612 -0.000128 -0.000075 -0.000495
Ga 4.683853 -0.945034 -0.150226 0.000134 0.000148 0.001084
Al -3.173498 1.779384 4.882849 -0.000007 0.000070 -0.000131
Al -3.149336 1.768060 -5.180175 0.000000 0.000030 -0.000195
Al -3.159332 1.779408 -0.146688 0.000573 0.000170 -0.001105
Al -0.024899 -3.667111 4.881227 0.000073 0.000083 -0.000218
Ga -0.011777 -3.661358 -5.171800 0.000054 0.000031 -0.000048
Al -0.022743 -3.661538 -0.153406 0.000468 0.000168 -0.000890
Ga -1.597292 -0.942859 4.887522 -0.000110 0.000026 -0.000054
Al -1.583833 -0.935233 -5.182829 -0.000083 -0.000037 -0.000281
Al -1.584497 -0.942914 -0.146172 0.000216 0.000161 -0.000525
N 1.535374 0.865638 4.283041 0.000165 0.000043 0.000173
N 1.552240 0.867375 -5.781055 0.000114 -0.000033 0.000146
N 1.547966 0.866259 -0.749714 0.000088 -0.000063 0.000107
N -0.032437 3.581450 4.281612 0.000015 -0.000126 0.000137
N -0.015211 3.580802 -5.781153 -0.000007 -0.000072 0.000114
N -0.024896 3.583835 -0.748586 -0.000144 -0.000059 -0.000059
N 3.105930 -1.852692 4.291536 0.000004 -0.000084 0.000366
N 3.125432 -1.849991 -5.778138 0.000028 -0.000018 0.000165
N 3.074782 -1.874752 -0.768716 -0.000008 -0.000264 0.000104
N -4.737699 0.869140 4.293485 0.000199 0.000141 0.000295
N -4.720976 0.867585 -5.779270 0.000107 0.000036 0.000404
N -4.729361 0.917524 -0.767238 -0.000009 -0.000728 -0.000251
N -6.307243 3.583120 4.285027 -0.000021 -0.000025 0.000300
N -6.331434 3.559399 -5.799562 0.000007 0.000107 0.000168
N -6.302759 3.579113 -0.741153 -0.000095 -0.000061 0.000053
N -3.204878 -1.876379 4.274821 0.000148 0.000061 0.000407
N -3.152176 -1.851834 -5.768665 0.000004 0.000051 0.000307
N -3.115570 -1.874847 -0.767663 -0.000012 -0.000054 0.000155
N -1.601835 0.916842 4.262853 0.000265 -0.000226 0.000190
N -1.583330 0.873090 -5.771092 0.000127 -0.000119 0.000149
N -1.594290 0.867114 -0.745443 0.000243 0.000045 -0.000366
N -3.170254 3.583638 4.282732 0.000065 -0.000250 0.000184
N -3.112488 3.560341 -5.799151 -0.000103 -0.000125 0.000065
N -3.158740 3.582862 -0.739488 0.000065 -0.000244 -0.000174
N 0.012766 -1.873109 4.265007 0.000072 -0.000107 0.000085
N -0.008575 -1.802664 -5.789301 -0.000005 -0.000312 0.000179
N -0.021657 -1.844528 -0.738236 0.000064 -0.000200 -0.000033
N -0.023789 1.772298 1.761518 0.000208 0.000248 0.000186
N -0.035237 1.769977 6.799258 -0.000126 0.000128 0.000089
N -0.016652 1.771524 -3.259539 -0.000219 0.000153 0.000030
N 3.116687 -3.660448 1.771844 -0.000411 0.000050 0.000429
N 3.108952 -3.661406 6.795807 0.000021 0.000107 0.000219
N 3.123344 -3.664697 -3.268262 -0.000149 0.000066 -0.000022
N 1.550016 -0.942966 1.766256 -0.000290 0.000072 0.000081
N 1.539144 -0.944802 6.797406 -0.000219 0.000166 0.000174
N 1.552406 -0.943415 -3.265380 -0.000262 0.000138 0.000037
N 3.112354 1.772349 1.774078 -0.000267 -0.000441 -0.000628
N 3.101489 1.768743 6.795433 -0.000110 -0.000060 0.000233
N 3.116948 1.773638 -3.269555 -0.000127 -0.000064 0.000314
N 6.253313 -3.662752 1.767092 -0.000438 -0.000216 -0.000009
N 6.240546 -3.659971 6.797594 -0.000037 -0.000084 0.000240
N 6.260743 -3.664727 -3.265989 -0.000137 -0.000132 0.000072
N 4.682606 -0.946551 1.830309 -0.000804 0.001506 -0.001447
N 4.674467 -0.945509 6.802203 -0.000158 -0.000066 0.000352
N 4.690808 -0.943954 -3.261616 -0.000272 -0.000078 0.000295
N -3.166686 1.774396 1.765182 -0.000383 -0.000237 0.001009
N -3.171834 1.769265 6.797139 -0.000040 -0.000010 0.000207
N -3.154027 1.774968 -3.265512 -0.000196 -0.000040 0.000135
N -0.022343 -3.662263 1.762639 -0.000378 -0.000097 0.000826
N -0.031623 -3.660111 6.800041 -0.000024 0.000015 0.000189
N -0.014928 -3.660266 -3.197291 -0.000057 -0.000032 0.000135
N -1.592480 -0.943589 1.772095 -0.000506 -0.000042 0.000458
N -1.602879 -0.942997 6.859182 -0.000201 0.000022 0.000215
N -1.580607 -0.942251 -3.266397 -0.000268 0.000072 0.000049
