108
Energy=-1718377.773123 Lattice="9.550494 0.000000 0.000000 -4.778304 8.269897 0.000000 0.004618 -0.011875 15.443936" Stress="0.000001 -0.000001 0.000001 -0.000001 0.000001 -0.000002 0.000001 -0.000002 -0.000001" Properties=species:S:1:pos:R:3:forces:R:3
Al 1.568321 0.872540 2.450195 0.000029 -0.000025 -0.000040
Al 1.561103 0.867862 7.564669 -0.000001 -0.000045 0.000035
Al 1.565553 0.880641 -2.732868 0.000017 -0.000084 0.000017
Al -0.016723 3.641810 2.432824 0.000003 -0.000040 -0.000012
Al -0.021315 3.623639 7.572114 0.000280 -0.000199 0.000465
Ga -0.019139 3.634723 -2.725614 -0.000003 -0.000007 0.000007
Al 3.160125 -1.879797 2.472366 0.000013 0.000016 -0.000011
Ga 3.162944 -1.874279 7.549923 -0.000036 0.000101 0.000039
Al 3.156336 -1.869887 -2.743246 -0.000014 -0.000026 0.000010
Ga -4.803034 0.874099 2.424508 0.000051 -0.000013 -0.000007
Al -4.792756 0.862382 7.597596 -0.000058 -0.000084 0.000089
Ga -4.792605 0.888877 -2.741387 0.000048 -0.000028 -0.000014
Ga -6.410266 3.633356 2.454459 -0.000015 -0.000044 0.000019
Ga -6.393320 3.633557 7.576312 -0.000031 -0.000002 0.000043
Al -6.395546 3.641124 -2.748050 -0.000023 -0.000004 0.000011
Ga -3.215756 -1.894318 2.461287 -0.000021 0.000007 0.000067
Ga -3.202175 -1.875464 7.577486 -0.000039 -0.000020 0.000016
Ga -3.206574 -1.880702 -2.755615 -0.000007 -0.000029 0.000007
Ga -1.607435 0.886864 2.446463 0.000065 -0.000101 0.000060
Al -1.606105 0.865510 7.586121 0.000377 -0.000029 -0.000665
Al -1.619260 0.890300 -2.749200 -0.000046 -0.000057 0.000102
Ga -3.193448 3.637928 2.451299 0.000005 -0.000060 0.000023
Ga -3.203533 3.630427 7.579973 -0.000033 0.000099 0.000045
Al -3.212496 3.628927 -2.751141 0.000011 -0.000056 -0.000041
Ga -0.007947 -1.870889 2.460159 -0.000017 -0.000044 0.000053
Al -0.022819 -1.870426 7.571537 0.000399 -0.000018 -0.000051
Ga -0.016541 -1.873270 -2.750387 0.000009 -0.000046 -0.000019
Ga -0.017672 1.802783 5.019532 -0.000091 -0.000078 0.000054
Ga -0.034688 1.797713 -5.310402 0.000211 0.000187 -0.000032
Ga -0.027484 1.799758 -0.145926 -0.000001 -0.000035 0.000055
Al 3.175555 -3.707966 4.998430 0.000095 0.000148 0.000013
Ga 3.162405 -3.710172 -5.291683 0.000060 0.000094 0.000011
Ga 3.159836 -3.713140 -0.148834 0.000027 -0.000028 0.000042
Al 1.568577 -0.973056 5.013042 -0.000159 -0.000242 0.000099
Ga 1.563676 -0.958093 -5.308905 -0.000047 -0.000083 -0.000026
Ga 1.581554 -0.954668 -0.140215 0.000002 -0.000028 0.000015
Ga 3.161764 1.785173 5.024739 0.000051 -0.000046 0.000073
Ga 3.166823 1.806555 -5.301514 0.000027 0.000018 0.000085
Ga 3.151849 1.812601 -0.161479 0.000060 -0.000063 0.000025
Al 6.335479 -3.710349 5.015927 0.000079 0.000284 0.000114
Al 6.349614 -3.700718 -5.309867 -0.000048 0.000039 -0.000034
Al 6.349458 -3.717410 -0.146334 0.000024 -0.000033 0.000034
Al 4.753249 -0.974229 5.008987 -0.000018 -0.000004 0.000036
Al 4.765823 -0.952234 -5.303288 -0.000072 -0.000037 -0.000014
Ga 4.752072 -0.968763 -0.145312 0.000024 -0.000049 0.000050
Ga -3.208444 1.787876 5.042911 0.000039 -0.000074 0.000052
Al -3.204591 1.788441 -5.314130 -0.000404 0.000357 0.000363
Al -3.198927 1.805288 -0.172389 0.000054 -0.000078 0.000051
Al -0.019443 -3.698708 5.023635 0.000014 0.000049 0.000069
Al -0.032744 -3.708461 -5.294331 0.000042 0.000074 -0.000053
Ga -0.028404 -3.730901 -0.170016 0.000071 -0.000043 0.000070
Al -1.607375 -0.977826 5.037527 -0.000054 0.000010 0.000039
Al -1.623456 -0.953119 -5.318216 0.000213 -0.001110 0.000008
Ga -1.627654 -0.951279 -0.161403 0.000035 -0.000028 0.000080
N 1.568317 0.827199 4.365356 -0.000006 0.000122 -0.000077
N 1.567106 0.882648 -5.977186 0.000023 -0.000023 -0.000077
N 1.562955 0.877757 -0.824745 0.000055 0.000034 -0.000018
N -0.018062 3.680230 4.359017 -0.000163 -0.000090 -0.000048
N 0.012979 3.666046 -5.953323 -0.000064 -0.000026 -0.000282
N 0.016477 3.661278 -0.751891 0.000025 0.000031 -0.000021
N 3.160284 -1.880047 4.404485 0.000012 0.000048 -0.000023
N 3.203381 -1.849644 -5.922225 0.000035 -0.000028 -0.000022
N 3.160366 -1.875908 -0.834155 0.000020 0.000030 -0.000022
N -4.792719 0.829855 4.395761 0.000047 0.000072 -0.000021
N -4.759294 0.856310 -5.924448 0.000134 -0.000132 -0.000095
N -4.757741 0.901046 -0.758261 0.000027 0.000034 -0.000033
N -6.392263 3.680715 4.439646 0.000082 -0.000028 -0.000044
N -6.392341 3.690520 -5.892716 0.000032 -0.000004 -0.000075
N -6.439498 3.665259 -0.825126 0.000008 0.000045 -0.000018
N -3.199877 -1.882960 4.453397 0.000045 0.000053 -0.000031
N -3.208039 -1.872571 -5.876395 -0.000006 -0.000011 -0.000024
N -3.209119 -1.927844 -0.774131 0.000016 0.000040 -0.000036
N -1.615147 0.826770 4.418853 0.000044 0.000043 -0.000035
N -1.655318 0.854111 -5.943488 -0.000295 0.001078 -0.000085
N -1.655781 0.905256 -0.823071 0.000053 -0.000005 -0.000062
N -3.206986 3.674893 4.437391 -0.000080 -0.000011 -0.000039
N -3.252415 3.619936 -5.883739 0.000070 -0.000191 -0.000008
N -3.207188 3.590438 -0.824147 0.000000 0.000042 -0.000039
N -0.022094 -1.879057 4.445061 0.000097 0.000140 -0.000045
N -0.065125 -1.899155 -5.939673 0.000017 -0.000058 0.000032
N -0.021026 -1.874569 -0.779343 0.000038 -0.000009 -0.000039
N 0.020793 1.819485 1.848369 -0.000089 0.000084 -0.000027
N -0.022969 1.795425 7.009489 -0.000316 -0.000043 0.000103
N -0.023885 1.753810 -3.327533 -0.000076 -0.000005 -0.000062
N 3.202488 -3.686211 1.847861 -0.000066 0.000030 -0.000010
N 3.208703 -3.747261 6.916538 -0.000130 0.000021 0.000008
N 3.122682 -3.690314 -3.313665 -0.000019 0.000046 0.000001
N 1.618702 -0.938772 1.851085 -0.000115 0.000075 -0.000011
N 1.527872 -0.940609 6.934576 -0.000170 -0.000029 0.000076
N 1.610095 -0.928326 -3.333972 -0.000051 0.000032 0.000018
N 3.113737 1.777741 1.822780 -0.000044 0.000000 -0.000030
N 3.166570 1.741896 7.006019 -0.000011 0.000032 -0.000088
N 3.117737 1.822865 -3.319546 -0.000019 -0.000019 -0.000024
N 6.309747 -3.738197 1.774025 -0.000049 0.000006 -0.000034
N 6.301809 -3.743523 6.925541 -0.000039 -0.000053 -0.000033
N 6.381143 -3.739360 -3.403154 0.000004 -0.000016 -0.000015
N 4.709301 -0.993231 1.833958 -0.000085 0.000041 -0.000041
N 4.758379 -0.913638 6.918492 -0.000004 0.000028 -0.000064
N 4.710877 -0.976021 -3.391045 -0.000016 -0.000022 0.000007
N -3.199976 1.802676 1.748193 -0.000066 0.000049 -0.000071
N -3.205344 1.742552 7.014512 0.000070 -0.000005 0.000125
N -3.163706 1.822309 -3.390534 0.000143 -0.000146 -0.000081
N -0.022202 -3.720438 1.808591 -0.000030 0.000033 -0.000060
N -0.018265 -3.669799 6.932082 0.000015 -0.000023 -0.000042
N -0.023249 -3.759586 -3.370127 -0.000010 0.000018 -0.000006
N -1.616155 -0.961073 1.812582 -0.000074 0.000062 -0.000088
N -1.570799 -0.941118 6.955079 -0.000174 0.000133 -0.000006
N -1.613042 -0.904713 -3.399913 -0.000042 0.000109 0.000216
