108
Energy=-1.764153e+06 Lattice="9.554947e+00 0.000000e+00 0.000000e+00 -4.778374e+00 8.276661e+00 0.000000e+00 -5.706834e-04 -5.242423e-03 1.545262e+01" Stress="-1.060214e-04 -5.589893e-05 1.623634e-05 -6.215228e-05 2.681880e-04 -1.481007e-04 1.976149e-05 -1.604140e-04 -4.051357e-04" Properties=species:S:1:pos:R:3:forces:R:3 Config_type=AlGaN_super3_29_1_20.xyz
Al 1.578222e+00 8.684025e-01 2.399997e+00 8.987444e-05 -2.849002e-05 2.880043e-04
Al 1.549545e+00 8.886546e-01 7.583866e+00 -7.390051e-05 1.325137e-05 -6.127493e-05
Al 1.569206e+00 8.916837e-01 -2.700397e+00 4.240086e-05 1.240347e-05 -1.540184e-04
Al -2.053555e-02 3.653398e+00 2.427344e+00 6.040208e-04 -7.310705e-04 2.771011e-04
Al -1.680882e-02 3.632762e+00 7.561976e+00 -8.082493e-04 -1.403861e-03 5.867490e-04
Al -1.327480e-02 3.635618e+00 -2.712805e+00 1.777975e-05 5.434140e-05 -4.570347e-05
Al 3.151181e+00 -1.883053e+00 2.406732e+00 4.250452e-05 2.778244e-04 8.640477e-05
Ga 3.171788e+00 -1.888167e+00 7.567527e+00 -5.438051e-05 -3.228036e-06 -1.435049e-04
Ga 3.171936e+00 -1.871921e+00 -2.690195e+00 -3.725897e-05 -1.156745e-05 5.049614e-05
Al -4.816852e+00 8.788216e-01 2.431854e+00 -5.935559e-05 -8.250265e-05 1.539896e-04
Ga -4.794676e+00 8.717531e-01 7.567326e+00 2.873570e-05 -1.967490e-05 7.897309e-05
Al -4.809896e+00 8.738405e-01 -2.707134e+00 2.954557e-05 4.142386e-05 9.839727e-05
Ga -6.410912e+00 3.630828e+00 2.400166e+00 -9.265060e-06 -7.943455e-05 -9.123576e-05
Ga -6.416650e+00 3.639010e+00 7.579609e+00 1.485693e-04 -9.837017e-05 1.379432e-04
Ga -6.401314e+00 3.635731e+00 -2.695330e+00 -6.067126e-05 1.281443e-05 3.443522e-04
Ga -3.209678e+00 -1.893283e+00 2.439909e+00 -4.417695e-05 4.267849e-05 1.350019e-04
Al -3.199550e+00 -1.884220e+00 7.555437e+00 2.809457e-05 2.444207e-04 2.055303e-05
Al -3.211066e+00 -1.877374e+00 -2.712994e+00 1.875473e-05 -2.448043e-05 8.723362e-05
Ga -1.609179e+00 8.763628e-01 2.448390e+00 8.711526e-06 7.158297e-06 1.971730e-04
Al -1.605408e+00 8.713952e-01 7.571281e+00 7.970065e-05 1.256091e-04 -2.828004e-04
Ga -1.604135e+00 8.794520e-01 -2.740179e+00 1.096497e-05 -1.605522e-05 1.334143e-04
Ga -3.193245e+00 3.646860e+00 2.426527e+00 -2.315294e-04 -1.355178e-04 2.013740e-04
Ga -3.190031e+00 3.628934e+00 7.560064e+00 1.830515e-04 2.295567e-05 3.341054e-06
Ga -3.208155e+00 3.642538e+00 -2.694170e+00 -1.814287e-05 -2.718179e-05 6.759492e-05
Al -8.691650e-03 -1.868866e+00 2.420397e+00 -2.589321e-05 -2.273331e-05 1.563647e-04
Ga -4.049113e-02 -1.863383e+00 7.588449e+00 4.405313e-05 -1.525709e-05 7.014267e-05
Ga -2.975180e-02 -1.873979e+00 -2.718822e+00 -6.873650e-05 -9.741020e-05 6.275494e-05
Ga -2.818649e-02 1.810629e+00 5.001329e+00 1.764961e-04 -3.074051e-04 2.163954e-04
Al -2.045303e-02 1.800015e+00 -5.314223e+00 3.505943e-05 6.534279e-05 1.554527e-05
Ga -1.475895e-03 1.818049e+00 -1.350389e-01 -2.288921e-04 -7.823736e-06 1.161224e-04
Al 3.182079e+00 -3.728506e+00 4.982026e+00 -1.484713e-03 1.033767e-03 1.264267e-03
Ga 3.169063e+00 -3.731786e+00 -5.291439e+00 2.294976e-05 -1.031398e-04 4.334929e-05
Al 3.172725e+00 -3.714625e+00 -1.343085e-01 -1.107832e-04 -4.261700e-05 -9.343032e-05
Ga 1.563811e+00 -9.641657e-01 4.980918e+00 9.119244e-05 -6.916051e-05 5.875517e-05
Ga 1.551955e+00 -9.439928e-01 -5.291628e+00 -4.557845e-05 1.508679e-05 1.224036e-04
Al 1.570814e+00 -9.615876e-01 -1.296310e-01 -9.817077e-05 -2.422591e-04 1.585753e-04
Ga 3.156914e+00 1.799055e+00 4.989043e+00 2.367654e-07 -1.085950e-04 6.115846e-05
Ga 3.147480e+00 1.802320e+00 -5.278794e+00 1.792262e-05 -3.885027e-05 1.278607e-04
Al 3.156394e+00 1.790750e+00 -1.468694e-01 1.010561e-03 1.394503e-03 3.865027e-05
Al 6.331162e+00 -3.714698e+00 5.011421e+00 2.535220e-04 1.131506e-04 -1.067428e-04
Ga 6.344230e+00 -3.707690e+00 -5.295152e+00 -1.817863e-06 -8.772904e-05 1.471746e-04
Al 6.338019e+00 -3.723661e+00 -1.606091e-01 7.097431e-04 1.480343e-05 -4.344091e-04
Ga 4.762660e+00 -9.696237e-01 4.979096e+00 -8.624259e-05 -1.900591e-05 -1.742762e-05
Ga 4.777717e+00 -9.608328e-01 -5.283245e+00 -2.629267e-05 -4.394539e-05 1.148768e-04
Ga 4.748144e+00 -9.595707e-01 -1.322299e-01 -1.730478e-05 -5.623367e-05 4.385578e-04
Al -3.199234e+00 1.791995e+00 5.002357e+00 -9.968853e-05 -8.492332e-05 1.313822e-04
Ga -3.195890e+00 1.800759e+00 -5.295234e+00 8.181120e-06 1.128231e-05 1.344546e-04
Ga -3.225278e+00 1.808435e+00 -1.424719e-01 -1.976172e-05 -8.182067e-05 -1.294720e-04
Ga -2.499478e-02 -3.712204e+00 4.978342e+00 1.016909e-04 -8.322317e-06 1.341765e-04
Al -2.686169e-02 -3.709639e+00 -5.295002e+00 1.529045e-05 -5.729319e-05 1.487745e-04
Al -2.144000e-02 -3.710802e+00 -1.232352e-01 -1.815067e-04 -2.010381e-04 6.308503e-05
Al -1.619467e+00 -9.633698e-01 5.009360e+00 4.959167e-06 -2.652003e-05 1.295471e-04
Al -1.618900e+00 -9.576240e-01 -5.310645e+00 4.389015e-05 -1.499437e-05 9.591780e-05
Ga -1.606500e+00 -9.796615e-01 -1.414780e-01 -1.409529e-05 -7.485715e-05 -9.747570e-05
N 1.565781e+00 8.786037e-01 4.307995e+00 -2.752635e-05 9.732847e-05 -1.515504e-04
N 1.528606e+00 9.082896e-01 -5.956485e+00 3.114558e-05 1.621819e-05 2.404146e-06
N 1.606950e+00 8.544214e-01 -7.730029e-01 -5.347860e-04 -3.691546e-04 -1.559190e-04
N -1.850263e-02 3.688037e+00 4.353932e+00 8.641451e-04 -4.686165e-04 -9.197014e-04
N -2.012701e-02 3.595300e+00 -5.968105e+00 -9.925247e-06 5.255127e-05 -1.460566e-04
N -2.580416e-02 3.683572e+00 -7.934411e-01 -2.280646e-04 -1.449402e-04 3.527740e-06
N 3.156576e+00 -1.932836e+00 4.329610e+00 -8.847703e-05 -8.429598e-05 1.520907e-04
N 3.163752e+00 -1.877282e+00 -5.911396e+00 3.222576e-05 7.083384e-05 2.424018e-05
N 3.120116e+00 -1.902405e+00 -7.110030e-01 1.861249e-05 7.993193e-05 -3.165938e-05
N -4.761877e+00 9.067000e-01 4.347956e+00 6.383322e-05 8.999355e-05 -1.040923e-04
N -4.802313e+00 8.836322e-01 -5.919261e+00 1.348085e-06 2.030783e-05 -1.059562e-04
N -4.844188e+00 9.002176e-01 -7.976848e-01 1.881418e-05 2.251829e-05 -9.115851e-05
N -6.445899e+00 3.662869e+00 4.381169e+00 -9.100585e-05 3.939556e-05 -5.114606e-05
N -6.358505e+00 3.663279e+00 -5.895144e+00 -4.752784e-05 5.093975e-05 -9.466614e-05
N -6.388954e+00 3.639096e+00 -6.983252e-01 -2.452351e-04 -3.809622e-04 1.293841e-04
N -3.160626e+00 -1.911934e+00 4.415234e+00 9.628898e-06 -1.056510e-05 -1.331477e-04
N -3.164380e+00 -1.855767e+00 -5.974562e+00 -4.870733e-05 4.405835e-05 -9.279353e-05
N -3.207376e+00 -1.922632e+00 -7.967706e-01 -1.388078e-05 1.297473e-04 -9.266080e-05
N -1.652415e+00 8.513227e-01 4.424705e+00 1.010484e-05 6.057532e-05 -2.450645e-04
N -1.571252e+00 8.571722e-01 -5.939860e+00 3.042114e-05 -2.319247e-05 1.996352e-04
N -1.607231e+00 8.814295e-01 -7.665953e-01 3.474313e-05 5.752195e-05 -2.172677e-04
N -3.161709e+00 3.611902e+00 4.411186e+00 1.791527e-04 -4.434380e-05 -5.100750e-05
N -3.247045e+00 3.664941e+00 -5.912883e+00 4.230736e-05 -6.545121e-06 1.679310e-05
N -3.207813e+00 3.693242e+00 -7.122596e-01 7.444777e-05 8.966207e-06 -6.008934e-05
N -6.653190e-02 -1.851484e+00 4.336457e+00 6.949943e-06 6.886220e-05 -1.627007e-04
N -6.659583e-02 -1.898544e+00 -5.881922e+00 1.424417e-06 5.076115e-05 -6.155334e-05
N 2.242932e-02 -1.904781e+00 -7.378854e-01 3.203587e-05 1.207121e-04 -7.375826e-05
N 1.840954e-02 1.830012e+00 1.847195e+00 -5.769811e-05 2.913371e-04 1.469845e-04
N -2.346214e-02 1.799354e+00 6.993329e+00 -1.167315e-05 1.496557e-04 7.013323e-05
N 2.736380e-02 1.829148e+00 -3.371014e+00 -3.828651e-05 -3.013232e-05 -2.075298e-05
N 3.212276e+00 -3.700340e+00 1.785410e+00 -3.008487e-04 2.981746e-04 -6.627032e-05
N 3.211957e+00 -3.744748e+00 6.905951e+00 -1.575971e-04 2.115399e-04 -9.915252e-04
N 3.206966e+00 -3.741953e+00 -3.316460e+00 -5.153924e-05 2.601426e-05 -6.572291e-05
N 1.568152e+00 -9.599070e-01 1.801368e+00 -1.496714e-04 -1.143955e-05 -2.483689e-04
N 1.567402e+00 -9.126247e-01 6.964752e+00 -3.944778e-05 7.189152e-05 -6.793716e-05
N 1.571317e+00 -9.042328e-01 -3.316198e+00 -5.606681e-06 2.241851e-05 -5.622489e-05
N 3.163796e+00 1.745902e+00 1.776567e+00 -1.354978e-04 -9.821347e-05 -3.706782e-05
N 3.114811e+00 1.770650e+00 6.965039e+00 6.613284e-05 5.379282e-05 -7.516705e-05
N 3.156743e+00 1.754007e+00 -3.295645e+00 1.003326e-05 -3.712901e-05 -9.858064e-05
N 6.297790e+00 -3.738647e+00 1.749658e+00 -3.394394e-05 -3.497561e-05 3.587949e-04
N 6.299879e+00 -3.699775e+00 6.936602e+00 6.918612e-04 4.912917e-04 -3.001981e-04
N 6.305260e+00 -3.690993e+00 -3.307312e+00 5.629887e-05 6.932784e-06 -8.366933e-05
N 4.717747e+00 -9.358938e-01 1.854153e+00 6.363187e-05 -5.033601e-05 -5.397318e-04
N 4.795172e+00 -9.864968e-01 6.952187e+00 -2.720459e-05 -1.610308e-05 -6.869509e-05
N 4.798379e+00 -9.365745e-01 -3.296777e+00 -3.708466e-05 -1.029632e-05 -8.099168e-05
N -3.250316e+00 1.771640e+00 1.827128e+00 6.741741e-05 1.350231e-05 8.215679e-05
N -3.163687e+00 1.769010e+00 6.921700e+00 -6.315558e-05 -8.850243e-06 -1.586168e-04
N -3.249995e+00 1.779933e+00 -3.317045e+00 -8.045204e-06 9.476041e-06 -1.158827e-04
N -2.113594e-02 -3.670696e+00 1.791298e+00 5.045590e-05 6.392531e-05 -9.278278e-05
N -2.488565e-02 -3.715900e+00 6.946609e+00 -1.213803e-04 -4.346297e-05 -1.784631e-04
N -2.439218e-02 -3.720516e+00 -3.383785e+00 6.897863e-05 4.661914e-05 -1.296059e-04
N -1.577836e+00 -9.843027e-01 1.823287e+00 -1.014171e-05 -6.814879e-05 1.121865e-04
N -1.653898e+00 -9.375244e-01 6.933351e+00 6.412600e-05 7.844990e-05 -1.169974e-05
N -1.661946e+00 -9.840055e-01 -3.386688e+00 3.163266e-05 -3.990252e-06 -1.093200e-04
