108
Energy=-1.672602e+06 Lattice="9.520342e+00 0.000000e+00 0.000000e+00 -4.765230e+00 8.240673e+00 0.000000e+00 8.966543e-03 -7.970353e-03 1.536319e+01" Stress="-1.124657e-02 6.169185e-04 2.011749e-04 6.052484e-04 -1.165735e-02 -2.653308e-04 1.996926e-04 -2.828872e-04 -1.216954e-02" Properties=species:S:1:pos:R:3:forces:R:3 Config_type=AlGaN_super3_27_1_8.xyz
Al 1.565015e+00 8.838411e-01 2.426913e+00 2.437454e-04 -4.505148e-03 -9.403973e-03
Al 1.568997e+00 8.698849e-01 7.522696e+00 9.936053e-05 -8.209329e-04 2.457826e-03
Al 1.547282e+00 8.763690e-01 -2.704452e+00 1.139191e-03 2.991763e-04 3.486592e-03
Al -4.103388e-02 3.609481e+00 2.436274e+00 6.323211e-03 4.280723e-03 -8.880966e-03
Al -2.511179e-02 3.613620e+00 7.533515e+00 -7.531468e-04 1.679568e-04 2.206706e-03
Ga -3.758056e-02 3.609098e+00 -2.720665e+00 3.898839e-05 8.866638e-04 2.943697e-03
Al 3.150427e+00 -1.877507e+00 2.451970e+00 -1.075680e-03 7.749965e-04 -1.846953e-03
Ga 3.159972e+00 -1.891927e+00 7.521581e+00 -1.021337e-03 -6.242583e-04 1.730835e-03
Ga 3.143413e+00 -1.876522e+00 -2.727868e+00 6.530521e-04 -7.328255e-04 2.027868e-03
Al -4.799312e+00 8.746027e-01 2.412235e+00 -7.479434e-04 7.344523e-04 -7.625656e-04
Ga -4.783305e+00 8.882384e-01 7.551392e+00 1.581459e-03 5.838074e-04 1.437653e-03
Ga -4.797821e+00 8.888692e-01 -2.730914e+00 1.263582e-03 8.188031e-05 2.203128e-03
Al -6.371840e+00 3.620717e+00 2.389786e+00 9.934804e-03 -2.354083e-03 1.018339e-03
Ga -6.375429e+00 3.606635e+00 7.547075e+00 8.423894e-04 9.237130e-04 8.494050e-04
Ga -6.370981e+00 3.620615e+00 -2.712886e+00 7.405154e-06 -7.564056e-06 2.929092e-03
Al -3.175835e+00 -1.882957e+00 2.434336e+00 -2.191484e-03 -7.311097e-04 -9.840842e-04
Ga -3.183952e+00 -1.882946e+00 7.538746e+00 1.426187e-03 5.656089e-05 1.931949e-03
Ga -3.187485e+00 -1.863578e+00 -2.720324e+00 -4.019221e-04 -6.193435e-04 1.493090e-03
Ga -1.614572e+00 8.759058e-01 2.423910e+00 9.416185e-04 -2.084943e-04 9.885644e-04
Ga -1.619033e+00 8.939310e-01 7.517343e+00 1.191734e-03 -1.204713e-03 1.101727e-03
Al -1.613946e+00 8.928616e-01 -2.714033e+00 1.321199e-04 -1.314742e-04 1.152452e-03
Al -3.196879e+00 3.618633e+00 2.429530e+00 -3.159389e-03 5.751372e-03 -3.153748e-03
Al -3.178733e+00 3.616448e+00 7.524200e+00 4.171473e-04 8.847741e-06 1.889907e-03
Al -3.202128e+00 3.633925e+00 -2.728215e+00 4.588140e-04 -1.071943e-03 2.629714e-03
Al -2.869638e-02 -1.878014e+00 2.427467e+00 7.917093e-03 -1.350684e-03 1.381835e-03
Ga -4.486414e-03 -1.862358e+00 7.508198e+00 3.632714e-04 -6.582036e-04 1.789064e-03
Al -1.639605e-02 -1.858418e+00 -2.703648e+00 2.205203e-04 -1.058287e-03 1.076381e-03
Ga -1.935443e-02 1.779463e+00 4.974469e+00 -1.026894e-03 -6.149276e-05 2.284721e-03
Ga -2.197256e-02 1.799936e+00 -5.285996e+00 2.099231e-05 8.236023e-04 2.968182e-03
Al -1.849806e-02 1.791215e+00 -1.510743e-01 1.957771e-05 -1.213226e-04 1.024146e-03
Al 3.148842e+00 -3.717383e+00 4.965962e+00 1.803871e-03 -3.652076e-04 1.564949e-04
Al 3.157822e+00 -3.714006e+00 -5.292455e+00 -4.923655e-04 6.091082e-04 2.600205e-03
Ga 3.137863e+00 -3.713485e+00 -1.138660e-01 8.673949e-04 1.268169e-03 -3.697260e-03
Al 1.574699e+00 -9.657116e-01 4.953028e+00 -1.834700e-03 2.694410e-04 -7.534907e-04
Ga 1.586206e+00 -9.476283e-01 -5.265241e+00 -8.882086e-04 1.216417e-03 3.313842e-03
Ga 1.562326e+00 -9.476566e-01 -1.279280e-01 -1.144594e-03 9.281057e-04 2.340201e-03
Ga 3.154974e+00 1.776267e+00 4.950896e+00 -2.281827e-04 8.849886e-04 2.160028e-03
Al 3.138143e+00 1.788117e+00 -5.277202e+00 -4.011187e-05 3.860971e-05 2.632607e-03
Al 3.130240e+00 1.796504e+00 -1.311716e-01 -9.788438e-04 5.359402e-05 9.293922e-04
Ga 6.328099e+00 -3.708013e+00 4.954251e+00 8.695828e-04 3.577375e-04 5.370175e-04
Al 6.309497e+00 -3.702241e+00 -5.282434e+00 3.733057e-05 -3.756208e-04 1.593592e-03
Ga 6.329983e+00 -3.711951e+00 -9.769738e-02 -1.178318e-04 -8.705526e-04 -3.370561e-03
Ga 4.755113e+00 -9.559796e-01 4.951778e+00 -8.937624e-04 -2.498733e-04 -7.756289e-05
Al 4.742788e+00 -9.523001e-01 -5.279472e+00 -1.012176e-03 4.019342e-04 7.257426e-04
Ga 4.735363e+00 -9.457269e-01 -1.031777e-01 -8.667940e-04 -7.539533e-04 -9.713453e-04
Al -3.207983e+00 1.802501e+00 4.961219e+00 3.935507e-03 -1.200183e-03 1.479099e-03
Al -3.211050e+00 1.810818e+00 -5.267984e+00 -5.053919e-04 3.620133e-04 2.857862e-03
Ga -3.213472e+00 1.817255e+00 -1.452627e-01 1.532805e-04 -9.326742e-04 -4.747911e-03
Ga 7.619387e-04 -3.703090e+00 4.956532e+00 -1.294970e-03 9.916654e-04 5.692412e-04
Ga -1.375306e-02 -3.709289e+00 -5.275303e+00 -2.279358e-04 -2.991199e-04 1.922105e-03
Al -1.994913e-02 -3.697425e+00 -1.510757e-01 -1.752364e-04 4.758124e-04 3.954696e-03
Al -1.594727e+00 -9.556450e-01 4.959649e+00 -5.220403e-04 -3.459791e-04 3.044407e-04
Ga -1.619010e+00 -9.434720e-01 -5.254724e+00 -9.001486e-04 -6.485995e-05 2.581512e-03
Ga -1.592639e+00 -9.469252e-01 -1.389462e-01 -4.930585e-04 -4.492090e-05 -3.405537e-03
N 1.564431e+00 8.245160e-01 4.310210e+00 1.083411e-04 8.846469e-04 4.238368e-03
N 1.595853e+00 8.943996e-01 -5.929761e+00 1.415381e-03 3.098199e-04 -2.881521e-03
N 1.556842e+00 9.234269e-01 -7.741246e-01 1.108150e-03 3.721377e-04 -2.819392e-04
N -5.613310e-02 3.628990e+00 4.321021e+00 -3.875703e-03 1.311414e-03 3.506334e-03
N -2.876873e-02 3.667981e+00 -5.908553e+00 -3.222883e-05 4.602579e-04 -2.416265e-03
N -2.853396e-02 3.586809e+00 -7.422832e-01 1.543822e-05 -3.624104e-04 5.479253e-04
N 3.121864e+00 -1.904382e+00 4.362845e+00 2.684479e-04 -1.271873e-03 5.508454e-04
N 3.191750e+00 -1.896262e+00 -5.859285e+00 9.035193e-04 -6.112581e-04 -1.380279e-03
N 3.156856e+00 -1.872964e+00 -7.600191e-01 2.275932e-05 -2.420547e-04 9.320095e-04
N -4.741123e+00 9.002301e-01 4.318097e+00 -2.366206e-04 -2.658789e-04 -1.291622e-03
N -4.789922e+00 8.850417e-01 -5.828881e+00 1.089474e-03 4.289866e-04 -8.980352e-06
N -4.838907e+00 8.997597e-01 -7.489772e-01 5.461767e-04 7.767998e-04 -4.445115e-05
N -6.361191e+00 3.615416e+00 4.300688e+00 4.974819e-04 -9.087498e-05 -1.354256e-03
N -6.415177e+00 3.602601e+00 -5.845230e+00 -1.161754e-04 -1.287477e-04 -2.738624e-04
N -6.340514e+00 3.602853e+00 -7.204048e-01 1.767324e-03 -3.884611e-04 7.934235e-06
N -3.140413e+00 -1.855422e+00 4.333156e+00 1.195285e-04 4.504010e-04 -1.037678e-03
N -3.227360e+00 -1.888921e+00 -5.851509e+00 -3.418851e-04 -2.365318e-04 -9.620493e-04
N -3.199184e+00 -1.870034e+00 -7.556500e-01 1.110778e-04 -2.152113e-04 1.881152e-03
N -1.650914e+00 8.543777e-01 4.401381e+00 -8.556428e-04 1.307140e-03 -7.494049e-04
N -1.666554e+00 9.080228e-01 -5.874091e+00 1.713202e-04 2.656852e-05 -2.012239e-03
N -1.586291e+00 9.134039e-01 -7.923569e-01 1.455900e-03 -1.644505e-04 9.752307e-04
N -3.155359e+00 3.599004e+00 4.340245e+00 1.174148e-03 -1.016700e-03 -2.273362e-03
N -3.161813e+00 3.606752e+00 -5.916623e+00 7.916710e-04 -1.428432e-03 -2.453192e-03
N -3.241012e+00 3.659312e+00 -8.101347e-01 -3.282833e-04 -6.605072e-04 3.933582e-04
N -1.603879e-02 -1.827340e+00 4.348969e+00 1.984338e-04 -6.117433e-04 -7.364065e-04
N -2.129348e-02 -1.855724e+00 -5.891277e+00 1.431361e-04 -1.219816e-03 -1.963554e-03
N -2.066934e-02 -1.906795e+00 -7.947550e-01 7.272359e-04 -1.767356e-03 1.281694e-03
N 1.071894e-02 1.808325e+00 1.779876e+00 -4.465570e-04 5.414876e-04 1.004238e-03
N 2.538616e-02 1.807337e+00 6.955967e+00 1.030831e-04 1.024648e-03 -1.833300e-03
N -2.472592e-02 1.743458e+00 -3.305286e+00 -4.914980e-04 -5.148059e-04 -1.568670e-03
N 3.153736e+00 -3.688730e+00 1.852564e+00 -5.309550e-04 -7.252173e-03 5.191715e-03
N 3.162862e+00 -3.762621e+00 6.893694e+00 8.880163e-05 4.027946e-04 -3.082326e-03
N 3.113277e+00 -3.731942e+00 -3.375677e+00 -7.421943e-04 6.511481e-04 -2.036603e-03
N 1.566749e+00 -9.673063e-01 1.875504e+00 -2.261992e-04 4.601679e-03 -4.432410e-03
N 1.585710e+00 -9.166123e-01 6.873850e+00 -4.432402e-04 1.488650e-03 -3.898737e-03
N 1.530038e+00 -9.273080e-01 -3.288448e+00 -1.966315e-03 1.066854e-03 -5.923445e-04
N 3.138168e+00 1.787204e+00 1.799314e+00 1.846627e-03 -1.147871e-03 -1.828585e-04
N 3.115751e+00 1.763659e+00 6.926142e+00 -4.041589e-04 -6.173630e-04 -3.512219e-03
N 3.093181e+00 1.770423e+00 -3.363780e+00 -1.300960e-03 -5.279976e-04 -1.560632e-03
N 6.353216e+00 -3.714841e+00 1.874671e+00 -1.397430e-02 3.276632e-03 2.552194e-04
N 6.293382e+00 -3.733202e+00 6.928301e+00 -1.016370e-03 -3.282916e-04 -2.418963e-03
N 6.320471e+00 -3.703593e+00 -3.376146e+00 1.407181e-05 -1.300865e-04 -1.268697e-03
N 4.746310e+00 -9.700819e-01 1.882336e+00 -6.666119e-04 1.376733e-03 8.897703e-04
N 4.753887e+00 -9.530315e-01 6.917809e+00 -1.385503e-03 1.651916e-04 -2.141023e-03
N 4.740627e+00 -9.519023e-01 -3.380314e+00 -9.580250e-04 -2.836905e-05 -1.378061e-03
N -3.244000e+00 1.806814e+00 1.816490e+00 1.139550e-03 3.207577e-03 4.867111e-03
N -3.206741e+00 1.842149e+00 6.879307e+00 -1.061416e-03 -6.765258e-04 -3.858161e-03
N -3.168353e+00 1.826533e+00 -3.343064e+00 9.832303e-04 -1.951047e-04 -3.420703e-04
N -7.729395e-03 -3.682261e+00 1.799295e+00 -5.946986e-04 -7.353554e-03 -8.958308e-04
N 2.270695e-02 -3.732101e+00 6.935258e+00 4.396775e-04 -4.297113e-04 -1.550160e-03
N 1.480782e-02 -3.672565e+00 -3.300260e+00 9.580969e-05 1.085419e-03 -3.740327e-04
N -1.593799e+00 -1.004531e+00 1.830852e+00 -4.098702e-03 2.229379e-03 1.088836e-03
N -1.601926e+00 -9.563839e-01 6.866910e+00 -1.339615e-03 4.003846e-04 -2.675192e-03
N -1.565672e+00 -9.221278e-01 -3.283256e+00 1.789796e-04 5.708864e-04 5.066141e-04
