108
Energy=-1.535276e+06 Lattice="9.527601e+00 0.000000e+00 0.000000e+00 -4.766007e+00 8.250237e+00 0.000000e+00 -3.877002e-03 1.066439e-02 1.538763e+01" Stress="-1.450674e-04 3.540208e-05 -7.972575e-06 3.505191e-05 -1.577971e-04 5.991473e-04 -9.829610e-06 5.860028e-04 -1.913009e-04" Properties=species:S:1:pos:R:3:forces:R:3 Config_type=AlGaN_super3_24_1_20.xyz
Al 1.555478e+00 8.828578e-01 2.391512e+00 -6.802227e-04 -1.982007e-04 4.696628e-05
Al 1.552856e+00 8.782749e-01 7.541614e+00 -5.219867e-05 -8.302078e-05 1.821381e-04
Al 1.547131e+00 8.576249e-01 -2.688995e+00 -2.199147e-04 1.329414e-05 4.311321e-04
Al -2.127052e-02 3.610353e+00 2.408220e+00 -1.234678e-03 -4.983165e-05 4.688048e-04
Al -1.815958e-02 3.631602e+00 7.535865e+00 -3.971792e-04 -5.970995e-04 7.376943e-04
Al -3.439588e-02 3.623015e+00 -2.705158e+00 5.316454e-04 -2.212289e-04 1.941799e-04
Al 3.158100e+00 -1.862068e+00 2.385003e+00 7.972981e-04 4.199201e-04 4.827138e-04
Al 3.151282e+00 -1.867316e+00 7.555751e+00 -9.975822e-05 2.415008e-05 3.435147e-04
Al 3.138864e+00 -1.883310e+00 -2.697327e+00 2.993392e-04 1.170550e-03 2.081214e-04
Al -4.797305e+00 8.635397e-01 2.412366e+00 -3.218962e-05 1.433917e-04 -6.570065e-05
Ga -4.805633e+00 8.680423e-01 7.534088e+00 1.646507e-04 -1.255369e-04 5.519136e-05
Ga -4.794549e+00 8.659025e-01 -2.685009e+00 3.796377e-05 -2.016362e-04 -2.018274e-05
Al -6.378714e+00 3.624018e+00 2.424988e+00 2.431654e-05 3.307847e-04 -2.390588e-04
Ga -6.394316e+00 3.635597e+00 7.547047e+00 1.201117e-04 1.802968e-05 1.609093e-04
Ga -6.385245e+00 3.632256e+00 -2.712853e+00 -2.562785e-05 9.444060e-05 -1.210037e-04
Ga -3.210713e+00 -1.862016e+00 2.417025e+00 1.750673e-04 1.809079e-04 2.766981e-05
Ga -3.208046e+00 -1.880329e+00 7.530702e+00 4.814931e-05 2.752675e-04 4.685754e-04
Ga -3.192808e+00 -1.875690e+00 -2.698131e+00 4.522307e-06 6.937743e-05 2.468144e-04
Al -1.586864e+00 8.802306e-01 2.408721e+00 -6.075821e-05 6.009761e-04 5.242979e-04
Ga -1.592003e+00 8.824821e-01 7.539907e+00 3.748484e-04 -7.074921e-05 8.795056e-05
Al -1.584768e+00 8.687408e-01 -2.692533e+00 -5.737796e-05 -2.288842e-04 -7.235496e-05
Ga -3.197600e+00 3.635548e+00 2.399882e+00 2.134035e-04 2.993255e-04 7.451314e-05
Ga -3.192139e+00 3.649810e+00 7.558525e+00 2.211899e-04 1.574778e-04 1.979795e-04
Ga -3.181158e+00 3.648721e+00 -2.696540e+00 -2.204975e-04 7.638332e-06 1.169262e-04
Ga -2.028670e-02 -1.864531e+00 2.400934e+00 1.380546e-04 3.716012e-05 3.202640e-04
Ga -1.561460e-02 -1.859418e+00 7.558571e+00 3.204304e-04 9.916721e-05 5.614700e-04
Al -1.172343e-02 -1.857190e+00 -2.707088e+00 3.237406e-04 -5.186627e-05 2.860098e-04
Al -2.007444e-02 1.798182e+00 4.964360e+00 3.924353e-04 2.573190e-05 9.253262e-05
Ga -1.396652e-02 1.794123e+00 -5.259756e+00 -2.386775e-04 1.982664e-04 3.043119e-04
Al -2.833329e-02 1.787231e+00 -1.583005e-01 -2.779443e-04 -7.100838e-05 5.910952e-04
Ga 3.175294e+00 -3.695846e+00 4.973841e+00 -2.098180e-04 8.103921e-05 1.247989e-04
Al 3.165538e+00 -3.694534e+00 -5.273479e+00 -2.668181e-04 -7.546337e-05 -7.886728e-04
Al 3.165833e+00 -3.693678e+00 -1.435920e-01 -7.621030e-04 4.447285e-04 3.266024e-05
Ga 1.566960e+00 -9.519649e-01 4.969323e+00 -2.494647e-04 2.259229e-04 2.464792e-04
Al 1.564312e+00 -9.716544e-01 -5.260613e+00 -1.375020e-04 -2.397182e-04 8.056205e-05
Al 1.565392e+00 -9.660360e-01 -1.594670e-01 -4.057676e-04 -8.334949e-05 -8.388117e-04
Ga 3.136593e+00 1.802088e+00 4.948868e+00 1.540361e-04 9.342301e-05 4.060674e-04
Ga 3.134834e+00 1.791132e+00 -5.268936e+00 1.248587e-05 -1.234614e-05 5.621318e-05
Ga 3.139582e+00 1.787947e+00 -1.178024e-01 2.932840e-05 -4.969729e-06 2.445631e-04
Al 6.327695e+00 -3.702952e+00 4.954172e+00 -1.239237e-04 -6.132823e-04 2.835644e-04
Al 6.323217e+00 -3.707192e+00 -5.271807e+00 -1.060893e-04 -5.847166e-05 1.966085e-04
Ga 6.317102e+00 -3.706809e+00 -1.281338e-01 1.570142e-04 1.917468e-04 -3.281279e-04
Al 4.740669e+00 -9.655966e-01 4.966681e+00 -2.794388e-04 2.370165e-04 3.644987e-04
Ga 4.735737e+00 -9.865643e-01 -5.266586e+00 -2.522083e-04 1.931968e-04 2.377197e-04
Al 4.726143e+00 -9.670437e-01 -1.403451e-01 3.445435e-04 -5.509386e-04 1.011358e-04
Ga -3.192870e+00 1.784432e+00 4.948112e+00 7.641561e-05 1.994198e-04 2.182829e-04
Ga -3.187660e+00 1.796609e+00 -5.253262e+00 -1.120302e-04 9.856681e-05 7.084099e-05
Ga -3.178478e+00 1.786407e+00 -1.267160e-01 -1.511878e-04 -9.836892e-05 -1.578318e-04
Al -4.133833e-02 -3.694195e+00 4.970376e+00 1.552114e-04 1.198176e-04 5.172186e-04
Al -2.068162e-02 -3.686995e+00 -5.257488e+00 6.531323e-05 1.300885e-04 2.451184e-04
Al -1.980967e-02 -3.683453e+00 -1.506921e-01 1.334714e-04 2.795157e-04 3.354038e-04
Al -1.613274e+00 -9.549153e-01 4.958985e+00 -1.755062e-05 3.563637e-04 3.260557e-04
Al -1.594302e+00 -9.744226e-01 -5.249910e+00 -1.184542e-04 1.212973e-04 3.232271e-04
Al -1.593333e+00 -9.476626e-01 -1.550058e-01 -3.411276e-04 -1.135416e-03 1.415902e-04
N 1.514052e+00 8.968662e-01 4.303692e+00 -3.767560e-04 2.010305e-04 -2.547899e-04
N 1.557439e+00 8.198122e-01 -5.927306e+00 8.471649e-05 -8.909122e-05 -2.634769e-04
N 1.522701e+00 8.489636e-01 -7.664783e-01 2.156463e-04 2.263546e-04 -9.919554e-04
N 1.343077e-02 3.600920e+00 4.330100e+00 3.010815e-05 -6.154551e-04 -6.226840e-04
N -2.127704e-02 3.666361e+00 -5.919620e+00 2.345177e-04 3.054526e-04 -1.683117e-04
N -6.760344e-02 3.604117e+00 -7.822448e-01 1.443299e-04 -2.835920e-04 -3.428259e-04
N 3.191635e+00 -1.847823e+00 4.302049e+00 5.052054e-05 2.010622e-04 -1.127925e-03
N 3.109649e+00 -1.897514e+00 -5.910114e+00 -2.348109e-04 -3.042659e-04 -1.986687e-04
N 3.150303e+00 -1.877040e+00 -7.678712e-01 1.664436e-04 -1.685663e-04 -2.011445e-04
N -4.792568e+00 8.255349e-01 4.325031e+00 7.729447e-06 -3.499445e-04 -2.846945e-04
N -4.786015e+00 8.698348e-01 -5.885989e+00 1.705079e-04 -1.053621e-04 -8.013630e-05
N -4.788588e+00 8.333792e-01 -7.217102e-01 -2.641325e-05 1.499115e-04 -7.498576e-05
N -6.374889e+00 3.682289e+00 4.339213e+00 -2.576450e-05 3.610615e-05 3.767673e-05
N -6.373929e+00 3.675705e+00 -5.853212e+00 -7.436008e-06 2.256782e-04 -1.191539e-05
N -6.339232e+00 3.651197e+00 -7.461440e-01 5.393162e-05 -9.480888e-05 1.598545e-04
N -3.201275e+00 -1.867367e+00 4.404686e+00 8.507029e-05 2.231026e-04 -5.096059e-05
N -3.149732e+00 -1.899457e+00 -5.862842e+00 2.655391e-04 -1.617942e-04 -2.522200e-04
N -3.196714e+00 -1.827067e+00 -7.175052e-01 1.428139e-04 2.768937e-04 1.609506e-04
N -1.560210e+00 8.557422e-01 4.332562e+00 5.967747e-04 -3.279220e-04 -3.436110e-04
N -1.604115e+00 8.224558e-01 -5.872952e+00 3.865503e-04 -3.866309e-04 -1.738596e-04
N -1.567057e+00 8.502635e-01 -7.802269e-01 3.638502e-04 7.833993e-04 -1.120072e-04
N -3.238613e+00 3.664938e+00 4.372737e+00 -9.016871e-05 -5.837848e-05 -1.359693e-04
N -3.199046e+00 3.676556e+00 -5.842053e+00 2.061278e-04 2.029959e-04 8.813396e-05
N -3.194806e+00 3.679018e+00 -7.125699e-01 2.289192e-04 -1.172135e-05 2.942636e-04
N -6.099381e-02 -1.890201e+00 4.378931e+00 -4.481668e-06 -2.248853e-04 -3.875292e-04
N -1.999091e-02 -1.872436e+00 -5.838273e+00 1.662030e-04 -7.392092e-05 -2.187493e-04
N -2.035564e-02 -1.869415e+00 -7.721299e-01 9.675821e-05 -2.233343e-04 -2.276406e-04
N -2.331434e-02 1.797443e+00 1.771242e+00 -3.633507e-04 -1.072443e-04 -6.002178e-05
N 1.837357e-02 1.824673e+00 6.898760e+00 8.171694e-05 -2.796173e-05 -4.774607e-04
N -1.782128e-02 1.794869e+00 -3.271544e+00 1.095776e-04 2.021977e-05 4.065352e-05
N 3.204078e+00 -3.679115e+00 1.777205e+00 6.144596e-04 -3.159588e-04 -1.265888e-04
N 3.201546e+00 -3.674921e+00 6.957547e+00 -7.616127e-04 2.084624e-04 3.429621e-05
N 3.203266e+00 -3.678301e+00 -3.347738e+00 -1.659666e-04 -4.737060e-04 -1.668937e-04
N 1.604179e+00 -9.329901e-01 1.759857e+00 5.949345e-04 1.896826e-04 1.177596e-03
N 1.608833e+00 -9.297450e-01 6.952534e+00 -1.676539e-04 4.359039e-05 -2.106657e-04
N 1.570668e+00 -9.585040e-01 -3.319617e+00 -2.742441e-05 1.868223e-05 -3.183356e-04
N 3.149609e+00 1.797649e+00 1.865980e+00 1.820805e-04 -1.264863e-04 -1.349408e-04
N 3.102392e+00 1.778349e+00 6.929994e+00 -2.469229e-04 -2.155745e-04 -2.279466e-04
N 3.102162e+00 1.763218e+00 -3.297341e+00 -3.030833e-04 -2.750637e-04 3.065225e-05
N 6.324987e+00 -3.753448e+00 1.843072e+00 8.600157e-04 3.062729e-04 3.262319e-04
N 6.283838e+00 -3.730255e+00 6.874571e+00 6.228086e-04 4.191087e-04 -8.706961e-04
N 6.279960e+00 -3.731489e+00 -3.356002e+00 -2.020827e-04 -1.249122e-04 -3.845118e-05
N 4.701632e+00 -9.319737e-01 1.769142e+00 -1.124016e-03 -8.949892e-04 2.939334e-04
N 4.693671e+00 -9.823190e-01 6.886885e+00 -2.853535e-04 -3.503226e-05 -3.717437e-04
N 4.697074e+00 -9.880593e-01 -3.300679e+00 -6.005338e-04 -2.221792e-04 1.937842e-04
N -3.192842e+00 1.743001e+00 1.850938e+00 1.338539e-04 -2.002222e-05 1.455189e-04
N -3.198906e+00 1.800737e+00 6.921942e+00 -4.017207e-05 -6.164640e-05 -2.935902e-04
N -3.153813e+00 1.770700e+00 -3.278703e+00 2.166222e-04 -2.455610e-05 -3.493275e-05
N -6.875669e-02 -3.724115e+00 1.756697e+00 -8.252269e-05 -6.117814e-05 -4.205023e-04
N -2.701913e-02 -3.698764e+00 6.881491e+00 -6.991038e-05 -9.353156e-06 -5.156241e-04
N -1.985286e-02 -3.655625e+00 -3.346108e+00 7.683060e-05 1.521318e-04 -1.855377e-04
N -1.610440e+00 -9.061060e-01 1.758125e+00 9.644128e-05 -5.959715e-07 -4.123325e-04
N -1.609128e+00 -9.530199e-01 6.867805e+00 -2.367393e-04 1.238514e-04 -4.851569e-04
N -1.566197e+00 -9.344460e-01 -3.328560e+00 -2.770197e-05 -4.469669e-06 -2.387037e-04
