108
Energy=-8.028669e+05 Lattice="9.466140e+00 0.000000e+00 0.000000e+00 -4.740306e+00 8.187112e+00 0.000000e+00 5.912356e-03 1.993147e-03 1.524610e+01" Stress="6.151952e-03 4.592930e-03 -4.593844e-04 4.589944e-03 8.085569e-03 -1.352203e-04 -4.681155e-04 -1.405242e-04 1.284130e-02" Properties=species:S:1:pos:R:3:forces:R:3 Config_type=AlGaN_super3_8_1_4.xyz
Al 1.562543e+00 8.829396e-01 2.408981e+00 -8.232120e-04 -4.661655e-03 -2.420031e-04
Al 1.558917e+00 8.758938e-01 7.477079e+00 3.311050e-05 -3.130824e-04 4.946284e-05
Al 1.550957e+00 8.910043e-01 -2.719614e+00 9.612885e-04 -7.425470e-03 5.026522e-04
Al 6.005899e-03 3.591396e+00 2.406995e+00 2.645608e-02 -1.277459e-02 8.205985e-03
Al -1.133268e-02 3.594599e+00 7.480391e+00 -5.166503e-04 -2.329855e-03 5.176386e-04
Al -1.166366e-02 3.594300e+00 -2.706404e+00 -4.182838e-04 -6.110413e-05 2.519404e-03
Al 3.171125e+00 -1.857019e+00 2.431041e+00 -2.948958e-03 -3.749015e-03 -1.496035e-03
Al 3.155440e+00 -1.873936e+00 7.484502e+00 5.424129e-05 3.288284e-03 -2.388012e-03
Al 3.152313e+00 -1.861529e+00 -2.719003e+00 2.139752e-03 -3.598071e-03 -1.638944e-03
Al -4.766070e+00 8.822282e-01 2.411017e+00 -1.499125e-03 -3.309641e-03 2.311641e-03
Al -4.774162e+00 8.909360e-01 7.475963e+00 5.480525e-04 -9.211907e-03 -5.912392e-04
Al -4.776661e+00 8.708260e-01 -2.731069e+00 9.389300e-04 3.786370e-03 4.611014e-03
Al -6.332527e+00 3.606185e+00 2.406185e+00 -6.202490e-03 -3.143709e-03 -8.280805e-04
Al -6.343165e+00 3.599741e+00 7.477913e+00 -1.221058e-03 -1.428638e-03 1.790907e-03
Al -6.345848e+00 3.599086e+00 -2.708349e+00 -2.003670e-04 -1.450608e-03 5.088199e-03
Al -3.178613e+00 -1.858761e+00 2.418414e+00 -4.938456e-03 -6.317057e-03 -3.403178e-03
Al -3.170449e+00 -1.874085e+00 7.479000e+00 -1.323177e-03 3.014575e-03 9.887717e-04
Al -3.169417e+00 -1.872001e+00 -2.707292e+00 -3.146339e-04 5.213985e-04 3.897380e-03
Al -1.632814e+00 8.947448e-01 2.407760e+00 1.002894e-02 -8.188941e-03 -6.015630e-03
Al -1.635903e+00 8.782357e-01 7.478009e+00 9.363525e-03 7.073020e-03 2.502986e-03
Al -1.644580e+00 8.882332e-01 -2.712971e+00 9.588786e-03 -4.316118e-03 9.510831e-04
Al -3.210828e+00 3.601432e+00 2.443256e+00 2.397164e-02 1.283062e-03 -1.477570e-02
Al -3.208142e+00 3.599279e+00 7.483426e+00 8.677118e-03 2.123616e-03 1.721017e-03
Ga -3.208120e+00 3.598656e+00 -2.715839e+00 1.037204e-02 4.127863e-03 1.765489e-03
Ga -3.722238e-02 -1.890604e+00 2.405971e+00 8.940080e-03 1.025351e-02 -3.317341e-03
Ga -3.042300e-02 -1.850691e+00 7.485201e+00 1.080395e-02 4.890065e-03 -1.543711e-03
Al -4.446684e-02 -1.868973e+00 -2.716062e+00 8.305077e-03 3.481772e-03 1.537968e-04
Al -5.786523e-03 1.793109e+00 4.947042e+00 -6.495195e-03 -3.937272e-03 7.803678e-04
Al -1.521540e-02 1.786895e+00 -5.245475e+00 -8.522594e-03 -4.531786e-03 3.137893e-04
Al -1.212231e-02 1.782303e+00 -1.578215e-01 -8.526143e-03 -2.264542e-03 -4.885775e-05
Ga 3.155667e+00 -3.685173e+00 4.952004e+00 -5.704359e-03 -2.892190e-03 -2.059760e-03
Al 3.153808e+00 -3.690784e+00 -5.249629e+00 -6.364930e-03 -3.777274e-03 9.233183e-04
Ga 3.151971e+00 -3.683264e+00 -1.546404e-01 -3.035150e-03 -6.347429e-03 8.611905e-03
Al 1.573185e+00 -9.645978e-01 4.942367e+00 2.706672e-03 1.025885e-02 -7.255118e-04
Al 1.587140e+00 -9.718022e-01 -5.236780e+00 -9.058950e-03 7.062276e-03 -5.842637e-04
Al 1.589000e+00 -9.640722e-01 -2.181706e-01 -1.025248e-02 6.783796e-03 1.690074e-02
Al 3.123522e+00 1.790955e+00 4.947201e+00 -5.744279e-04 -2.692781e-03 7.556869e-04
Al 3.118153e+00 1.794420e+00 -5.247269e+00 -4.306938e-04 -1.954746e-03 2.358940e-03
Al 3.112451e+00 1.791199e+00 -1.398090e-01 4.295551e-03 2.353507e-04 -4.961010e-03
Al 6.299657e+00 -3.683969e+00 4.948730e+00 -6.276815e-04 -1.956781e-04 4.517916e-04
Al 6.293912e+00 -3.685921e+00 -5.241893e+00 -1.070253e-03 -8.436842e-04 3.193890e-03
Al 6.298839e+00 -3.683601e+00 -1.526099e-01 -1.177875e-03 1.111228e-03 3.474918e-03
Al 4.724383e+00 -9.650146e-01 4.957831e+00 -1.954671e-03 8.525994e-03 -7.027623e-04
Ga 4.726415e+00 -9.693880e-01 -5.235980e+00 -7.598742e-04 1.065231e-02 -1.100314e-04
Ga 4.722793e+00 -9.474925e-01 -1.661550e-01 1.037192e-03 9.129170e-03 8.564112e-03
Al -3.207041e+00 1.797453e+00 4.952804e+00 -4.408034e-04 -2.994001e-03 -5.794912e-04
Al -3.208614e+00 1.792160e+00 -5.251287e+00 2.238054e-03 -1.179161e-03 1.822539e-03
Al -3.205354e+00 1.783160e+00 -1.348196e-01 -1.111106e-04 1.764734e-03 -6.228348e-03
Al -3.022722e-02 -3.690047e+00 4.959167e+00 -2.927389e-03 6.155158e-03 -4.642459e-04
Al -4.060059e-02 -3.679352e+00 -5.242104e+00 1.529810e-03 -9.553213e-04 1.663754e-03
Al -4.147511e-02 -3.667329e+00 -1.398648e-01 2.838425e-03 -6.360274e-03 -7.061438e-03
Ga -1.596031e+00 -9.546993e-01 4.957062e+00 -1.089530e-03 9.298525e-03 -2.498500e-03
Al -1.602039e+00 -9.672472e-01 -5.237461e+00 -1.731860e-03 1.092681e-02 7.831769e-04
Al -1.597121e+00 -9.627457e-01 -1.610897e-01 -3.677489e-03 7.984086e-03 -3.363480e-03
N 1.553150e+00 8.911207e-01 4.344372e+00 7.621425e-04 -7.596750e-03 -1.742677e-03
N 1.550863e+00 8.849906e-01 -5.842909e+00 5.898693e-04 -9.982988e-03 3.713759e-04
N 1.551098e+00 8.897597e-01 -7.871054e-01 1.224883e-03 -8.943433e-03 2.742886e-03
N 2.264079e-03 3.594328e+00 4.341810e+00 1.126597e-02 -8.335210e-03 -5.423240e-03
N -1.568775e-02 3.596223e+00 -5.843898e+00 -5.346677e-04 5.338549e-04 -1.905202e-03
N -4.270918e-03 3.591592e+00 -7.700768e-01 1.203924e-02 -7.884775e-03 -9.375121e-03
N 3.153551e+00 -1.856741e+00 4.353990e+00 -2.242924e-03 1.465797e-02 -6.058721e-03
N 3.143446e+00 -1.881689e+00 -5.841017e+00 -1.483489e-02 -5.886437e-03 -7.610067e-03
N 3.148148e+00 -1.865066e+00 -8.008633e-01 -1.437657e-02 7.794054e-03 -7.496759e-03
N -4.773603e+00 8.904991e-01 4.348890e+00 2.371444e-03 -7.506643e-03 -8.659157e-05
N -4.780078e+00 9.016465e-01 -5.850693e+00 5.743437e-04 4.074059e-03 -4.186358e-03
N -4.776035e+00 9.255705e-01 -8.158129e-01 -6.735692e-04 -8.185529e-04 1.015002e-02
N -6.339005e+00 3.601913e+00 4.345320e+00 1.279651e-03 2.008971e-03 -3.214709e-03
N -6.348369e+00 3.601751e+00 -5.843779e+00 7.877241e-04 8.954289e-04 -2.244463e-03
N -6.342258e+00 3.600753e+00 -7.643559e-01 -5.006729e-04 1.556039e-03 -6.039576e-04
N -3.178902e+00 -1.874930e+00 4.348506e+00 -1.124648e-02 -5.217235e-03 -6.942803e-03
N -3.161744e+00 -1.880478e+00 -5.843838e+00 1.293819e-02 -6.476924e-03 -6.809058e-03
N -3.161583e+00 -1.873339e+00 -7.729498e-01 1.053334e-02 -6.333349e-03 -6.583687e-03
N -1.637003e+00 9.151455e-01 4.339913e+00 8.718424e-03 6.590398e-03 -5.988868e-03
N -1.642991e+00 8.881113e-01 -5.844527e+00 9.731768e-03 -5.841056e-03 2.507211e-03
N -1.642931e+00 8.914707e-01 -7.745054e-01 9.804751e-03 -5.731505e-03 4.533913e-03
N -3.232814e+00 3.602115e+00 4.321168e+00 1.326807e-03 -4.216055e-03 5.563380e-03
N -3.213722e+00 3.602167e+00 -5.842744e+00 7.182156e-03 4.280400e-03 -3.984189e-05
N -3.225329e+00 3.583917e+00 -7.709955e-01 -1.900430e-03 3.227714e-03 1.859774e-02
N 5.241009e-05 -1.856691e+00 4.358670e+00 8.277039e-03 -1.257671e-02 8.259029e-03
N -3.713219e-02 -1.865580e+00 -5.823739e+00 8.320588e-03 3.308971e-03 1.529042e-02
N -3.951106e-02 -1.865417e+00 -7.852225e-01 9.353302e-03 2.529780e-03 3.905620e-03
N -8.617259e-04 1.785657e+00 1.784405e+00 -8.628240e-03 -7.584564e-03 6.456956e-04
N -8.372884e-03 1.783117e+00 6.877356e+00 -8.418603e-03 -3.251570e-03 -2.350518e-04
N -1.537007e-02 1.788119e+00 -3.317231e+00 -8.418487e-03 -4.913282e-03 5.702470e-04
N 3.349307e+00 -3.666721e+00 1.831116e+00 -7.383016e-02 1.169778e-02 -1.658939e-03
N 3.157884e+00 -3.687526e+00 6.894948e+00 -9.613694e-03 -3.122793e-03 1.533443e-02
N 3.184312e+00 -3.679102e+00 -3.335223e+00 -9.407132e-04 5.215768e-03 6.547780e-04
N 1.599760e+00 -9.437385e-01 1.830408e+00 3.314802e-03 -1.177759e-03 -2.145987e-02
N 1.614845e+00 -9.300207e-01 6.863529e+00 -1.432708e-03 -1.067938e-03 -1.621165e-04
N 1.586510e+00 -9.686329e-01 -3.315695e+00 -9.602389e-03 4.979469e-03 3.784175e-03
N 3.133867e+00 1.789721e+00 1.792663e+00 -6.337042e-04 -4.724569e-04 -4.328769e-04
N 3.124502e+00 1.790359e+00 6.876269e+00 9.672661e-04 7.101667e-04 -1.886400e-03
N 3.121751e+00 1.789557e+00 -3.320442e+00 -5.052525e-05 -7.020936e-04 -1.929448e-03
N 6.304681e+00 -3.670921e+00 1.790726e+00 7.331296e-03 -2.963831e-03 8.009615e-04
N 6.296644e+00 -3.683528e+00 6.877169e+00 1.257160e-03 1.442104e-03 -1.982936e-03
N 6.293334e+00 -3.683497e+00 -3.312079e+00 5.986711e-04 8.564633e-04 -1.483762e-03
N 4.706766e+00 -9.506918e-01 1.847725e+00 8.598327e-03 1.085290e-02 -1.603516e-03
N 4.727238e+00 -9.692047e-01 6.883810e+00 -3.274390e-04 7.644376e-03 -1.877170e-04
N 4.735623e+00 -9.441409e-01 -3.291092e+00 -3.938595e-03 -2.632350e-03 1.197219e-02
N -3.201534e+00 1.800272e+00 1.796113e+00 3.021516e-03 -2.491676e-03 -5.058873e-04
N -3.203111e+00 1.788989e+00 6.879232e+00 1.551230e-03 1.911481e-03 -3.747887e-03
N -3.208861e+00 1.775646e+00 -3.328720e+00 2.265857e-03 -1.492088e-02 -7.720674e-03
N -9.181896e-03 -3.730861e+00 1.782710e+00 2.986152e-04 -1.345898e-03 -4.722887e-03
N -3.400513e-02 -3.686198e+00 6.879889e+00 2.125360e-03 -1.295457e-02 -7.999080e-03
N -4.867644e-02 -3.676411e+00 -3.319786e+00 -1.159584e-02 8.716132e-03 -6.318560e-03
N -1.636044e+00 -1.003139e+00 1.755011e+00 -2.699586e-03 2.701499e-02 4.750725e-03
N -1.612466e+00 -9.217820e-01 6.898052e+00 -1.272563e-02 1.243655e-03 6.879872e-03
N -1.605575e+00 -9.669635e-01 -3.313289e+00 -1.336599e-04 8.680128e-03 4.862904e-04
