108
Energy=-2.038806e+06 Lattice="9.597914e+00 0.000000e+00 0.000000e+00 -4.807220e+00 8.300180e+00 0.000000e+00 3.890575e-03 1.269188e-02 1.552430e+01" Stress="-5.346288e-04 1.058395e-04 2.292539e-04 1.128773e-04 -1.603118e-03 5.240694e-04 2.172582e-04 5.186538e-04 3.342136e-04" Properties=species:S:1:pos:R:3:forces:R:3 Config_type=AlGaN_super3_35_1_8.xyz
Al 1.566849e+00 8.984491e-01 2.443018e+00 3.983517e-04 -9.901656e-04 1.574903e-04
Al 1.576031e+00 8.804029e-01 7.612170e+00 6.422164e-04 -4.539265e-04 6.815966e-04
Ga 1.548994e+00 8.848172e-01 -2.741688e+00 7.027051e-04 -1.116362e-03 1.662725e-04
Al -3.913791e-02 3.636326e+00 2.396563e+00 3.076501e-03 1.287370e-04 4.346196e-03
Ga -2.954356e-02 3.641176e+00 7.615340e+00 3.067566e-06 -3.573060e-04 1.983064e-03
Al -2.707633e-02 3.631618e+00 -2.718793e+00 -9.519993e-05 -2.615167e-04 1.620129e-03
Ga 3.184302e+00 -1.897424e+00 2.419165e+00 -6.132328e-05 -1.946170e-04 -3.700647e-04
Al 3.174363e+00 -1.867766e+00 7.612304e+00 -2.124808e-04 3.868899e-04 5.379617e-04
Ga 3.181265e+00 -1.896367e+00 -2.710745e+00 -2.573460e-04 -6.825490e-05 7.706394e-04
Ga -4.837194e+00 8.908495e-01 2.452511e+00 6.453527e-04 -1.005161e-03 -2.981961e-04
Al -4.835438e+00 8.874901e-01 7.596042e+00 4.723245e-04 2.021128e-04 1.765200e-04
Ga -4.828041e+00 8.761348e-01 -2.718750e+00 6.088978e-04 -4.869319e-04 2.067631e-04
Ga -6.431585e+00 3.643928e+00 2.428361e+00 -4.021380e-04 8.604329e-04 -5.424150e-04
Ga -6.413962e+00 3.646592e+00 7.611493e+00 -8.885462e-05 -3.965507e-04 1.088644e-03
Ga -6.422018e+00 3.663443e+00 -2.720760e+00 3.491854e-04 2.094216e-04 7.182395e-04
Ga -3.220426e+00 -1.890495e+00 2.436982e+00 -1.132188e-04 -3.950190e-04 -1.913594e-04
Ga -3.209203e+00 -1.860108e+00 7.607558e+00 3.171750e-04 1.206774e-04 8.142229e-04
Ga -3.221199e+00 -1.893946e+00 -2.717612e+00 4.859143e-04 7.364466e-05 -5.966394e-05
Ga -1.614189e+00 9.001629e-01 2.442515e+00 1.105090e-03 -1.014318e-03 -5.410907e-04
Al -1.613641e+00 8.820126e-01 7.607849e+00 8.166514e-04 -2.449565e-04 4.609116e-04
Ga -1.610796e+00 8.948907e-01 -2.731319e+00 1.425747e-03 -7.779818e-04 3.342963e-04
Al -3.216494e+00 3.660063e+00 2.423521e+00 3.972913e-04 4.580087e-04 -1.061021e-03
Ga -3.229562e+00 3.665951e+00 7.626665e+00 9.198629e-04 -6.364604e-04 9.830091e-04
Ga -3.235128e+00 3.666543e+00 -2.729147e+00 6.147863e-04 -1.242348e-04 6.165563e-04
Ga -1.450367e-02 -1.880717e+00 2.448443e+00 8.081770e-04 -1.842887e-04 9.601155e-05
Al -1.485523e-02 -1.862818e+00 7.603455e+00 7.657892e-04 5.054628e-04 1.060745e-03
Al -1.842698e-02 -1.897330e+00 -2.736271e+00 7.236933e-04 -7.952364e-05 1.561329e-03
Ga -1.126898e-02 1.801524e+00 5.017748e+00 -1.101986e-03 3.688619e-04 1.690674e-03
Al -2.664633e-02 1.798240e+00 -5.341688e+00 -5.771139e-04 -3.717281e-04 1.476168e-03
Al -1.984462e-02 1.823575e+00 -1.376359e-01 -9.509760e-04 1.640765e-04 2.644819e-03
Ga 3.186266e+00 -3.730820e+00 5.012274e+00 -4.747470e-04 -1.785696e-04 1.716502e-03
Ga 3.185217e+00 -3.740905e+00 -5.312839e+00 -6.097720e-04 7.546042e-04 1.086984e-03
Al 3.194880e+00 -3.743682e+00 -1.538582e-01 -7.528160e-04 -7.363956e-05 3.515098e-03
Ga 1.584030e+00 -9.466665e-01 5.043490e+00 -1.420579e-03 1.250851e-03 7.494803e-04
Ga 1.570747e+00 -9.751338e-01 -5.343359e+00 -1.179735e-03 6.508536e-04 2.965726e-04
Ga 1.578455e+00 -9.710567e-01 -1.456183e-01 -1.195887e-03 5.131486e-04 1.129688e-03
Al 3.165190e+00 1.803660e+00 5.034383e+00 -7.509682e-04 -6.963285e-04 7.193188e-04
Ga 3.167598e+00 1.802999e+00 -5.337529e+00 -2.466816e-04 -4.480417e-04 9.999584e-04
Ga 3.159271e+00 1.806404e+00 -1.443651e-01 4.561793e-04 3.778629e-04 2.019552e-03
Ga 6.382803e+00 -3.730022e+00 5.011998e+00 -6.760610e-04 -2.810057e-04 7.012363e-04
Ga 6.379207e+00 -3.746483e+00 -5.306881e+00 -2.730117e-04 7.616422e-05 6.670995e-04
Al 6.360668e+00 -3.734635e+00 -1.568946e-01 1.330116e-04 -4.842208e-04 3.783000e-03
Ga 4.783579e+00 -9.521929e-01 5.045315e+00 -5.229995e-04 2.861304e-04 4.251282e-04
Ga 4.773951e+00 -9.630839e-01 -5.343056e+00 -8.241613e-04 4.876278e-04 7.626987e-04
Al 4.781415e+00 -9.784425e-01 -1.390303e-01 -3.917186e-04 5.531482e-04 2.501246e-03
Ga -3.228432e+00 1.809311e+00 5.035100e+00 1.852925e-04 3.961229e-05 2.602123e-04
Ga -3.225984e+00 1.802539e+00 -5.343483e+00 -2.179208e-04 -2.445354e-04 6.493960e-04
Ga -3.225051e+00 1.816279e+00 -1.325103e-01 -4.077818e-04 4.660065e-04 8.504343e-04
Ga -2.054768e-02 -3.722137e+00 5.017857e+00 1.389782e-07 -9.972817e-05 1.483917e-03
Al -2.401191e-02 -3.717539e+00 -5.326426e+00 1.493501e-04 5.023668e-04 9.686967e-04
Al -1.545545e-02 -3.721016e+00 -1.412311e-01 -2.664685e-04 -3.936969e-04 1.262711e-03
Al -1.612659e+00 -9.529766e-01 5.046666e+00 -4.492972e-04 6.856213e-04 9.201561e-04
Ga -1.598511e+00 -9.649947e-01 -5.326641e+00 -6.805951e-04 8.794844e-04 7.081143e-04
Ga -1.616791e+00 -9.751563e-01 -1.649555e-01 -5.946683e-04 1.044232e-03 1.786755e-03
N 1.613687e+00 9.101587e-01 4.367225e+00 1.489193e-03 -3.405204e-04 -5.006809e-04
N 1.531796e+00 9.012627e-01 -5.984008e+00 1.715635e-04 -2.664327e-04 -9.979427e-04
N 1.522805e+00 9.054918e-01 -7.652437e-01 -1.892481e-05 -5.125756e-04 -5.731366e-04
N -2.788890e-02 3.650394e+00 4.330905e+00 4.882333e-04 -9.332653e-04 -2.077488e-03
N -2.694079e-02 3.597888e+00 -5.932837e+00 7.469109e-05 -1.379540e-04 -1.340835e-03
N -2.818321e-02 3.639483e+00 -7.724952e-01 1.577981e-04 -1.084523e-04 -1.839309e-03
N 3.181950e+00 -1.879039e+00 4.393834e+00 5.538928e-04 6.602061e-05 -3.780144e-05
N 3.177670e+00 -1.894449e+00 -5.996967e+00 1.142053e-04 -7.130939e-04 -1.117572e-03
N 3.220968e+00 -1.910990e+00 -7.221467e-01 7.316408e-05 -1.241462e-03 -1.031855e-04
N -4.868754e+00 9.108874e-01 4.428713e+00 3.296221e-04 6.291724e-05 5.560279e-04
N -4.832798e+00 8.826489e-01 -6.013130e+00 6.815010e-04 7.947605e-06 -1.178089e-03
N -4.827902e+00 8.340123e-01 -7.432824e-01 5.287049e-04 -4.349749e-04 -5.066765e-05
N -6.422928e+00 3.603390e+00 4.413114e+00 2.697815e-04 -1.048125e-04 -3.017769e-04
N -6.385297e+00 3.669627e+00 -5.927534e+00 2.720087e-04 4.092598e-04 -1.428024e-03
N -6.422301e+00 3.699014e+00 -7.282774e-01 -3.966570e-04 1.236002e-03 -2.542007e-04
N -3.175054e+00 -1.852784e+00 4.425134e+00 3.311374e-04 3.287090e-04 -1.622859e-04
N -3.213232e+00 -1.889609e+00 -5.941691e+00 5.283113e-04 -2.161365e-04 -7.952750e-04
N -3.264064e+00 -1.909101e+00 -7.360992e-01 3.016954e-04 -8.537380e-04 -1.552517e-04
N -1.626324e+00 8.430378e-01 4.420775e+00 9.029982e-04 -2.375730e-04 4.096664e-04
N -1.588759e+00 9.022798e-01 -5.986504e+00 1.446582e-03 -5.758616e-04 -1.094790e-03
N -1.585060e+00 9.169973e-01 -7.489557e-01 1.636027e-03 -9.171300e-04 -3.268947e-04
N -3.226268e+00 3.657423e+00 4.343788e+00 1.920502e-04 -3.180617e-04 -6.801901e-04
N -3.270954e+00 3.677155e+00 -5.918303e+00 2.379093e-04 -4.160167e-05 -7.699662e-04
N -3.233087e+00 3.700418e+00 -7.401854e-01 1.031456e-03 9.078998e-04 -3.801572e-04
N -5.837052e-02 -1.849271e+00 4.425369e+00 4.363251e-04 -3.041139e-04 1.864509e-05
N -2.626962e-02 -1.932238e+00 -5.999054e+00 9.601909e-04 -7.913663e-04 -1.029608e-03
N -1.953400e-02 -1.935062e+00 -8.125341e-01 1.186406e-03 -6.636305e-04 -1.446218e-03
N 1.766638e-02 1.826026e+00 1.796816e+00 -7.450363e-06 -7.871840e-04 -1.729135e-03
N -1.701079e-02 1.761530e+00 7.008068e+00 -6.033015e-04 -5.681758e-04 -9.948530e-04
N -2.546405e-02 1.848804e+00 -3.412200e+00 -1.149684e-03 9.450597e-04 -1.671734e-03
N 3.192357e+00 -3.786611e+00 1.791732e+00 -4.342235e-03 1.413862e-03 -4.901524e-03
N 3.185946e+00 -3.680784e+00 7.001159e+00 -8.749448e-04 6.261804e-04 -1.927254e-03
N 3.226963e+00 -3.757611e+00 -3.328507e+00 -1.998338e-04 -2.308594e-04 -5.792863e-04
N 1.581378e+00 -9.151167e-01 1.836428e+00 -7.905711e-04 1.407843e-03 -1.224589e-03
N 1.586037e+00 -9.544714e-01 7.041326e+00 -9.474209e-04 4.182829e-04 -1.302278e-04
N 1.545479e+00 -9.961049e-01 -3.347775e+00 -1.250434e-03 6.521973e-04 -5.920419e-04
N 3.129899e+00 1.780388e+00 1.829787e+00 -4.184159e-04 -4.143580e-04 -1.616012e-03
N 3.168064e+00 1.764326e+00 6.969982e+00 -4.160512e-04 -7.021098e-04 -9.127464e-04
N 3.171852e+00 1.801991e+00 -3.355576e+00 -3.572722e-04 3.580057e-04 -5.835041e-04
N 6.329707e+00 -3.755055e+00 1.783847e+00 1.838999e-03 5.801966e-04 -4.249928e-03
N 6.379704e+00 -3.725352e+00 6.988537e+00 1.796501e-04 1.102076e-04 -1.759414e-03
N 6.335144e+00 -3.759096e+00 -3.324240e+00 -3.122068e-04 -4.303317e-04 -5.579781e-04
N 4.785386e+00 -9.585575e-01 1.776571e+00 -4.844220e-04 7.132689e-04 -2.144411e-03
N 4.740881e+00 -9.355710e-01 7.025473e+00 -8.637806e-04 3.049255e-04 -1.522147e-04
N 4.776791e+00 -9.671887e-01 -3.366098e+00 -5.218970e-04 4.228750e-04 -1.173520e-03
N -3.227170e+00 1.851642e+00 1.845741e+00 -7.121391e-04 3.802533e-04 -6.917257e-04
N -3.220456e+00 1.770773e+00 7.027275e+00 -2.595313e-04 -6.009707e-04 1.360320e-04
N -3.228383e+00 1.802685e+00 -3.359522e+00 -2.281266e-04 4.496131e-04 -6.713800e-04
N 2.052278e-02 -3.742688e+00 1.784930e+00 5.006505e-04 -9.151097e-04 -7.057353e-04
N -1.468684e-02 -3.674005e+00 6.993683e+00 -1.910410e-04 6.104915e-04 -6.692628e-04
N -2.278597e-02 -3.680842e+00 -3.400170e+00 -2.605417e-04 2.926966e-04 -1.571249e-03
N -1.613237e+00 -9.616022e-01 1.806876e+00 -1.122519e-03 6.870841e-04 -1.430927e-03
N -1.573265e+00 -9.297530e-01 6.974544e+00 -7.850420e-05 5.639972e-04 -6.022884e-04
N -1.576124e+00 -9.857995e-01 -3.334841e+00 -5.130888e-04 4.190891e-04 -3.284853e-04
