108
Energy=-4.824399e+05 Lattice="9.402197e+00 0.000000e+00 0.000000e+00 -4.701070e+00 8.142587e+00 0.000000e+00 3.370683e-04 -6.269302e-04 1.506442e+01" Stress="1.856075e-05 -1.444824e-06 1.721183e-05 -1.474348e-06 -6.115812e-05 -3.057032e-05 1.713090e-05 -3.167708e-05 1.881607e-04" Properties=species:S:1:pos:R:3:forces:R:3 Config_type=AlGaN_super3_1_0_23.xyz
Al 1.544353e+00 8.656340e-01 2.361944e+00 3.285177e-06 -2.330281e-06 -1.260688e-05
Al 1.545903e+00 8.662116e-01 7.382509e+00 -3.057828e-06 5.401035e-06 -4.928594e-06
Al 1.543996e+00 8.657473e-01 -2.663535e+00 -2.638746e-06 -5.815073e-07 -1.691311e-06
Al -2.241371e-02 3.579987e+00 2.362168e+00 -5.239931e-06 9.560563e-06 -1.733151e-05
Al -2.295047e-02 3.580156e+00 7.382588e+00 -1.872116e-06 1.014219e-07 -5.482231e-06
Al -2.186771e-02 3.579795e+00 -2.663080e+00 -3.034207e-06 -4.890945e-06 -5.703637e-06
Al 3.111691e+00 -1.848435e+00 2.362097e+00 -5.260209e-06 -6.201945e-08 -1.271293e-05
Al 3.111790e+00 -1.849422e+00 7.382564e+00 -1.880929e-06 -6.109773e-08 -3.302176e-06
Al 3.111512e+00 -1.847393e+00 -2.663076e+00 -3.846604e-06 -2.489986e-06 -7.429941e-06
Al -4.723191e+00 8.656330e-01 2.361895e+00 -5.836184e-06 1.216761e-06 -6.761691e-06
Al -4.724480e+00 8.662099e-01 7.382501e+00 -5.773637e-06 3.993748e-06 -4.497880e-06
Al -4.723168e+00 8.657351e-01 -2.663520e+00 -3.798208e-06 1.708385e-06 -5.142609e-06
Al -6.290502e+00 3.580338e+00 2.361916e+00 -5.921323e-06 2.832509e-06 -1.200600e-05
Al -6.290377e+00 3.578447e+00 7.382526e+00 -3.387890e-06 1.027142e-06 -6.600441e-06
Al -6.290670e+00 3.580784e+00 -2.663511e+00 -1.874579e-06 3.965855e-07 -2.931114e-06
Al -3.163634e+00 -1.852547e+00 2.376504e+00 -5.790617e-06 -3.899476e-06 -1.671950e-05
Al -3.156240e+00 -1.848574e+00 7.381733e+00 -2.974445e-06 -1.159471e-06 -5.718538e-06
Al -3.161463e+00 -1.851004e+00 -2.673727e+00 6.951412e-07 4.671163e-07 -1.428708e-06
Al -1.589412e+00 8.740143e-01 2.376554e+00 -3.617266e-06 5.285229e-07 -2.003060e-05
Al -1.589291e+00 8.654311e-01 7.381714e+00 -5.758340e-06 4.740540e-06 -4.774611e-06
Al -1.589586e+00 8.715225e-01 -2.673709e+00 -2.733021e-06 6.823337e-07 -1.085574e-07
Al -3.156376e+00 3.580016e+00 2.362113e+00 -7.586201e-06 -1.000526e-06 -8.849894e-06
Al -3.155618e+00 3.580141e+00 7.382571e+00 -6.265567e-06 1.558195e-06 -3.543812e-06
Al -3.157271e+00 3.579804e+00 -2.663078e+00 -7.209940e-06 -3.671846e-06 -1.361939e-06
Al -1.518449e-02 -1.852557e+00 2.376531e+00 -4.992079e-07 -2.704742e-06 -2.003972e-05
Al -2.235846e-02 -1.848578e+00 7.381715e+00 -5.023418e-06 -1.884769e-06 -3.426257e-06
Al -1.770408e-02 -1.850997e+00 -2.673732e+00 -8.994052e-06 3.087437e-07 1.242768e-06
Al -2.095303e-02 1.771703e+00 4.876013e+00 1.247861e-05 -2.379428e-07 -9.533997e-06
Al -2.123077e-02 1.771494e+00 -5.175578e+00 3.094304e-06 -3.197667e-06 -3.116959e-06
Al -1.852282e-02 1.777568e+00 -1.494612e-01 -3.431273e-06 -5.542296e-06 -2.668227e-05
Al 3.111733e+00 -3.658034e+00 4.871785e+00 2.819899e-06 -4.428886e-06 -1.052297e-05
Al 3.111452e+00 -3.657605e+00 -5.171821e+00 3.896181e-06 -4.431997e-06 -3.135558e-06
Al 3.111582e+00 -3.657841e+00 -1.521003e-01 -1.655574e-06 -2.917845e-06 -3.861123e-06
Al 1.546581e+00 -9.433389e-01 4.875977e+00 7.000038e-06 -8.403898e-07 -5.835361e-06
Al 1.545746e+00 -9.425834e-01 -5.175590e+00 3.462451e-06 -5.492740e-06 -1.305244e-06
Al 1.552691e+00 -9.436813e-01 -1.495925e-01 -3.132723e-06 -7.263419e-07 -3.331369e-06
Al 3.111765e+00 1.770354e+00 4.871273e+00 -1.220232e-06 2.342043e-07 -1.049752e-05
Al 3.111487e+00 1.770784e+00 -5.170880e+00 6.628527e-07 -1.939725e-06 -7.032448e-06
Al 3.111585e+00 1.770632e+00 -1.518562e-01 -1.093873e-06 -1.010336e-06 -2.013699e-05
Al 6.245316e+00 -3.659886e+00 4.876032e+00 1.670556e-06 -1.176511e-05 -1.435403e-05
Al 6.245580e+00 -3.659155e+00 -5.175587e+00 2.011257e-06 -3.015693e-06 -2.538514e-06
Al 6.241426e+00 -3.664759e+00 -1.495379e-01 5.347605e-06 3.036843e-06 -2.293446e-05
Al 4.676937e+00 -9.433359e-01 4.875977e+00 -5.103966e-06 -1.660167e-06 -7.549837e-06
Al 4.677191e+00 -9.425821e-01 -5.175589e+00 3.029920e-06 -5.259757e-06 -9.226696e-07
Al 4.670493e+00 -9.436730e-01 -1.495773e-01 4.720648e-06 -4.226396e-06 -1.517723e-05
Al -3.157732e+00 1.771704e+00 4.875978e+00 -9.031295e-06 -3.661648e-06 -1.052058e-05
Al -3.158001e+00 1.771490e+00 -5.175564e+00 -1.482279e-07 -4.373913e-06 -7.339226e-06
Al -3.160487e+00 1.777581e+00 -1.495228e-01 1.470031e-06 -3.179994e-06 -8.093782e-06
Al -2.182450e-02 -3.659908e+00 4.876013e+00 -4.015236e-06 -1.063138e-05 -1.048732e-05
Al -2.264666e-02 -3.659162e+00 -5.175582e+00 -2.006011e-06 -3.270286e-06 -4.295108e-06
Al -1.831134e-02 -3.664742e+00 -1.495230e-01 -5.282511e-07 2.452987e-06 -3.101121e-05
Al -1.589339e+00 -9.438509e-01 4.872367e+00 -1.537649e-07 -8.163794e-06 -3.590413e-06
Al -1.589619e+00 -9.434243e-01 -5.173680e+00 7.461898e-07 -4.071981e-06 -2.596284e-06
Ga -1.589509e+00 -9.437605e-01 -1.440783e-01 1.831956e-06 9.023188e-06 5.059468e-05
N 1.544440e+00 8.654223e-01 4.278253e+00 -3.590542e-06 4.775332e-06 3.761056e-06
N 1.545694e+00 8.667325e-01 -5.767828e+00 -1.463106e-06 3.687030e-06 5.202197e-06
N 1.543970e+00 8.654858e-01 -7.447262e-01 -2.240256e-06 4.285786e-06 1.463048e-05
N -2.207407e-02 3.579648e+00 4.278221e+00 -4.529616e-06 2.814195e-06 6.040752e-06
N -2.352406e-02 3.580748e+00 -5.767993e+00 -2.164551e-06 3.324927e-06 3.506561e-06
N -2.260941e-02 3.580013e+00 -7.461168e-01 -5.087707e-06 7.567127e-06 2.222290e-05
N 3.111761e+00 -1.848369e+00 4.278183e+00 -3.390079e-06 5.832813e-06 5.103598e-06
N 3.111476e+00 -1.849265e+00 -5.768009e+00 -3.200344e-06 2.974584e-06 4.619484e-06
N 3.111590e+00 -1.848541e+00 -7.461184e-01 -1.127878e-06 -4.412224e-06 2.234093e-05
N -4.723131e+00 8.654140e-01 4.278218e+00 1.736774e-06 6.269320e-06 5.281353e-06
N -4.724917e+00 8.667326e-01 -5.767835e+00 -8.876779e-07 3.339925e-06 6.096359e-06
N -4.723012e+00 8.654930e-01 -7.447191e-01 4.897674e-06 2.928829e-06 1.284717e-05
N -6.290440e+00 3.580115e+00 4.278226e+00 1.592602e-06 3.213125e-06 7.648835e-06
N -6.290707e+00 3.578782e+00 -5.767815e+00 1.145392e-06 1.855874e-06 4.689108e-06
N -6.290613e+00 3.580760e+00 -7.447212e-01 5.275783e-07 3.944769e-06 1.534716e-05
N -3.160299e+00 -1.850869e+00 4.288384e+00 6.961134e-07 8.369207e-06 7.733128e-06
N -3.156774e+00 -1.848243e+00 -5.766677e+00 -2.296927e-06 1.938186e-06 2.961798e-06
N -3.198697e+00 -1.872642e+00 -7.645104e-01 -1.300998e-05 -5.903198e-06 -1.055886e-05
N -1.589328e+00 8.701066e-01 4.288403e+00 -5.598166e-06 -1.747506e-07 4.492535e-06
N -1.589611e+00 8.661340e-01 -5.766691e+00 -3.216241e-06 3.383025e-06 4.929258e-06
N -1.589520e+00 9.143303e-01 -7.645280e-01 3.463724e-06 1.446794e-05 -6.333572e-06
N -3.156584e+00 3.579647e+00 4.278193e+00 -8.208782e-07 3.406287e-06 3.367757e-06
N -3.155692e+00 3.580734e+00 -5.768007e+00 -1.992466e-07 4.107177e-06 5.122143e-06
N -3.156420e+00 3.580048e+00 -7.461004e-01 9.067158e-06 2.011500e-06 1.718349e-05
N -1.837534e-02 -1.850884e+00 4.288410e+00 -8.517635e-06 9.882336e-06 3.009143e-06
N -2.246792e-02 -1.848255e+00 -5.766688e+00 -1.002045e-06 3.975478e-06 3.456707e-06
N 1.967694e-02 -1.872630e+00 -7.645149e-01 6.231208e-06 -8.799760e-06 -1.104126e-05
N -2.295747e-02 1.770405e+00 1.767832e+00 4.612109e-06 -6.392185e-06 2.254366e-05
N -2.144154e-02 1.770817e+00 6.790292e+00 4.272122e-06 -1.554396e-06 2.748708e-06
N -1.983672e-02 1.772130e+00 -3.261902e+00 8.537517e-06 4.837786e-06 4.102965e-06
N 3.111653e+00 -3.657812e+00 1.766364e+00 7.193029e-06 -6.861289e-07 3.014832e-06
N 3.111768e+00 -3.658048e+00 6.786784e+00 3.326888e-06 1.555866e-06 2.434968e-06
N 3.111472e+00 -3.657606e+00 -3.255355e+00 8.216639e-06 1.177586e-06 1.014520e-05
N 1.544209e+00 -9.439826e-01 1.767821e+00 5.636552e-06 2.116649e-06 7.195835e-06
N 1.545579e+00 -9.433614e-01 6.790276e+00 4.427944e-06 -2.016243e-06 9.364306e-07
N 1.547021e+00 -9.417045e-01 -3.261906e+00 1.001491e-05 4.710694e-07 5.659236e-06
N 3.111652e+00 1.770587e+00 1.766087e+00 4.880193e-06 1.205778e-06 2.060828e-05
N 3.111795e+00 1.770348e+00 6.786246e+00 2.852459e-06 -2.433929e-06 4.468674e-06
N 3.111501e+00 1.770797e+00 -3.254629e+00 4.004690e-06 -2.322639e-07 8.296752e-06
N 6.245551e+00 -3.657273e+00 1.767792e+00 7.813277e-06 -6.226750e-06 2.643610e-05
N 6.245852e+00 -3.659028e+00 6.790303e+00 2.800721e-07 2.195961e-06 3.053678e-06
N 6.245730e+00 -3.660679e+00 -3.261914e+00 1.233661e-06 -3.034894e-06 7.578633e-06
N 4.679118e+00 -9.439845e-01 1.767779e+00 3.561078e-06 3.287201e-06 1.882220e-05
N 4.677986e+00 -9.433706e-01 6.790273e+00 1.834021e-06 -4.821032e-07 2.289889e-06
N 4.675960e+00 -9.417076e-01 -3.261903e+00 2.384082e-06 -3.238628e-07 6.117781e-06
N -3.155898e+00 1.770411e+00 1.767822e+00 -4.382142e-07 -7.163251e-06 1.540901e-05
N -3.157178e+00 1.770809e+00 6.790256e+00 4.583345e-06 -1.921479e-06 6.529507e-06
N -3.159387e+00 1.772139e+00 -3.261899e+00 7.043702e-06 1.656514e-06 9.054316e-06
N -2.227445e-02 -3.657272e+00 1.767773e+00 2.609252e-06 -4.575873e-06 3.503917e-05
N -2.229665e-02 -3.659031e+00 6.790287e+00 3.644090e-06 8.793939e-07 3.964258e-06
N -2.276601e-02 -3.660671e+00 -3.261908e+00 7.415434e-06 -4.595555e-06 5.534788e-06
N -1.589410e+00 -9.437714e-01 1.830982e+00 -2.948159e-06 1.007086e-05 -2.060262e-05
N -1.589315e+00 -9.438657e-01 6.788730e+00 2.926743e-06 -1.051991e-06 5.324022e-06
N -1.589609e+00 -9.434532e-01 -3.256364e+00 6.239289e-06 -6.316471e-06 9.329612e-06
