108
Energy=-1.672602e+06 Lattice="9.546517e+00 0.000000e+00 0.000000e+00 -4.776748e+00 8.266168e+00 0.000000e+00 -2.049859e-03 4.706386e-03 1.542328e+01" Stress="3.756806e-04 -3.145839e-04 -7.668044e-05 -3.003472e-04 2.167521e-04 2.194834e-04 -6.646973e-05 2.212403e-04 -8.082623e-04" Properties=species:S:1:pos:R:3:forces:R:3 Config_type=AlGaN_super3_27_0_23.xyz
Al 1.574889e+00 8.939032e-01 2.392521e+00 7.545310e-05 -1.632721e-04 2.343973e-04
Al 1.568700e+00 9.038202e-01 7.578411e+00 1.272609e-04 -8.930609e-05 -3.638762e-04
Al 1.559768e+00 8.892469e-01 -2.713633e+00 -8.020964e-06 -2.375916e-04 -8.231982e-05
Al -1.400784e-02 3.619239e+00 2.409468e+00 5.870341e-05 -4.107527e-05 8.449012e-05
Al -1.045836e-02 3.613853e+00 7.568725e+00 -3.793341e-05 -1.747859e-05 5.725859e-05
Al -2.627543e-02 3.612839e+00 -2.711369e+00 -1.549019e-05 8.636273e-05 -4.543492e-05
Al 3.169183e+00 -1.857235e+00 2.399988e+00 -1.897527e-04 3.737205e-04 2.919183e-04
Ga 3.169720e+00 -1.857832e+00 7.579500e+00 -4.753701e-05 6.629230e-07 -3.203875e-06
Ga 3.166686e+00 -1.870792e+00 -2.711625e+00 -3.783828e-05 2.179993e-05 6.450454e-05
Al -4.809858e+00 8.778922e-01 2.394891e+00 -6.796860e-05 -4.887995e-05 -1.382011e-05
Al -4.812165e+00 8.824944e-01 7.564650e+00 -8.916259e-06 3.007638e-05 4.763755e-06
Ga -4.799272e+00 8.757507e-01 -2.698909e+00 6.712943e-05 -5.973760e-06 1.872923e-05
Al -6.393632e+00 3.613224e+00 2.389590e+00 -7.090465e-06 4.639012e-05 6.520752e-05
Al -6.401333e+00 3.612871e+00 7.580913e+00 5.638798e-06 -2.331230e-05 -1.555396e-05
Ga -6.396009e+00 3.616501e+00 -2.701766e+00 2.035013e-05 5.244502e-05 -7.719997e-06
Ga -3.232096e+00 -1.880694e+00 2.424148e+00 -7.848774e-06 -5.845988e-06 1.636257e-05
Ga -3.223906e+00 -1.876863e+00 7.560345e+00 -2.259093e-05 -3.323275e-07 -1.604755e-05
Al -3.218592e+00 -1.872024e+00 -2.708686e+00 2.585846e-05 5.538836e-06 9.339371e-05
Ga -1.607371e+00 9.075281e-01 2.415177e+00 6.990139e-05 -8.917371e-05 9.108212e-05
Ga -1.604407e+00 9.038103e-01 7.561509e+00 6.864066e-05 -8.419942e-06 -2.608382e-07
Al -1.600189e+00 8.992138e-01 -2.704301e+00 -3.395608e-05 -7.681499e-05 3.206882e-05
Ga -3.212349e+00 3.624462e+00 2.411393e+00 -2.562391e-05 3.148166e-06 1.138747e-04
Ga -3.210502e+00 3.621712e+00 7.549240e+00 6.339204e-05 -1.879112e-05 -1.160310e-05
Al -3.195436e+00 3.622380e+00 -2.684071e+00 2.297525e-05 2.422875e-05 1.457652e-05
Ga -5.859286e-03 -1.879342e+00 2.390757e+00 6.513178e-05 6.528025e-06 5.372288e-05
Ga -1.782205e-02 -1.870667e+00 7.586879e+00 1.943875e-05 -3.384236e-05 2.303747e-06
Ga -1.057497e-02 -1.867623e+00 -2.696940e+00 2.203007e-05 1.114167e-06 3.292412e-05
Al -1.830849e-02 1.804141e+00 4.985230e+00 6.559923e-05 -7.491892e-06 3.108623e-05
Al -3.423488e-04 1.788145e+00 -5.268843e+00 -1.801702e-04 4.460491e-04 -2.279373e-04
Al -1.230460e-02 1.791725e+00 -1.662325e-01 -5.692107e-05 -1.475771e-04 2.846724e-04
Ga 3.178554e+00 -3.715333e+00 4.970759e+00 -7.353305e-07 1.493021e-04 1.115913e-05
Ga 3.171864e+00 -3.718614e+00 -5.266441e+00 -3.373326e-06 -1.547877e-05 9.008323e-06
Ga 3.159111e+00 -3.716682e+00 -1.468405e-01 -6.105808e-05 1.040251e-04 -1.445494e-05
Ga 1.581133e+00 -9.364410e-01 4.979016e+00 -2.822998e-05 9.233831e-05 -4.940533e-05
Al 1.579425e+00 -9.275280e-01 -5.277740e+00 -7.468436e-05 -9.953987e-05 2.682140e-05
Al 1.581290e+00 -9.351943e-01 -1.412391e-01 1.120792e-04 -4.632837e-04 1.172611e-05
Ga 3.162845e+00 1.787123e+00 4.980844e+00 -8.047743e-05 -8.942342e-05 9.909157e-05
Al 3.145339e+00 1.773178e+00 -5.305246e+00 5.897165e-05 3.881190e-05 -7.599343e-05
Al 3.156278e+00 1.781145e+00 -1.302008e-01 1.726684e-07 1.098991e-04 3.661108e-05
Ga 6.335603e+00 -3.731068e+00 4.990907e+00 2.865969e-05 -3.005051e-05 3.568962e-05
Ga 6.334465e+00 -3.727960e+00 -5.278492e+00 -5.138016e-05 -1.150051e-05 -1.032544e-06
Ga 6.339060e+00 -3.722725e+00 -1.492177e-01 5.051586e-05 9.812911e-05 1.488956e-05
Al 4.744076e+00 -9.356179e-01 4.975571e+00 -6.752148e-05 -5.145599e-05 -2.746686e-05
Al 4.741307e+00 -9.445910e-01 -5.278325e+00 3.543216e-06 -2.086096e-05 7.976469e-06
Al 4.740790e+00 -9.407480e-01 -1.373486e-01 1.943883e-04 -4.266429e-04 1.580395e-04
Al -3.215819e+00 1.780106e+00 4.985979e+00 -1.940934e-05 -2.257192e-05 5.891524e-05
Ga -3.213726e+00 1.784201e+00 -5.266310e+00 1.070774e-05 1.751495e-05 2.203049e-05
Al -3.212810e+00 1.796482e+00 -1.622029e-01 -1.252470e-04 -1.249437e-04 -2.490707e-04
Ga -3.226945e-02 -3.724569e+00 4.992253e+00 -1.267375e-05 2.379829e-05 4.920324e-05
Ga -2.156151e-02 -3.724059e+00 -5.272646e+00 1.635697e-05 -3.600885e-06 -8.072585e-07
Al -1.442555e-02 -3.729593e+00 -1.499041e-01 1.564922e-05 4.794344e-05 3.516898e-05
Ga -1.620654e+00 -9.385052e-01 4.988582e+00 -7.814516e-06 -3.036481e-05 1.039274e-05
Ga -1.615414e+00 -9.483800e-01 -5.253533e+00 -5.335814e-05 -3.890331e-05 1.013569e-05
Ga -1.618204e+00 -9.421117e-01 -1.675024e-01 -2.044449e-05 -6.307667e-05 2.409856e-05
N 1.525499e+00 9.105657e-01 4.312288e+00 4.674206e-05 7.081257e-05 -4.622702e-05
N 1.561195e+00 8.813222e-01 -5.915196e+00 -2.242106e-06 3.431353e-05 8.423443e-06
N 1.572150e+00 8.818532e-01 -7.779410e-01 2.299415e-05 4.335502e-05 7.902827e-06
N -2.143321e-02 3.580416e+00 4.320607e+00 -1.660143e-05 1.541531e-06 -5.878046e-05
N -2.522087e-02 3.575092e+00 -5.935423e+00 1.933696e-05 -3.978971e-04 1.629040e-04
N -2.494098e-02 3.582218e+00 -8.045559e-01 -1.186996e-05 1.174288e-04 -6.776457e-05
N 3.201397e+00 -1.846050e+00 4.323107e+00 5.235735e-05 -6.043144e-05 -1.733711e-04
N 3.160605e+00 -1.831233e+00 -5.856737e+00 1.552976e-05 3.190504e-05 -1.914460e-05
N 3.161097e+00 -1.825180e+00 -7.334650e-01 -2.996351e-04 2.140725e-04 2.017706e-04
N -4.757998e+00 8.587592e-01 4.324085e+00 9.042401e-05 5.856766e-05 3.388674e-05
N -4.835813e+00 8.522614e-01 -5.927557e+00 1.804138e-05 9.927948e-06 4.972087e-05
N -4.805070e+00 8.778767e-01 -7.157016e-01 1.418945e-04 4.508900e-04 -9.107062e-05
N -6.390247e+00 3.627297e+00 4.301572e+00 3.356550e-06 1.152858e-05 -8.554435e-05
N -6.390503e+00 3.580860e+00 -5.925189e+00 -5.069296e-06 -5.293819e-05 6.910415e-05
N -6.349977e+00 3.597947e+00 -7.255238e-01 3.639271e-05 -6.720669e-05 -3.089461e-05
N -3.251749e+00 -1.856710e+00 4.397868e+00 -5.024681e-06 -2.880103e-05 -2.979515e-06
N -3.248778e+00 -1.853849e+00 -5.885046e+00 2.221220e-06 4.717509e-05 -4.606980e-05
N -3.257971e+00 -1.852507e+00 -7.944485e-01 -5.881508e-05 3.917513e-05 -1.429515e-05
N -1.611685e+00 9.396010e-01 4.401269e+00 4.303185e-05 -5.259892e-05 -2.847377e-05
N -1.568628e+00 9.079793e-01 -5.881790e+00 1.275253e-04 2.878546e-05 6.754590e-05
N -1.609133e+00 9.373012e-01 -7.862420e-01 3.191589e-05 9.205631e-05 6.828064e-05
N -3.209234e+00 3.584201e+00 4.389869e+00 4.484637e-05 -7.226342e-05 -5.984220e-05
N -3.202057e+00 3.626294e+00 -5.910122e+00 1.796419e-05 -3.185315e-05 -3.098564e-05
N -3.244460e+00 3.610115e+00 -7.700703e-01 2.209106e-05 -1.084771e-04 4.709702e-06
N -1.786413e-02 -1.876012e+00 4.361074e+00 -3.464278e-06 -8.641426e-05 -9.932658e-06
N 2.041436e-02 -1.851746e+00 -5.860326e+00 3.351052e-05 1.822239e-06 -1.045921e-05
N 2.881435e-02 -1.898731e+00 -7.165997e-01 1.176049e-04 1.518248e-04 2.618138e-05
N 2.062444e-02 1.820389e+00 1.754005e+00 -1.990769e-04 2.143228e-04 -3.069859e-04
N 2.642781e-02 1.822993e+00 6.910466e+00 -1.169407e-05 5.698134e-06 1.069925e-04
N -1.496260e-02 1.794532e+00 -3.337794e+00 -3.673631e-05 3.465257e-05 1.043380e-05
N 3.204632e+00 -3.689558e+00 1.838141e+00 3.546211e-05 -2.701959e-04 -1.333837e-04
N 3.211533e+00 -3.729938e+00 6.957233e+00 -5.725374e-05 2.475908e-05 -4.770105e-05
N 3.162897e+00 -3.763687e+00 -3.281754e+00 -6.897237e-06 -2.635788e-05 4.774898e-06
N 1.614900e+00 -9.235058e-01 1.778229e+00 1.564630e-04 2.675187e-07 -3.159446e-04
N 1.571498e+00 -8.993697e-01 6.959889e+00 -3.835909e-05 1.720600e-04 1.375859e-04
N 1.572138e+00 -9.014943e-01 -3.363067e+00 -3.228627e-05 1.859677e-04 8.899642e-05
N 3.157093e+00 1.790721e+00 1.794156e+00 4.804259e-05 6.183643e-05 -1.542846e-04
N 3.156522e+00 1.795977e+00 6.983858e+00 -1.746670e-04 -6.270883e-05 1.225378e-04
N 3.117031e+00 1.766005e+00 -3.381573e+00 4.730843e-05 5.027259e-05 1.223551e-05
N 6.339991e+00 -3.758775e+00 1.827201e+00 -2.346297e-05 -4.149640e-05 -4.386613e-05
N 6.343908e+00 -3.765613e+00 6.980230e+00 3.237053e-05 -3.575590e-07 -4.879017e-05
N 6.301527e+00 -3.693692e+00 -3.292213e+00 3.270669e-06 -4.071041e-05 9.925761e-06
N 4.711839e+00 -9.308849e-01 1.774367e+00 -8.710681e-05 -9.111593e-05 -1.882529e-04
N 4.742833e+00 -9.008178e-01 6.893781e+00 -1.885838e-05 -1.240908e-05 -1.699028e-05
N 4.791315e+00 -9.734977e-01 -3.370643e+00 -5.009811e-06 3.966182e-05 -3.299641e-05
N -3.246510e+00 1.771247e+00 1.749887e+00 1.121324e-04 9.587879e-05 1.129193e-04
N -3.255481e+00 1.764901e+00 6.904948e+00 -1.480831e-05 4.694721e-06 -3.377447e-05
N -3.168304e+00 1.817467e+00 -3.286157e+00 -4.523176e-05 -1.565262e-05 1.442635e-05
N -6.017200e-02 -3.742287e+00 1.758350e+00 1.633451e-06 -5.022889e-05 -6.366461e-05
N -7.463941e-02 -3.735091e+00 6.968122e+00 2.190073e-05 -1.725448e-05 -4.137519e-05
N 2.101147e-02 -3.742407e+00 -3.300981e+00 -1.239914e-05 -4.054277e-05 -1.711636e-05
N -1.622145e+00 -9.506751e-01 1.800365e+00 -3.508603e-05 1.858761e-05 -4.374106e-05
N -1.614279e+00 -9.525353e-01 6.954827e+00 -4.386689e-05 9.549204e-07 -2.134495e-05
N -1.653838e+00 -9.308198e-01 -3.267604e+00 -1.532365e-05 4.016551e-05 -3.749711e-05
