108
Energy=-1489500.216597 Lattice="9.511870 0.000000 0.000000 -4.759963 8.233918 0.000000 0.003264 -0.002399 15.360648" Stress="-0.000023 -0.000001 0.000000 -0.000001 -0.000028 -0.000000 0.000000 -0.000000 -0.000017" Properties=species:S:1:pos:R:3:forces:R:3
Al 1.570570 0.863968 2.427662 0.000462 0.001663 -0.003300
Al 1.565270 0.878892 7.520998 0.000239 0.000058 0.000962
Al 1.559093 0.881806 -2.706686 0.000249 -0.000293 0.000766
Al -0.026631 3.628956 2.422967 -0.000798 0.001247 0.002503
Al -0.029343 3.617374 7.510295 -0.001730 -0.001633 0.001764
Al -0.028777 3.613779 -2.709601 -0.000095 0.000142 0.000402
Al 3.162599 -1.879472 2.392549 -0.000607 -0.000196 -0.000454
Al 3.161498 -1.876525 7.504296 0.000109 -0.000095 0.000926
Ga 3.164531 -1.871824 -2.674494 -0.000350 0.000089 0.001500
Al -4.800660 0.864472 2.428798 0.002385 0.000479 -0.000259
Al -4.785594 0.874793 7.511287 -0.000061 -0.000879 -0.000036
Al -4.778112 0.874483 -2.707552 0.000618 0.000339 0.000317
Al -6.363983 3.615619 2.417422 -0.000135 0.000437 0.000750
Ga -6.370171 3.601048 7.517181 0.000335 -0.000207 0.000760
Ga -6.360959 3.618852 -2.701682 0.000023 0.000255 -0.000123
Al -3.202881 -1.868328 2.432913 -0.001173 -0.001769 0.000124
Ga -3.207102 -1.867864 7.513162 -0.000315 0.000205 0.000632
Al -3.200244 -1.861574 -2.704681 0.000101 0.000170 0.000455
Ga -1.615530 0.882375 2.424882 0.000632 0.000136 -0.000940
Al -1.612092 0.894477 7.561187 0.000672 -0.000288 0.000524
Ga -1.620204 0.891988 -2.740244 0.000235 -0.000359 0.000435
Al -3.190368 3.639320 2.410812 0.000394 -0.000767 -0.001117
Al -3.175057 3.615860 7.535097 -0.001288 0.000067 -0.000882
Al -3.199638 3.617186 -2.706845 0.000079 -0.000279 0.000178
Al -0.009351 -1.878861 2.397545 0.000411 -0.000139 -0.000855
Ga -0.008973 -1.864186 7.550160 0.000189 -0.000583 0.000840
Ga -0.020210 -1.872370 -2.705258 0.000241 -0.000431 0.000945
Ga -0.006427 1.804295 4.987433 -0.001314 0.001253 0.000730
Al -0.031359 1.787015 -5.284237 0.000877 0.001020 -0.001281
Ga -0.017575 1.797077 -0.136830 0.000221 0.000062 0.000210
Al 3.167011 -3.689570 4.968929 -0.000611 -0.001790 0.000005
Ga 3.141640 -3.718605 -5.280506 0.000280 0.000452 0.001640
Al 3.143217 -3.690729 -0.144962 -0.000870 -0.001990 0.001236
Ga 1.591853 -0.960093 4.960751 -0.000542 -0.000960 0.001073
Ga 1.562577 -0.950485 -5.278871 -0.000457 0.000505 0.001212
Al 1.572230 -0.953163 -0.124382 0.000413 -0.002755 0.000661
Al 3.143935 1.778534 4.951784 0.001129 0.000629 0.001975
Ga 3.147793 1.785508 -5.269038 -0.000322 -0.000164 0.001253
Ga 3.152860 1.776439 -0.134426 -0.000767 -0.000409 0.001371
Al 6.311863 -3.704918 4.945672 -0.000685 0.000468 -0.000609
Ga 6.316047 -3.698534 -5.258688 -0.000175 -0.000232 0.000796
Ga 6.304993 -3.686442 -0.125399 0.000640 -0.000167 -0.000201
Al 4.726941 -0.957035 4.956679 -0.000869 -0.002474 0.000812
Ga 4.745549 -0.941043 -5.273306 -0.000439 -0.000267 0.001361
Al 4.733016 -0.957411 -0.134887 -0.000866 0.000278 0.000992
Ga -3.211883 1.797667 4.986457 0.000318 0.000464 0.000054
Al -3.202673 1.800486 -5.289914 0.000204 -0.000038 0.001202
Ga -3.217005 1.808262 -0.134360 0.000184 0.000468 -0.000094
Ga -0.017889 -3.710389 4.951062 0.000230 -0.000042 0.000628
Al -0.011848 -3.702775 -5.273202 -0.000063 0.000070 0.000949
Al -0.001684 -3.692696 -0.121096 0.000495 -0.000138 0.000603
Ga -1.613341 -0.964356 4.972559 -0.000437 0.000151 0.000307
Al -1.607781 -0.942805 -5.270095 -0.000236 0.000119 0.000711
Ga -1.610578 -0.966278 -0.127873 -0.000194 -0.000101 -0.001418
N 1.598041 0.890549 4.324093 -0.000067 0.000125 0.001156
N 1.523679 0.900212 -5.928551 -0.000535 0.000481 -0.000899
N 1.558606 0.827490 -0.790364 -0.000027 0.000693 -0.000436
N -0.029424 3.664600 4.346260 -0.000055 -0.000541 -0.002209
N -0.023605 3.579529 -5.931506 0.000015 -0.001168 -0.001310
N -0.066347 3.642288 -0.797145 -0.000580 0.000388 0.000707
N 3.195041 -1.904078 4.321418 0.000907 0.001864 -0.001021
N 3.158446 -1.874703 -5.941544 -0.000175 0.000080 -0.001815
N 3.149984 -1.872104 -0.684562 0.000597 0.002676 -0.000175
N -4.819070 0.844641 4.346857 -0.000362 0.001126 -0.001187
N -4.747676 0.898720 -5.935819 0.000563 0.000347 -0.001239
N -4.779293 0.826855 -0.796531 -0.000019 -0.000524 0.000582
N -6.402961 3.587215 4.343405 -0.000528 0.001303 -0.001732
N -6.331530 3.642017 -5.867363 0.000280 0.000202 -0.000864
N -6.322847 3.648006 -0.726912 0.000083 0.000332 0.001073
N -3.236132 -1.888365 4.350961 0.000612 -0.000707 -0.000896
N -3.153343 -1.849380 -5.880321 0.000242 0.000500 -0.000910
N -3.233072 -1.843562 -0.792317 -0.000438 0.000134 0.000260
N -1.610754 0.883581 4.376573 0.000784 -0.000302 -0.000957
N -1.616586 0.882658 -5.865550 0.000396 -0.000161 -0.000408
N -1.618615 0.881977 -0.765772 0.000872 -0.000551 0.000712
N -3.144300 3.645436 4.317039 0.000816 0.000381 0.000950
N -3.236365 3.603734 -5.913944 0.000003 -0.000777 -0.000651
N -3.199380 3.672464 -0.781969 0.000141 0.000025 0.000420
N -0.015389 -1.868500 4.302212 0.000291 0.000012 -0.000790
N -0.063048 -1.890544 -5.837743 -0.000087 -0.000376 -0.000512
N 0.020804 -1.891277 -0.718808 0.000396 0.000563 0.000756
N 0.021545 1.815992 1.837949 0.000496 -0.000456 0.000404
N -0.025864 1.785530 6.969896 0.000509 0.000407 -0.000550
N 0.021533 1.814817 -3.358149 0.000133 0.000510 -0.000029
N 3.156098 -3.708310 1.782497 -0.000269 0.000195 0.000233
N 3.153473 -3.702798 6.904124 -0.000615 0.000065 -0.001035
N 3.147933 -3.745807 -3.295849 -0.000096 -0.000044 -0.000077
N 1.571415 -0.953305 1.806378 -0.000176 0.000017 -0.000860
N 1.609879 -0.935817 6.943187 -0.000537 0.000627 -0.001246
N 1.576541 -0.911298 -3.305702 -0.000466 0.000506 -0.000560
N 3.145971 1.785961 1.852986 -0.000751 -0.000520 -0.001222
N 3.145300 1.739465 6.877746 -0.000271 -0.000298 -0.000763
N 3.145049 1.741121 -3.288953 0.000133 -0.000228 0.000183
N 6.316920 -3.697934 1.862090 0.000830 0.000869 -0.000799
N 6.278807 -3.726986 6.863717 0.001235 0.000525 -0.001084
N 6.275706 -3.674283 -3.281915 0.000097 -0.000170 0.000418
N 4.742797 -0.950705 1.796474 -0.000057 -0.000034 -0.000039
N 4.694364 -0.931907 6.878178 -0.000213 0.000853 -0.001240
N 4.771770 -0.928241 -3.296165 -0.000402 -0.000360 -0.000484
N -3.248733 1.818727 1.843857 -0.000931 -0.000363 -0.001089
N -3.195769 1.790717 6.969966 0.000383 0.000666 0.000311
N -3.247831 1.821569 -3.356237 -0.000188 0.000421 -0.001092
N -0.018217 -3.704705 1.804598 -0.000286 0.000217 0.000317
N 0.021658 -3.722030 6.920956 0.001356 -0.000545 -0.000445
N 0.022607 -3.721445 -3.362347 0.000189 -0.000178 -0.000556
N -1.610747 -1.002152 1.841842 -0.000537 -0.000477 0.000753
N -1.601459 -0.902637 6.941643 -0.000267 0.000232 -0.000872
N -1.646838 -0.976019 -3.355461 -0.000387 -0.000342 -0.000173
