108
Energy=-2.084582e+06 Lattice="9.598494e+00 0.000000e+00 0.000000e+00 -4.803763e+00 8.309467e+00 0.000000e+00 1.491400e-02 2.403041e-03 1.554189e+01" Stress="-3.190485e-06 -2.096236e-04 3.525143e-04 -2.093621e-04 -3.591006e-04 9.762534e-05 3.535247e-04 9.426274e-05 -5.048790e-04" Properties=species:S:1:pos:R:3:forces:R:3 Config_type=AlGaN_super3_36_2_14.xyz
Al 1.571739e+00 8.781009e-01 2.476975e+00 4.828199e-04 -1.315085e-03 2.459252e-04
Al 1.582745e+00 8.830526e-01 7.596918e+00 9.515802e-05 -1.137481e-04 1.567319e-04
Ga 1.574077e+00 8.791691e-01 -2.753204e+00 2.272370e-04 -2.001923e-04 3.618939e-04
Al -1.453999e-02 3.654311e+00 2.458280e+00 8.868001e-04 -2.910827e-04 4.775151e-04
Al -2.175445e-03 3.647635e+00 7.604241e+00 -1.259182e-04 -9.253516e-05 4.848756e-04
Ga -7.764607e-03 3.655096e+00 -2.737669e+00 -6.077507e-05 5.142866e-05 1.655095e-04
Al 3.176675e+00 -1.886125e+00 2.469486e+00 -4.450657e-04 9.714532e-04 -5.533460e-04
Ga 3.169342e+00 -1.880785e+00 7.598958e+00 -5.809527e-05 8.484673e-05 5.483107e-04
Ga 3.166337e+00 -1.880332e+00 -2.736930e+00 -3.890956e-05 7.393402e-06 -1.967724e-04
Ga -4.835996e+00 8.684602e-01 2.438026e+00 -2.680478e-04 4.994570e-05 6.147064e-04
Al -4.832408e+00 8.922560e-01 7.623027e+00 1.632423e-04 7.055434e-05 2.059896e-04
Ga -4.838245e+00 8.861914e-01 -2.724261e+00 1.292800e-04 -1.523610e-04 2.249590e-04
Ga -6.432334e+00 3.657109e+00 2.445488e+00 8.525440e-05 -1.863858e-04 7.648354e-04
Al -6.426565e+00 3.649270e+00 7.623740e+00 1.339654e-04 -1.470821e-05 2.746037e-04
Al -6.442281e+00 3.658418e+00 -2.746985e+00 -8.277725e-05 7.526094e-05 4.735809e-04
Ga -3.227119e+00 -1.899034e+00 2.428775e+00 2.814098e-04 -3.250789e-04 8.548196e-04
Ga -3.202639e+00 -1.899419e+00 7.638524e+00 -3.219383e-05 1.700648e-04 2.732505e-04
Ga -3.217953e+00 -1.904853e+00 -2.743792e+00 1.579679e-05 4.781306e-05 2.611865e-04
Ga -1.594531e+00 8.893468e-01 2.470765e+00 5.472239e-04 -3.056704e-04 9.945137e-04
Ga -1.600296e+00 8.848987e-01 7.611337e+00 4.155467e-04 -7.659041e-05 1.382600e-04
Ga -1.625955e+00 8.769101e-01 -2.750117e+00 3.170497e-04 -2.718547e-04 4.806462e-04
Ga -3.207714e+00 3.678259e+00 2.468765e+00 -3.593395e-04 -3.676461e-04 5.799534e-04
Ga -3.217411e+00 3.663852e+00 7.607110e+00 1.583286e-04 -1.318112e-04 1.696879e-04
Ga -3.239138e+00 3.657231e+00 -2.738016e+00 1.201280e-04 -6.448241e-05 4.588625e-05
Al 6.584218e-04 -1.877002e+00 2.462268e+00 1.218816e-03 5.492457e-04 2.279175e-04
Al -6.642635e-03 -1.873603e+00 7.628581e+00 2.116643e-04 -1.131184e-04 2.120256e-04
Ga -2.544746e-02 -1.883078e+00 -2.760808e+00 1.678227e-04 -6.287855e-05 2.565352e-04
Al -4.710125e-03 1.818605e+00 5.036908e+00 2.541410e-04 -2.262167e-04 4.250094e-04
Ga -1.900333e-02 1.801908e+00 -5.365695e+00 -2.333584e-04 3.923021e-05 3.797987e-04
Ga -1.793423e-02 1.814891e+00 -1.172360e-01 5.191575e-04 5.429884e-05 -8.823394e-04
Al 3.202099e+00 -3.731345e+00 5.021482e+00 -4.565858e-05 2.176981e-04 3.436124e-04
Ga 3.187273e+00 -3.728224e+00 -5.344965e+00 -8.421415e-05 5.539803e-05 3.210445e-04
Ga 3.196354e+00 -3.719753e+00 -1.124723e-01 3.221259e-04 -1.608884e-04 -1.666555e-03
Al 1.579375e+00 -9.644654e-01 5.023321e+00 -3.678484e-04 1.353065e-03 -1.100361e-03
Al 1.558927e+00 -9.603525e-01 -5.366056e+00 -1.503346e-04 1.502779e-04 2.535538e-04
Ga 1.584218e+00 -9.645105e-01 -1.034469e-01 1.508610e-04 4.839153e-04 -1.217395e-04
Ga 3.162778e+00 1.797853e+00 5.056505e+00 -2.557403e-04 -3.224253e-04 1.846804e-04
Ga 3.156666e+00 1.809047e+00 -5.356821e+00 1.233816e-05 -9.913891e-05 4.290492e-04
Ga 3.159069e+00 1.810806e+00 -1.398594e-01 4.983439e-04 1.122453e-04 -9.325973e-04
Ga 6.364337e+00 -3.746069e+00 5.046965e+00 6.189494e-05 3.804729e-05 4.184077e-04
Al 6.379015e+00 -3.738392e+00 -5.351825e+00 1.016571e-06 -3.548032e-06 3.265589e-04
Al 6.370341e+00 -3.733341e+00 -1.383150e-01 7.687937e-04 1.282263e-04 -1.242427e-03
Ga 4.768646e+00 -9.715649e-01 5.042939e+00 -2.819094e-04 3.266405e-05 3.268192e-04
Ga 4.774170e+00 -9.686704e-01 -5.346419e+00 -9.955971e-05 8.256136e-05 1.978681e-04
Al 4.770257e+00 -9.798874e-01 -1.296419e-01 4.648041e-04 3.594013e-04 -1.489748e-03
Ga -3.211249e+00 1.812418e+00 5.048816e+00 9.185357e-05 -2.976539e-05 2.260690e-04
Ga -3.232566e+00 1.795277e+00 -5.343659e+00 7.009316e-05 -5.568676e-05 2.827560e-04
Ga -3.231953e+00 1.800542e+00 -1.310970e-01 4.860651e-04 -1.453708e-05 -1.598146e-03
Ga -8.164834e-03 -3.709756e+00 5.055668e+00 8.721515e-05 2.808040e-04 3.635275e-04
Ga -4.858092e-02 -3.715528e+00 -5.349077e+00 1.007987e-04 -8.268711e-05 2.679069e-04
Ga -4.260964e-02 -3.727890e+00 -1.428732e-01 3.664084e-04 4.368945e-05 -8.997888e-04
Ga -1.592463e+00 -9.642720e-01 5.037255e+00 2.290347e-04 1.306426e-04 4.253463e-04
Al -1.616957e+00 -9.758441e-01 -5.348147e+00 -1.311562e-04 9.414954e-05 2.320376e-04
Ga -1.633770e+00 -9.734740e-01 -1.282638e-01 3.148545e-04 1.730206e-04 -1.203457e-03
N 1.539773e+00 8.627494e-01 4.404564e+00 1.636598e-04 -8.742485e-04 4.298599e-04
N 1.568843e+00 8.320600e-01 -6.022399e+00 1.965910e-04 -7.098476e-05 -2.864564e-04
N 1.567190e+00 8.731456e-01 -7.773389e-01 -6.912508e-07 1.153836e-04 -3.654487e-04
N -5.525147e-02 3.629285e+00 4.386448e+00 -8.883700e-05 2.956537e-05 -4.960550e-04
N 1.063710e-02 3.676597e+00 -6.013188e+00 8.009510e-05 1.240898e-04 -3.758177e-04
N 1.477487e-02 3.675768e+00 -7.559142e-01 -4.342009e-04 5.748157e-07 -3.019632e-04
N 3.142912e+00 -1.909226e+00 4.398589e+00 -7.524495e-05 2.848163e-04 1.131611e-03
N 3.125962e+00 -1.864127e+00 -5.964312e+00 -8.649744e-06 -4.582219e-05 -2.399560e-04
N 3.207094e+00 -1.860437e+00 -7.542149e-01 7.777615e-05 -2.779519e-04 2.236460e-06
N -4.822133e+00 8.833175e-01 4.409423e+00 3.647340e-05 -5.770356e-05 -3.534327e-04
N -4.835236e+00 8.823112e-01 -6.012278e+00 7.501221e-05 -5.417817e-05 -2.679905e-04
N -4.833034e+00 8.316300e-01 -7.386426e-01 1.199026e-04 -2.179721e-05 -1.975581e-04
N -6.416623e+00 3.655374e+00 4.419220e+00 -1.815543e-04 8.018401e-05 -3.298797e-04
N -6.473513e+00 3.674566e+00 -6.005665e+00 -1.342750e-04 1.232525e-04 -3.335165e-04
N -6.475699e+00 3.678614e+00 -8.115823e-01 -2.650652e-04 1.236090e-04 -1.521043e-04
N -3.215719e+00 -1.888415e+00 4.408038e+00 -4.500014e-05 -2.109214e-04 -4.113331e-04
N -3.183729e+00 -1.915294e+00 -5.921099e+00 1.193424e-05 -5.389999e-05 -2.568449e-04
N -3.265886e+00 -1.914753e+00 -7.378489e-01 -3.215799e-05 1.080800e-05 -1.629998e-04
N -1.571746e+00 9.123887e-01 4.449746e+00 1.318297e-04 -2.008345e-04 -5.586629e-04
N -1.628943e+00 8.336599e-01 -5.953144e+00 2.487867e-04 -1.243803e-04 -2.692358e-04
N -1.622307e+00 8.821662e-01 -7.667088e-01 6.465629e-05 -1.489591e-04 -4.655525e-04
N -3.179587e+00 3.683999e+00 4.448729e+00 1.038083e-04 -8.337849e-05 -4.048762e-04
N -3.231135e+00 3.658478e+00 -5.962272e+00 -4.691877e-05 -2.077257e-05 -3.011357e-04
N -3.224548e+00 3.661012e+00 -7.566628e-01 2.144127e-04 -4.703345e-05 -6.313691e-05
N 2.883486e-02 -1.863018e+00 4.372315e+00 -4.890511e-05 -1.007134e-04 1.354549e-04
N -2.561917e-02 -1.836008e+00 -5.987094e+00 1.027324e-04 -5.793695e-05 -1.899591e-04
N -1.840279e-02 -1.876075e+00 -7.817737e-01 -2.150433e-04 -2.147856e-04 -3.364185e-04
N 3.040266e-02 1.832593e+00 1.866175e+00 -8.083726e-04 4.958149e-04 4.688915e-04
N 3.213380e-02 1.836182e+00 6.969844e+00 -2.133337e-04 1.717680e-04 -2.946236e-04
N -2.529674e-02 1.808106e+00 -3.388137e+00 -2.492938e-04 2.583302e-04 -3.697154e-04
N 3.235765e+00 -3.703417e+00 1.871054e+00 -1.168206e-03 -5.403589e-04 6.508815e-04
N 3.239115e+00 -3.754892e+00 6.947085e+00 -4.132670e-05 2.800462e-05 -3.427497e-04
N 3.180742e+00 -3.735552e+00 -3.367782e+00 -3.726638e-05 1.065688e-04 -1.554368e-04
N 1.588756e+00 -9.603391e-01 1.886901e+00 -5.510435e-04 1.268977e-04 1.470364e-03
N 1.538618e+00 -9.389271e-01 6.954251e+00 7.802352e-05 -1.108344e-04 -8.068075e-04
N 1.575289e+00 -9.637676e-01 -3.446145e+00 -2.542139e-04 1.485850e-04 -2.423824e-04
N 3.128760e+00 1.784069e+00 1.838313e+00 -3.468836e-04 3.167456e-05 6.763481e-04
N 3.179234e+00 1.808321e+00 7.048642e+00 1.503859e-05 -5.808719e-05 -3.223371e-04
N 3.169703e+00 1.855753e+00 -3.363319e+00 6.036560e-05 -6.175638e-05 -3.153300e-04
N 6.341783e+00 -3.762001e+00 1.777920e+00 -5.252719e-04 -2.848525e-04 1.152618e-03
N 6.385931e+00 -3.779657e+00 7.023625e+00 6.864977e-05 -6.743257e-05 -4.167570e-04
N 6.414813e+00 -3.761127e+00 -3.423389e+00 6.515432e-05 -8.203277e-05 -2.830273e-04
N 4.734280e+00 -9.969611e-01 1.787522e+00 -6.387007e-04 7.891870e-04 1.142975e-03
N 4.788659e+00 -9.186084e-01 7.020525e+00 -1.163418e-04 -9.664698e-06 -3.415978e-04
N 4.775238e+00 -9.636650e-01 -3.371431e+00 -1.229270e-04 3.444484e-06 -2.357695e-04
N -3.214269e+00 1.810444e+00 1.837498e+00 -5.725224e-04 2.225340e-04 1.160651e-03
N -3.257926e+00 1.783323e+00 7.019657e+00 -1.928685e-04 -1.333540e-05 -1.222102e-04
N -3.234551e+00 1.804121e+00 -3.367940e+00 -5.883000e-05 7.659945e-05 -5.728316e-05
N -1.691746e-02 -3.680722e+00 1.838991e+00 -4.713613e-04 -5.271276e-04 3.740256e-04
N -5.992567e-02 -3.698016e+00 7.041752e+00 -2.033369e-05 4.315204e-05 -2.226301e-04
N -7.423951e-02 -3.756343e+00 -3.360565e+00 9.438997e-05 2.563946e-05 -2.060689e-04
N -1.570565e+00 -9.851664e-01 1.849096e+00 -8.895264e-04 2.281932e-05 5.314484e-04
N -1.569908e+00 -9.912523e-01 7.010542e+00 -2.696463e-04 -1.358274e-06 -2.680547e-04
N -1.627161e+00 -9.675712e-01 -3.427989e+00 -2.209200e-04 1.526210e-04 -2.151365e-04
