108
Energy=-1855704.188405 Lattice="9.566987 0.000000 0.000000 -4.783820 8.285463 0.000000 0.000788 -0.002199 15.483357" Stress="0.000000 0.000000 -0.000000 -0.000000 0.000000 0.000000 -0.000000 0.000000 -0.000000" Properties=species:S:1:pos:R:3:forces:R:3
Al 1.569780 0.878351 2.446284 -0.000025 0.000038 0.000149
Al 1.555505 0.877452 7.608001 0.000032 -0.000140 -0.000531
Al 1.557289 0.868497 -2.763187 0.000024 0.000019 0.000165
Al -0.029059 3.635465 2.431982 -0.000014 -0.000001 0.000096
Al -0.026584 3.626528 7.606567 -0.000013 -0.000012 0.000043
Ga -0.023451 3.633414 -2.739654 -0.000027 0.000011 0.000054
Al 3.165928 -1.877227 2.447028 -0.000013 -0.000036 0.000121
Al 3.159015 -1.879870 7.599910 -0.000065 0.000045 0.000072
Ga 3.140748 -1.879164 -2.748496 0.000037 -0.000011 0.000074
Al -4.803679 0.879579 2.439996 0.000038 0.000048 0.000102
Ga -4.816542 0.872312 7.577974 -0.000039 -0.000017 -0.000020
Ga -4.810878 0.887902 -2.712285 0.000002 -0.000026 0.000032
Ga -6.402172 3.633502 2.439761 -0.000015 0.000008 0.000013
Al -6.396303 3.646592 7.589419 -0.000033 -0.000051 0.000043
Ga -6.399246 3.648027 -2.726192 0.000026 -0.000021 0.000031
Ga -3.219092 -1.875903 2.438018 0.000014 -0.000016 0.000017
Ga -3.216434 -1.880870 7.575240 -0.000009 -0.000003 0.000006
Ga -3.196333 -1.885261 -2.706834 -0.000024 -0.000007 0.000053
Al -1.617303 0.890172 2.409778 -0.000044 -0.000005 0.000093
Al -1.592046 0.884922 7.602491 -0.000014 0.000012 0.000018
Ga -1.600497 0.877114 -2.712716 -0.000036 0.000001 0.000062
Al -3.203551 3.633690 2.445886 0.000003 -0.000041 0.000117
Ga -3.214488 3.658811 7.597545 0.000009 -0.000008 -0.000014
Ga -3.211277 3.653871 -2.740328 0.000007 0.000006 0.000048
Ga -0.011674 -1.873067 2.446992 -0.000008 0.000011 0.000097
Al -0.011969 -1.885228 7.596516 0.000084 0.000156 -0.000079
Al -0.013535 -1.871026 -2.745383 -0.000007 -0.000031 0.000110
Ga -0.025325 1.799671 5.016893 -0.000002 0.000005 0.000114
Al -0.022324 1.800170 -5.331054 0.000066 0.000050 -0.000070
Ga -0.021518 1.798157 -0.128570 -0.000036 0.000040 0.000057
Ga 3.168758 -3.711925 5.009035 0.000004 0.000001 0.000068
Al 3.163085 -3.717746 -5.341557 0.000011 0.000045 0.000055
Ga 3.168078 -3.730843 -0.109769 -0.000036 -0.000009 -0.000000
Ga 1.583269 -0.965422 5.035619 -0.000035 0.000027 0.000132
Al 1.560386 -0.966631 -5.339014 0.000232 -0.000117 -0.000099
Ga 1.558077 -0.953398 -0.141919 -0.000032 -0.000018 0.000017
Ga 3.167535 1.797235 5.020921 -0.000008 0.000024 0.000084
Ga 3.148775 1.805814 -5.326688 0.000050 0.000043 0.000079
Ga 3.158680 1.799140 -0.130728 -0.000026 0.000042 -0.000030
Ga 6.353112 -3.726974 5.036202 0.000017 -0.000005 0.000034
Ga 6.351887 -3.734528 -5.340170 0.000004 -0.000017 0.000008
Al 6.354539 -3.717274 -0.129234 -0.000011 0.000026 -0.000069
Al 4.747082 -0.959962 5.000711 0.000016 -0.000006 0.000090
Ga 4.743191 -0.970388 -5.309435 -0.000021 -0.000005 0.000002
Ga 4.772310 -0.960052 -0.123402 -0.000018 0.000016 -0.000052
Ga -3.212304 1.797534 4.997131 -0.000012 0.000029 0.000078
Ga -3.195447 1.814610 -5.325097 -0.000025 0.000032 0.000058
Al -3.207507 1.798237 -0.109768 -0.000013 0.000011 -0.000051
Al -0.019964 -3.723543 5.025225 0.000015 -0.000002 0.000111
Al -0.014837 -3.703790 -5.319670 0.000019 -0.000022 0.000110
Ga -0.024061 -3.714632 -0.145982 -0.000029 -0.000009 -0.000008
Ga -1.613751 -0.955583 5.030082 -0.000004 -0.000016 0.000060
Ga -1.589219 -0.957480 -5.323440 -0.000037 0.000004 0.000050
Al -1.615634 -0.962023 -0.144299 -0.000014 -0.000031 -0.000055
N 1.569044 0.875829 4.354522 0.000035 0.000005 -0.000093
N 1.525924 0.856189 -5.957300 -0.000110 -0.000089 0.000633
N 1.566288 0.880068 -0.841600 0.000024 -0.000008 -0.000136
N -0.019431 3.640584 4.341808 0.000009 0.000001 -0.000081
N -0.068782 3.614166 -5.956721 -0.000016 0.000004 0.000003
N 0.013840 3.664723 -0.754216 0.000039 -0.000004 -0.000086
N 3.200840 -1.856979 4.358417 0.000052 0.000004 -0.000088
N 3.124254 -1.900465 -5.957880 -0.000131 0.000076 0.000035
N 3.161289 -1.885731 -0.771976 0.000013 -0.000008 -0.000074
N -4.807448 0.836005 4.361616 0.000008 0.000005 -0.000093
N -4.806475 0.879849 -5.941150 0.000012 -0.000014 -0.000007
N -4.763659 0.908652 -0.734685 0.000041 0.000033 -0.000040
N -6.361285 3.667731 4.415537 0.000047 0.000019 -0.000055
N -6.348880 3.670123 -5.975945 0.000022 0.000035 -0.000049
N -6.442651 3.666135 -0.745644 -0.000001 -0.000007 -0.000057
N -3.247970 -1.860240 4.422178 -0.000029 0.000013 -0.000052
N -3.211881 -1.872710 -5.943717 -0.000005 -0.000003 -0.000013
N -3.169171 -1.906255 -0.719251 0.000031 -0.000015 -0.000032
N -1.614379 0.876925 4.323276 0.000013 -0.000015 -0.000081
N -1.573138 0.905508 -5.970992 0.000002 -0.000034 -0.000021
N -1.657997 0.861099 -0.721254 -0.000010 0.000017 -0.000060
N -3.252872 3.666845 4.368360 -0.000046 0.000008 -0.000090
N -3.217665 3.696481 -5.907201 -0.000040 -0.000011 -0.000046
N -3.207320 3.593831 -0.753690 0.000014 -0.000034 -0.000051
N -0.020294 -1.925825 4.421095 -0.000010 -0.000040 -0.000088
N 0.020357 -1.908810 -5.967537 -0.000022 -0.000006 0.000016
N -0.060525 -1.855433 -0.816362 -0.000010 0.000012 -0.000109
N -0.015717 1.799540 1.858935 0.000068 -0.000023 -0.000068
N -0.021002 1.801232 7.008555 -0.000014 0.000053 -0.000051
N 0.012231 1.778808 -3.404152 0.000005 -0.000007 -0.000093
N 3.164236 -3.721500 1.880810 0.000025 0.000051 -0.000027
N 3.211335 -3.697961 6.998595 0.000042 -0.000010 -0.000037
N 3.170666 -3.721775 -3.424767 -0.000002 -0.000003 -0.000049
N 1.612203 -0.934130 1.841788 0.000042 0.000001 -0.000067
N 1.574896 -0.959378 7.026263 -0.000020 0.000024 0.000029
N 1.525812 -0.937569 -3.402248 -0.000024 0.000036 -0.000141
N 3.162179 1.749771 1.852898 -0.000002 -0.000076 0.000001
N 3.115566 1.822556 7.006886 0.000007 0.000046 -0.000077
N 3.123011 1.780673 -3.343949 -0.000026 -0.000010 -0.000071
N 6.313511 -3.746214 1.786190 -0.000019 -0.000033 0.000086
N 6.349067 -3.778174 7.016831 -0.000010 -0.000024 -0.000059
N 6.354997 -3.722303 -3.370955 0.000002 0.000022 -0.000020
N 4.717744 -0.936865 1.851724 -0.000042 -0.000005 -0.000001
N 4.708387 -0.986751 6.919772 -0.000002 0.000002 -0.000069
N 4.762144 -0.962160 -3.339552 -0.000002 0.000022 -0.000030
N -3.214118 1.804911 1.824558 0.000004 -0.000001 0.000020
N -3.164485 1.778780 6.979988 0.000041 -0.000020 -0.000025
N -3.204946 1.798549 -3.357907 0.000005 0.000008 -0.000021
N 0.022145 -3.742518 1.825314 0.000047 -0.000003 -0.000030
N -0.061974 -3.697948 6.946829 -0.000048 -0.000084 -0.000035
N -0.024635 -3.670055 -3.391216 -0.000017 0.000016 -0.000055
N -1.611314 -0.919015 1.775762 0.000036 0.000017 0.000046
N -1.568858 -0.931554 7.011707 -0.000003 -0.000005 -0.000040
N -1.574655 -0.980456 -3.342783 0.000008 -0.000009 -0.000045
