108
Energy=-1.031745e+06 Lattice="9.475198e+00 0.000000e+00 0.000000e+00 -4.747397e+00 8.199453e+00 0.000000e+00 -2.468111e-03 -7.826263e-03 1.527956e+01" Stress="2.951680e-03 -4.425548e-04 -1.534090e-04 -4.405932e-04 1.801580e-03 -5.139129e-04 -1.478501e-04 -5.202254e-04 7.544298e-03" Properties=species:S:1:pos:R:3:forces:R:3 Config_type=AlGaN_super3_13_1_8.xyz
Al 1.553593e+00 8.736506e-01 2.401108e+00 -3.989811e-04 -1.490460e-03 9.261694e-04
Al 1.542973e+00 8.666413e-01 7.479599e+00 1.258601e-03 6.850448e-04 1.264171e-03
Al 1.531825e+00 8.647776e-01 -2.703785e+00 2.228604e-03 2.056973e-03 2.056756e-03
Al -3.787354e-02 3.572449e+00 2.451891e+00 1.272681e-03 3.019945e-03 -3.884869e-03
Al -2.083881e-02 3.592806e+00 7.481878e+00 4.531721e-04 -3.027277e-04 1.420731e-03
Al -2.756221e-02 3.593371e+00 -2.744215e+00 8.856451e-04 -1.404167e-04 5.610123e-03
Al 3.151335e+00 -1.876377e+00 2.437939e+00 -5.658761e-03 6.092723e-03 -4.328802e-03
Al 3.150786e+00 -1.867293e+00 7.491471e+00 2.086085e-04 4.178836e-04 1.523164e-03
Al 3.135747e+00 -1.855972e+00 -2.734364e+00 2.965684e-03 -2.412987e-04 2.145194e-03
Al -4.770597e+00 8.804211e-01 2.426787e+00 1.162278e-03 3.528958e-03 8.950454e-04
Al -4.768343e+00 8.596961e-01 7.470146e+00 2.833229e-04 5.401115e-04 1.390479e-03
Ga -4.762069e+00 8.701255e-01 -2.703194e+00 3.352552e-04 2.343640e-04 1.944961e-03
Al -6.323743e+00 3.581767e+00 2.430582e+00 -5.686915e-03 3.925729e-03 -6.428532e-04
Al -6.353795e+00 3.605351e+00 7.470931e+00 4.635591e-05 -6.479363e-04 8.450054e-04
Ga -6.351891e+00 3.607514e+00 -2.703495e+00 2.293165e-04 3.839272e-05 1.847922e-03
Ga -3.175640e+00 -1.865848e+00 2.463418e+00 1.087387e-03 4.668308e-05 -1.935637e-03
Al -3.175613e+00 -1.864469e+00 7.479867e+00 3.019301e-04 2.962410e-05 8.690255e-04
Ga -3.182980e+00 -1.856329e+00 -2.741401e+00 -1.500142e-06 -1.805228e-04 1.224368e-03
Al -1.598804e+00 8.905288e-01 2.429435e+00 -3.914474e-04 -6.365206e-03 -1.947936e-03
Al -1.605317e+00 8.685254e-01 7.476474e+00 8.568768e-04 -5.777994e-04 1.778138e-03
Al -1.600838e+00 8.902358e-01 -2.734787e+00 3.319390e-03 1.032221e-03 8.816736e-03
Al -3.185744e+00 3.602142e+00 2.429120e+00 -2.702026e-03 -3.763335e-04 -1.088081e-03
Ga -3.188881e+00 3.607171e+00 7.485217e+00 6.308943e-04 -8.032498e-04 -3.140758e-04
Ga -3.173053e+00 3.607811e+00 -2.713501e+00 3.088140e-04 1.783297e-04 3.881827e-03
Al -1.384954e-02 -1.870358e+00 2.420114e+00 4.366308e-03 6.775348e-04 -1.150319e-03
Al -2.677088e-02 -1.854225e+00 7.492985e+00 -1.612883e-04 -6.158243e-04 2.047997e-03
Ga -7.029750e-03 -1.837742e+00 -2.719063e+00 1.424610e-04 -1.548424e-03 2.846773e-03
Al -3.192231e-02 1.780147e+00 4.954225e+00 8.980312e-04 -6.798660e-04 2.234046e-03
Al -3.562495e-02 1.779595e+00 -5.271013e+00 9.219224e-04 9.485800e-04 1.941024e-03
Al -2.840095e-02 1.775331e+00 -1.423037e-01 -4.607589e-04 5.520100e-04 -1.256574e-03
Al 3.152908e+00 -3.700589e+00 4.953516e+00 -1.206139e-03 1.003104e-03 9.787837e-04
Al 3.145267e+00 -3.685507e+00 -5.267425e+00 5.944837e-03 4.454377e-03 3.478444e-03
Ga 3.135579e+00 -3.689868e+00 -1.189632e-01 5.574140e-04 1.381014e-04 -7.878250e-03
Ga 1.566668e+00 -9.612792e-01 4.957004e+00 -1.631840e-03 1.013783e-03 3.643713e-04
Al 1.566226e+00 -9.526164e-01 -5.276745e+00 -5.802491e-04 3.122232e-04 7.147149e-04
Al 1.560518e+00 -9.427023e-01 -1.379197e-01 -6.222136e-04 5.808347e-04 2.724664e-03
Al 3.132999e+00 1.784806e+00 4.953092e+00 -5.450027e-04 -5.716226e-04 1.385283e-03
Ga 3.126814e+00 1.785098e+00 -5.281000e+00 -4.779108e-04 -2.299979e-04 2.203947e-03
Al 3.124722e+00 1.782842e+00 -1.230465e-01 -1.165294e-03 -8.653205e-04 -1.760491e-03
Al 6.298500e+00 -3.699408e+00 4.972489e+00 7.015824e-04 8.560843e-04 -1.253260e-03
Al 6.292367e+00 -3.677913e+00 -5.283862e+00 4.531655e-04 6.313375e-04 -2.589708e-03
Ga 6.298177e+00 -3.703132e+00 -1.244440e-01 -2.038102e-03 -6.669722e-04 2.148570e-03
Al 4.723029e+00 -9.500149e-01 4.972429e+00 -4.751465e-04 -1.167370e-05 2.934659e-04
Al 4.722158e+00 -9.538441e-01 -5.280400e+00 -4.551505e-04 -3.839478e-04 -3.034241e-03
Ga 4.699833e+00 -9.383618e-01 -1.222598e-01 -7.120255e-04 -1.043013e-04 -2.170541e-03
Al -3.188932e+00 1.778936e+00 4.943431e+00 -5.969646e-04 1.188632e-04 1.108785e-03
Al -3.174131e+00 1.784884e+00 -5.278776e+00 -3.753848e-04 -1.862600e-03 2.970213e-03
Al -3.191577e+00 1.794487e+00 -1.175150e-01 1.456783e-03 -5.278949e-04 -8.558810e-04
Al -2.774824e-02 -3.688165e+00 4.946486e+00 8.059098e-05 4.269285e-04 1.042075e-03
Al -1.487459e-02 -3.670789e+00 -5.287106e+00 -1.964020e-03 2.027938e-03 3.189377e-03
Al -1.775556e-02 -3.684434e+00 -1.117601e-01 5.004573e-04 8.128523e-04 -2.053882e-04
Al -1.597477e+00 -9.444361e-01 4.969025e+00 -4.730829e-04 -7.059558e-04 6.612466e-04
Al -1.596000e+00 -9.323029e-01 -5.279171e+00 -7.212198e-04 -1.617644e-03 -1.991054e-03
Ga -1.586789e+00 -9.268898e-01 -1.276802e-01 -2.015261e-04 1.147433e-03 -2.064628e-03
N 1.550224e+00 9.110563e-01 4.330469e+00 7.168903e-04 1.079696e-03 -1.586330e-03
N 1.507323e+00 8.513378e-01 -5.888827e+00 -2.497743e-05 2.857876e-04 -1.539317e-03
N 1.544376e+00 8.693428e-01 -7.510786e-01 1.515914e-03 8.869296e-04 -1.109768e-03
N -2.475536e-02 3.590622e+00 4.365825e+00 -6.405329e-04 1.630909e-04 -1.094169e-03
N -2.835016e-02 3.599921e+00 -5.873936e+00 -2.919342e-04 -1.664308e-04 -8.061481e-04
N -3.090364e-02 3.553845e+00 -7.994918e-01 8.208536e-04 1.559914e-03 -4.152597e-03
N 3.185539e+00 -1.893094e+00 4.344948e+00 9.696771e-04 -4.328347e-04 -8.842978e-04
N 3.143755e+00 -1.864681e+00 -5.871236e+00 -1.749499e-04 -4.485851e-04 -4.851697e-04
N 3.093908e+00 -1.839908e+00 -7.988148e-01 1.425005e-03 -2.428005e-04 -2.303315e-03
N -4.770534e+00 8.678934e-01 4.356174e+00 8.273717e-04 6.790751e-04 -1.213820e-03
N -4.726666e+00 8.542019e-01 -5.893244e+00 2.256178e-03 1.123276e-03 -1.444977e-03
N -4.766616e+00 9.198307e-01 -7.162139e-01 5.410820e-04 1.978098e-03 -8.926411e-04
N -6.343604e+00 3.597411e+00 4.357122e+00 8.810577e-05 -1.746232e-04 -9.767374e-04
N -6.343569e+00 3.654442e+00 -5.896228e+00 9.077237e-04 4.313151e-04 -1.817444e-03
N -6.304901e+00 3.588080e+00 -7.178277e-01 1.124780e-03 -9.113670e-04 1.178264e-04
N -3.175371e+00 -1.864977e+00 4.430910e+00 2.177931e-05 -3.769425e-04 2.445359e-03
N -3.174175e+00 -1.856430e+00 -5.871988e+00 8.055732e-04 3.203511e-04 -1.815727e-03
N -3.179884e+00 -1.858739e+00 -7.649587e-01 -7.816286e-05 -4.009927e-04 8.563791e-05
N -1.607987e+00 8.753735e-01 4.356656e+00 6.738626e-04 -5.664075e-04 -2.346816e-03
N -1.604880e+00 8.843641e-01 -5.881920e+00 -1.588075e-04 -3.443943e-04 -1.350672e-03
N -1.615673e+00 9.358344e-01 -7.743413e-01 -1.536611e-05 -2.090625e-03 -4.204116e-03
N -3.188752e+00 3.607381e+00 4.359722e+00 6.535125e-04 -1.043426e-03 -1.678597e-03
N -3.170532e+00 3.619577e+00 -5.813485e+00 -5.341052e-03 -3.945906e-03 -2.586888e-03
N -3.230747e+00 3.590873e+00 -7.172780e-01 -9.782397e-04 -1.470390e-03 -1.619231e-03
N -6.071799e-02 -1.882705e+00 4.335404e+00 3.148936e-04 -9.058855e-04 -5.618497e-04
N -1.766833e-02 -1.849545e+00 -5.864554e+00 -2.821969e-04 -1.143338e-03 -1.423788e-03
N 1.711843e-02 -1.876883e+00 -7.243184e-01 7.660425e-04 -2.493009e-03 -1.484667e-03
N -2.855301e-02 1.777920e+00 1.796347e+00 -3.920055e-04 4.564942e-04 5.754448e-04
N -2.887877e-02 1.773320e+00 6.878228e+00 -1.241288e-04 1.075799e-03 -2.160201e-03
N -2.627261e-02 1.778277e+00 -3.334397e+00 8.973977e-04 2.166795e-05 -1.417465e-03
N 3.136974e+00 -3.694738e+00 1.843617e+00 4.446383e-03 1.137359e-03 1.014154e-02
N 3.183554e+00 -3.670200e+00 6.868561e+00 3.477252e-04 9.405302e-04 -1.745815e-03
N 3.187994e+00 -3.661111e+00 -3.338771e+00 -9.348885e-04 1.602052e-03 -1.851418e-03
N 1.558543e+00 -9.469261e-01 1.803125e+00 4.946490e-03 -4.376293e-03 2.249367e-03
N 1.564485e+00 -9.618678e-01 6.938020e+00 -1.610438e-04 1.557537e-04 -1.976518e-03
N 1.604777e+00 -9.221520e-01 -3.349575e+00 -3.575072e-04 1.043717e-03 -1.687064e-03
N 3.132261e+00 1.778241e+00 1.806448e+00 7.268857e-05 2.785784e-04 4.836100e-04
N 3.127723e+00 1.778099e+00 6.883603e+00 -2.754831e-04 -2.804501e-04 -1.614035e-03
N 3.090614e+00 1.761839e+00 -3.307530e+00 -2.232210e-03 -1.380845e-03 3.410634e-04
N 6.282383e+00 -3.734177e+00 1.866964e+00 4.034159e-03 -3.100701e-03 -6.881287e-04
N 6.295607e+00 -3.691485e+00 6.888806e+00 -5.816360e-04 9.894915e-05 -1.021385e-03
N 6.268307e+00 -3.702799e+00 -3.382085e+00 -2.282516e-03 -1.843193e-03 3.512868e-03
N 4.695485e+00 -9.102517e-01 1.848543e+00 -5.214053e-03 -8.556457e-03 2.474204e-03
N 4.717902e+00 -9.544944e-01 6.889311e+00 -9.607596e-04 -6.090703e-04 -1.282065e-03
N 4.686782e+00 -9.611212e-01 -3.384324e+00 -4.395930e-03 -1.624710e-03 5.110446e-03
N -3.184270e+00 1.781577e+00 1.816487e+00 6.112090e-04 1.541159e-04 2.352352e-03
N -3.187626e+00 1.737777e+00 6.860791e+00 -5.414656e-05 -3.452129e-04 -1.615450e-03
N -3.141916e+00 1.760238e+00 -3.354547e+00 -3.089754e-03 1.571273e-03 -5.138409e-03
N -1.619542e-02 -3.687166e+00 1.817270e+00 4.325642e-05 -1.528769e-03 1.590240e-03
N -5.897014e-02 -3.657719e+00 6.865263e+00 -2.117422e-04 2.637455e-04 -1.482913e-03
N -1.921489e-02 -3.676258e+00 -3.374927e+00 4.913200e-05 -1.134326e-04 -2.336780e-03
N -1.553069e+00 -9.471178e-01 1.841401e+00 -3.726487e-03 9.370377e-03 4.263141e-03
N -1.593021e+00 -9.478318e-01 6.892176e+00 -8.629251e-04 -2.568088e-04 -1.426587e-03
N -1.593763e+00 -8.890357e-01 -3.366794e+00 -1.896699e-04 -1.515018e-03 6.592074e-04
