108
Energy=-1535275.829571 Lattice="9.518130 0.000000 0.000000 -4.762089 8.240805 0.000000 0.001868 -0.001870 15.371841" Stress="-0.000019 -0.000000 0.000000 -0.000000 -0.000021 -0.000000 0.000000 -0.000000 -0.000021" Properties=species:S:1:pos:R:3:forces:R:3
Al 1.557266 0.871818 2.426470 -0.000091 0.000043 0.000557
Al 1.562721 0.866720 7.542658 0.000125 -0.000053 0.000215
Al 1.564109 0.872408 -2.728261 0.000109 -0.000008 0.000086
Al -0.028693 3.622940 2.413970 0.000286 0.000715 -0.001543
Al -0.025198 3.621323 7.547818 -0.000288 0.000101 0.000163
Ga -0.014450 3.619115 -2.717855 -0.000087 0.000051 0.000005
Al 3.143104 -1.870743 2.444862 0.000896 -0.002283 0.000855
Ga 3.158840 -1.870783 7.520053 -0.000149 -0.000145 0.000208
Al 3.150491 -1.862620 -2.731649 -0.000136 -0.000002 -0.000062
Ga -4.788066 0.874499 2.427025 0.000075 0.000007 -0.000085
Al -4.769821 0.870159 7.535414 0.000256 -0.000024 0.000026
Ga -4.791385 0.876023 -2.717076 0.000064 -0.000270 0.000239
Al -6.372009 3.626674 2.402852 -0.000139 -0.000057 0.000072
Ga -6.371951 3.621536 7.556973 -0.000131 0.000140 0.000225
Al -6.364483 3.630458 -2.719397 -0.000019 0.000142 0.000105
Ga -3.195120 -1.875738 2.395577 -0.000804 -0.000517 0.000336
Al -3.212798 -1.873618 7.544795 -0.000145 0.000140 0.000211
Ga -3.206699 -1.882099 -2.689998 -0.000061 0.000104 0.000403
Al -1.602270 0.883057 2.427980 0.000227 0.000320 0.000335
Ga -1.621917 0.897721 7.546248 0.000320 -0.000195 0.000241
Ga -1.606447 0.893344 -2.722079 0.000605 -0.000506 -0.000113
Al -3.196037 3.634968 2.429342 0.001420 0.000031 -0.001604
Al -3.191680 3.608271 7.529746 0.000218 0.000089 0.000451
Al -3.213708 3.630756 -2.710804 0.000505 0.000490 -0.000844
Al -0.021162 -1.868164 2.384487 0.003822 -0.001045 0.005471
Ga -0.003421 -1.870690 7.552515 0.000189 -0.000151 0.000132
Ga -0.001941 -1.885536 -2.702226 0.000019 -0.000128 -0.000201
Ga -0.025194 1.795280 4.969932 -0.000049 -0.000229 0.000074
Al -0.014769 1.790807 -5.289351 -0.000180 0.000340 -0.000141
Ga -0.017909 1.786287 -0.117622 -0.000241 0.000406 0.000389
Al 3.150999 -3.704654 4.960514 -0.000839 0.000763 0.002319
Ga 3.142987 -3.709281 -5.277534 -0.000191 0.000018 0.000061
Ga 3.149362 -3.683238 -0.143071 0.000098 -0.000261 0.001409
Al 1.577663 -0.961321 4.954308 -0.000585 0.000083 -0.001018
Al 1.571472 -0.950017 -5.261339 -0.000319 0.000103 0.000181
Ga 1.578032 -0.961053 -0.135194 -0.000186 0.000257 0.000432
Ga 3.151905 1.774388 4.990241 -0.000051 0.000033 0.000264
Ga 3.144455 1.785624 -5.277717 -0.000064 -0.000123 0.000004
Ga 3.141469 1.808272 -0.151669 0.000074 -0.000154 -0.000000
Ga 6.304891 -3.698453 4.978535 0.000345 0.000103 0.000176
Al 6.320555 -3.697364 -5.280744 -0.000346 0.000095 -0.000103
Al 6.339711 -3.694798 -0.137612 0.000135 -0.000144 0.000666
Al 4.731088 -0.956746 4.990077 -0.000242 -0.000009 -0.000220
Al 4.739880 -0.955285 -5.290038 0.000103 -0.000195 -0.000129
Al 4.736435 -0.969338 -0.141837 -0.000204 0.000038 0.000490
Al -3.196294 1.798455 4.974210 -0.000421 0.000004 0.000089
Al -3.209732 1.806729 -5.273607 0.001329 -0.001614 -0.002451
Ga -3.197659 1.798958 -0.131575 0.000025 -0.000365 0.000163
Ga -0.002264 -3.703297 4.957868 0.000045 0.000803 0.000106
Al -0.013510 -3.711250 -5.263672 0.000519 -0.000100 -0.000116
Al -0.032096 -3.705567 -0.136067 -0.001239 0.001231 0.000241
Ga -1.609232 -0.950093 4.977334 0.000532 -0.000320 0.000139
Ga -1.616294 -0.960834 -5.282473 -0.000232 0.000411 -0.000003
Al -1.610884 -0.962625 -0.128390 -0.000445 0.000114 -0.000535
N 1.564976 0.830657 4.329087 0.000086 -0.000108 -0.000092
N 1.521114 0.841997 -5.913387 -0.000043 -0.000053 -0.000085
N 1.556854 0.872672 -0.820910 0.000006 -0.000115 0.000079
N -0.064713 3.647456 4.317718 0.000289 0.000046 0.000682
N 0.012929 3.601863 -5.903761 0.000334 -0.000167 0.000132
N 0.018728 3.645196 -0.741029 0.000118 -0.000049 -0.000138
N 3.159157 -1.872982 4.375967 0.000087 -0.000148 0.000007
N 3.147966 -1.826261 -5.871983 -0.000001 0.000334 0.000042
N 3.193790 -1.843493 -0.819331 0.000076 0.000180 0.000224
N -4.741943 0.848284 4.400992 0.000443 0.000081 -0.000152
N -4.739013 0.852711 -5.910552 -0.000002 -0.000259 0.000238
N -4.781822 0.828976 -0.742477 0.000161 -0.000108 -0.000043
N -6.373847 3.621107 4.314463 -0.000060 -0.000031 -0.000522
N -6.367867 3.672147 -5.847379 -0.000163 0.000237 0.000068
N -6.369029 3.678653 -0.790502 0.000552 0.000266 -0.000008
N -3.236392 -1.846565 4.364059 -0.000352 0.000225 -0.000437
N -3.241351 -1.895674 -5.913796 -0.000236 -0.000129 0.000106
N -3.195168 -1.870870 -0.697277 0.000094 0.000220 0.000251
N -1.652780 0.899919 4.339785 0.000402 -0.000214 -0.000767
N -1.617413 0.931391 -5.851963 -0.000318 -0.000024 0.000661
N -1.610251 0.835412 -0.747826 0.000448 -0.000486 0.000123
N -3.154092 3.599679 4.338855 0.000159 -0.000297 -0.000058
N -3.239569 3.596078 -5.921229 -0.000415 0.001512 -0.000631
N -3.242822 3.652953 -0.794685 0.000317 -0.000490 -0.000173
N 0.017658 -1.846992 4.319273 -0.000704 -0.000071 -0.004106
N 0.028365 -1.896465 -5.842276 0.000172 -0.000239 0.000081
N -0.056773 -1.894250 -0.716637 0.000200 -0.000693 0.000604
N -0.020423 1.790983 1.864106 -0.000222 -0.000601 -0.000343
N 0.021170 1.814327 6.950640 0.000087 0.000335 -0.000263
N 0.021338 1.769685 -3.377428 -0.000143 0.000076 -0.000192
N 3.148893 -3.690696 1.849187 -0.001174 -0.000726 -0.000158
N 3.153539 -3.756862 6.902514 0.000020 -0.000027 -0.001407
N 3.108593 -3.683421 -3.295340 -0.000425 -0.000229 0.000409
N 1.580601 -0.956605 1.851218 -0.002717 0.000719 -0.001157
N 1.567257 -0.911496 6.864999 -0.000276 0.000530 0.000462
N 1.607424 -0.931536 -3.344070 -0.000316 0.000229 0.000108
N 3.103859 1.814709 1.828223 -0.000033 -0.000032 -0.000141
N 3.148894 1.742781 6.973542 0.000126 -0.000226 -0.000191
N 3.107313 1.817898 -3.296739 0.000002 0.000007 0.000152
N 6.325899 -3.752431 1.777710 -0.000188 -0.000325 -0.000176
N 6.281785 -3.682123 6.955109 0.000018 -0.000089 -0.000369
N 6.363968 -3.719218 -3.367326 0.000264 -0.000048 -0.000254
N 4.682411 -0.982910 1.767078 0.000571 0.000662 -0.000680
N 4.779793 -0.933395 6.903140 0.000025 0.000264 0.000089
N 4.705421 -0.979385 -3.376645 -0.000158 0.000126 -0.000198
N -3.157839 1.819733 1.838788 0.000410 0.000749 0.000378
N -3.238672 1.816582 6.893089 -0.000180 0.000110 -0.000355
N -3.203078 1.845446 -3.365361 -0.000046 0.000296 0.001395
N -0.021512 -3.707312 1.797444 0.000125 0.000013 -0.000417
N 0.019578 -3.725589 6.926312 0.000250 -0.000266 0.000066
N -0.018487 -3.749767 -3.348276 -0.000216 -0.000219 0.000237
N -1.564592 -0.925333 1.791293 -0.001457 0.000962 -0.001677
N -1.644214 -0.978845 6.956033 -0.000369 -0.000051 0.000063
N -1.610240 -0.961514 -3.319694 -0.000084 0.000064 0.000158
