108
Energy=-2.359235e+06 Lattice="9.639688e+00 0.000000e+00 0.000000e+00 -4.830190e+00 8.346919e+00 0.000000e+00 -4.754951e-03 2.537715e-02 1.562056e+01" Stress="1.060441e-03 -3.590543e-05 -2.722360e-04 -3.901315e-05 1.445439e-03 1.006454e-03 -2.848458e-04 1.006514e-03 1.270752e-03" Properties=species:S:1:pos:R:3:forces:R:3 Config_type=AlGaN_super3_42_1_19.xyz
Al 1.574032e+00 8.992639e-01 2.431409e+00 -1.545648e-03 9.506139e-04 -3.273061e-03
Al 1.573542e+00 9.102779e-01 7.650601e+00 2.385266e-04 -9.208186e-05 1.101298e-03
Ga 1.575913e+00 8.822968e-01 -2.720195e+00 2.294556e-04 -6.226553e-04 1.635853e-03
Al -4.871322e-02 3.657571e+00 2.457743e+00 1.464897e-02 -9.450082e-04 -2.893714e-02
Al -1.937565e-02 3.676913e+00 7.657782e+00 1.137850e-04 -4.271026e-04 4.363495e-03
Ga -2.450818e-02 3.666330e+00 -2.724049e+00 2.335053e-04 -6.223475e-06 2.398709e-03
Ga 3.191293e+00 -1.908098e+00 2.442775e+00 -1.076123e-03 8.397200e-04 -3.549595e-03
Ga 3.190559e+00 -1.888856e+00 7.656673e+00 2.013176e-04 2.604874e-04 1.034920e-03
Ga 3.185694e+00 -1.910869e+00 -2.724711e+00 -8.147319e-05 -2.582548e-04 6.729440e-04
Ga -4.863412e+00 8.957261e-01 2.462031e+00 2.805254e-04 -1.381255e-04 -2.160504e-03
Ga -4.862323e+00 9.047584e-01 7.662332e+00 4.773046e-04 -2.120255e-04 3.359125e-04
Ga -4.845937e+00 8.947906e-01 -2.742659e+00 4.136312e-04 -5.262521e-04 -1.951152e-05
Al -6.467665e+00 3.669486e+00 2.433232e+00 -1.736931e-03 9.949792e-04 -3.879103e-03
Ga -6.479279e+00 3.677735e+00 7.665463e+00 3.018364e-04 -1.129064e-04 1.231370e-03
Ga -6.453646e+00 3.673470e+00 -2.737415e+00 -2.366136e-04 3.632769e-04 1.091920e-03
Ga -3.233585e+00 -1.920293e+00 2.454704e+00 8.038770e-04 -1.620901e-03 -4.400303e-03
Ga -3.240050e+00 -1.900014e+00 7.668167e+00 3.915654e-04 4.685042e-04 8.246246e-04
Ga -3.231029e+00 -1.915331e+00 -2.741434e+00 2.492736e-04 -3.385459e-04 1.736052e-03
Ga -1.615045e+00 9.006986e-01 2.446324e+00 2.009380e-03 -3.672584e-04 -2.496784e-03
Ga -1.623864e+00 9.153191e-01 7.660640e+00 8.549003e-04 -8.024162e-04 3.594354e-04
Ga -1.629754e+00 9.005616e-01 -2.735520e+00 1.163116e-03 -6.611066e-04 3.489295e-04
Ga -3.236819e+00 3.679881e+00 2.439320e+00 -7.974435e-04 1.970647e-04 -3.414932e-03
Ga -3.236733e+00 3.687303e+00 7.656755e+00 3.714149e-04 -3.557038e-04 9.712665e-04
Al -3.240562e+00 3.675106e+00 -2.724167e+00 3.242456e-04 1.081077e-04 2.152254e-04
Ga -1.509361e-02 -1.897850e+00 2.429484e+00 1.309999e-03 1.447665e-05 -1.011069e-03
Ga -1.879519e-02 -1.873750e+00 7.658966e+00 4.300491e-04 4.925152e-07 1.116254e-03
Ga -7.416460e-03 -1.907357e+00 -2.717223e+00 7.009620e-04 1.997745e-05 1.384372e-03
Ga -1.333952e-02 1.837760e+00 5.033047e+00 -1.021549e-03 -2.355035e-03 2.661718e-03
Ga -8.676204e-03 1.819555e+00 -5.371882e+00 -7.248658e-04 1.144047e-04 2.036142e-03
Al -1.328827e-02 1.829523e+00 -1.351973e-01 1.228537e-04 5.401758e-04 6.398840e-03
Ga 3.215418e+00 -3.756354e+00 5.033246e+00 -2.206489e-03 9.011868e-04 3.539548e-03
Ga 3.212478e+00 -3.768199e+00 -5.345859e+00 -4.348581e-04 7.712128e-05 1.809506e-03
Al 3.196721e+00 -3.756572e+00 -1.597478e-01 1.605929e-03 -1.555655e-04 5.809589e-03
Ga 1.585972e+00 -9.514113e-01 5.045270e+00 -1.178228e-03 8.821700e-04 5.890394e-04
Ga 1.591409e+00 -9.698541e-01 -5.356492e+00 -9.118505e-04 6.758465e-04 1.023075e-03
Al 1.586320e+00 -9.726022e-01 -1.316540e-01 -4.842786e-04 1.252149e-03 1.124426e-03
Ga 3.167405e+00 1.827943e+00 5.034642e+00 5.149448e-04 -4.356543e-04 8.033371e-04
Ga 3.172157e+00 1.812772e+00 -5.355182e+00 -1.248056e-04 -1.575648e-04 1.104791e-03
Ga 3.170661e+00 1.829262e+00 -1.289913e-01 -1.045463e-03 -4.395733e-04 3.101430e-03
Ga 6.394513e+00 -3.758865e+00 5.020474e+00 2.027889e-03 9.211082e-04 2.570589e-03
Al 6.401319e+00 -3.764444e+00 -5.359741e+00 -2.802179e-04 -2.361141e-05 1.869556e-03
Al 6.410899e+00 -3.761016e+00 -1.340842e-01 -1.575528e-03 -3.268244e-04 7.957936e-03
Ga 4.798119e+00 -9.651448e-01 5.057807e+00 1.603142e-04 1.065178e-03 -2.936327e-05
Ga 4.806701e+00 -9.867723e-01 -5.344217e+00 -4.597145e-04 4.337662e-04 1.778407e-04
Ga 4.792943e+00 -9.812383e-01 -1.503203e-01 1.295731e-04 -7.059837e-04 5.141789e-03
Ga -3.241690e+00 1.828462e+00 5.052436e+00 -3.565101e-04 -1.085763e-03 1.640418e-05
Ga -3.240027e+00 1.817331e+00 -5.334222e+00 -5.680127e-05 -8.642409e-05 8.499806e-04
Ga -3.229436e+00 1.841970e+00 -1.656278e-01 -7.351899e-05 -9.484126e-04 6.297218e-03
Ga -2.984343e-02 -3.743163e+00 5.037310e+00 -4.551603e-04 -6.591700e-05 1.063255e-03
Ga -2.325994e-02 -3.758503e+00 -5.336747e+00 -4.079271e-05 4.895851e-05 1.256243e-03
Al -1.171708e-02 -3.748298e+00 -1.502999e-01 -3.687574e-04 4.487928e-04 1.534562e-03
Ga -1.626266e+00 -9.610130e-01 5.051462e+00 -5.459992e-04 6.503363e-04 6.947218e-04
Ga -1.628570e+00 -9.839640e-01 -5.341377e+00 -4.859708e-04 5.912334e-04 4.788610e-04
Ga -1.611714e+00 -9.697096e-01 -1.400498e-01 -7.498619e-04 -4.137542e-04 -2.010760e-03
N 1.570584e+00 8.930900e-01 4.347452e+00 9.564680e-04 -2.059253e-04 1.906995e-03
N 1.581707e+00 8.787564e-01 -6.046851e+00 3.954561e-04 -6.786511e-04 -1.720820e-03
N 1.539942e+00 8.647613e-01 -7.295624e-01 -2.947436e-04 -1.016235e-03 -5.457440e-04
N -2.951506e-02 3.672275e+00 4.289302e+00 -1.078145e-03 7.565891e-05 2.821570e-02
N 1.484729e-02 3.686473e+00 -6.023447e+00 4.228684e-04 2.391676e-04 -2.270280e-03
N -1.900558e-02 3.672041e+00 -7.140795e-01 -3.219305e-04 -2.870931e-05 -4.409021e-03
N 3.187793e+00 -1.893782e+00 4.417860e+00 6.162885e-04 -6.563362e-04 1.462967e-03
N 3.195532e+00 -1.909512e+00 -5.979938e+00 3.399493e-05 -3.010965e-04 -1.364380e-03
N 3.150089e+00 -1.918552e+00 -7.352498e-01 -8.484614e-04 -1.510418e-03 8.427575e-04
N -4.853261e+00 8.955922e-01 4.434270e+00 2.585378e-04 1.724138e-05 3.666077e-04
N -4.847400e+00 8.813307e-01 -5.973723e+00 3.558775e-04 -2.360653e-04 -4.315231e-04
N -4.851229e+00 8.927521e-01 -7.700208e-01 3.215638e-04 -1.309496e-04 5.481512e-04
N -6.459057e+00 3.679340e+00 4.352476e+00 1.681096e-04 -2.128782e-04 1.480308e-03
N -6.495979e+00 3.687240e+00 -5.961470e+00 -3.811384e-05 4.166451e-04 -1.616692e-03
N -6.454837e+00 3.717843e+00 -7.438521e-01 2.936658e-05 1.327004e-03 -2.713817e-04
N -3.232953e+00 -1.893422e+00 4.422702e+00 -7.433827e-04 -1.414320e-04 1.509926e-03
N -3.231275e+00 -1.954611e+00 -5.961537e+00 3.970501e-04 -3.720474e-04 -1.131528e-03
N -3.230992e+00 -1.947014e+00 -7.542424e-01 6.694685e-04 -1.098717e-03 -1.197544e-03
N -1.629673e+00 8.993387e-01 4.423060e+00 6.409195e-04 7.178303e-04 1.452600e-03
N -1.635248e+00 8.835197e-01 -5.974887e+00 1.072193e-03 -5.550909e-04 -9.063678e-04
N -1.584515e+00 9.208655e-01 -7.537313e-01 1.001382e-03 -5.773569e-04 7.169078e-05
N -3.243481e+00 3.685099e+00 4.412631e+00 1.096334e-03 -1.614060e-04 1.248103e-03
N -3.241428e+00 3.666974e+00 -5.983058e+00 4.738549e-04 2.493300e-04 -1.368029e-03
N -3.241825e+00 3.723049e+00 -7.962292e-01 7.001775e-04 1.408068e-03 1.421700e-03
N -2.076973e-02 -1.886246e+00 4.411243e+00 9.935305e-04 -4.022088e-04 -2.042355e-04
N -1.997526e-02 -1.903328e+00 -5.979674e+00 7.144603e-04 -3.571302e-04 -1.067455e-03
N 2.667481e-02 -1.917783e+00 -7.266561e-01 6.574828e-04 -6.850029e-04 -1.094809e-03
N 1.522129e-02 1.845227e+00 1.808395e+00 -5.331265e-04 -2.453191e-03 -2.896847e-03
N 1.798573e-02 1.859429e+00 7.049523e+00 -1.413582e-04 2.050205e-04 -2.945503e-03
N -1.542775e-02 1.815027e+00 -3.383161e+00 -7.494657e-04 3.246799e-04 -1.770151e-03
N 3.256076e+00 -3.787374e+00 1.792888e+00 -9.782713e-03 4.201208e-03 -7.189105e-03
N 3.246809e+00 -3.769988e+00 7.036836e+00 -4.327337e-04 1.379928e-04 -3.137845e-03
N 3.162376e+00 -3.785294e+00 -3.346774e+00 -4.297716e-04 2.775912e-04 -1.571317e-03
N 1.591702e+00 -9.215712e-01 1.791316e+00 7.799285e-05 2.412907e-04 -5.743819e-04
N 1.588127e+00 -9.041029e-01 7.036159e+00 -7.033956e-04 2.931799e-04 -5.862299e-04
N 1.591034e+00 -9.697839e-01 -3.373743e+00 -6.651399e-04 4.508197e-04 -1.039207e-03
N 3.141703e+00 1.838557e+00 1.864833e+00 1.152569e-03 6.986832e-04 -2.153378e-03
N 3.138281e+00 1.808847e+00 7.031660e+00 -4.409070e-04 -7.877646e-05 -9.498523e-04
N 3.178041e+00 1.811931e+00 -3.369563e+00 3.689541e-05 1.468638e-04 -1.138307e-03
N 6.407381e+00 -3.798058e+00 1.812891e+00 -1.882392e-03 -1.885327e-03 -2.663390e-03
N 6.359667e+00 -3.766873e+00 7.023065e+00 -2.131000e-04 -3.283466e-04 -3.612952e-03
N 6.404522e+00 -3.761912e+00 -3.430288e+00 -2.344586e-06 4.338422e-05 -1.818827e-03
N 4.802129e+00 -9.722555e-01 1.840211e+00 -5.185168e-04 2.054765e-03 -4.945830e-03
N 4.800614e+00 -9.564279e-01 7.033806e+00 -6.651636e-04 -1.523455e-04 -1.926901e-04
N 4.799579e+00 -9.759558e-01 -3.361457e+00 -4.280594e-04 4.233441e-04 -6.490392e-04
N -3.240614e+00 1.814703e+00 1.831364e+00 -7.479742e-04 8.474130e-04 -5.428057e-03
N -3.243780e+00 1.828418e+00 7.028368e+00 -2.588115e-04 3.365903e-04 -3.581948e-04
N -3.237377e+00 1.866004e+00 -3.344094e+00 -4.057316e-04 4.195118e-04 -3.314154e-04
N -5.528865e-02 -3.773422e+00 1.780510e+00 -1.506636e-04 -1.827492e-03 -1.043175e-03
N -2.923990e-02 -3.739378e+00 7.022630e+00 -1.160315e-05 -6.426100e-05 -6.546290e-04
N 2.442583e-02 -3.776668e+00 -3.346791e+00 1.877946e-04 -3.926778e-04 -1.044201e-03
N -1.627856e+00 -9.699999e-01 1.818509e+00 -1.029148e-03 2.038533e-03 3.094009e-03
N -1.632418e+00 -9.534819e-01 7.031183e+00 -4.782056e-04 2.436400e-04 2.825418e-05
N -1.619297e+00 -9.723620e-01 -3.355112e+00 -6.892278e-04 5.411415e-04 -9.062789e-04
