108
Energy=-1443724.471855 Lattice="9.533238 0.000000 0.000000 -4.779747 8.235294 0.000000 -0.024380 0.019507 15.410404" Stress="0.000024 -0.000005 -0.000001 -0.000005 0.000003 0.000005 -0.000001 0.000006 0.000046" Properties=species:S:1:pos:R:3:forces:R:3
Al 1.596833 0.906582 2.456867 -0.017635 -0.007729 -0.001833
Al 1.535548 0.871640 7.529918 0.002418 0.003324 -0.000065
Al 1.569891 0.876957 -2.734799 0.000407 -0.001892 0.003409
Al 0.007435 3.630532 2.444487 -0.016175 -0.006702 0.000510
Al -0.057259 3.605673 7.534868 -0.000623 0.000422 0.000452
Al -0.003965 3.608220 -2.713618 -0.000740 -0.000971 0.002715
Al 3.223677 -1.844169 2.455919 -0.024240 -0.009159 -0.001528
Ga 3.130084 -1.857761 7.559280 0.000897 -0.004325 0.001012
Ga 3.173507 -1.857191 -2.739208 -0.000897 0.000261 0.001880
Ga -4.827524 0.868933 2.399374 0.006442 0.004710 0.006219
Al -4.803979 0.882163 7.559248 0.000536 0.004756 0.002519
Al -4.796867 0.865588 -2.731916 0.000234 0.000523 0.002676
Ga -6.414540 3.600659 2.376839 0.005775 0.003837 0.007090
Ga -6.390186 3.621216 7.575808 0.000241 0.000790 -0.001066
Al -6.382023 3.622965 -2.715633 0.000295 -0.000850 0.000875
Ga -3.210482 -1.864712 2.372549 0.005461 0.000142 0.007089
Ga -3.200104 -1.840322 7.574359 0.002098 -0.002271 0.001751
Al -3.180143 -1.868464 -2.716332 -0.001735 -0.001124 0.000241
Al -1.623551 0.873756 2.448639 0.003391 0.001784 0.003055
Al -1.626151 0.883066 7.534527 -0.000861 0.000813 0.001454
Ga -1.615036 0.855109 -2.732865 0.002904 0.000195 0.000863
Ga -3.199944 3.623798 2.447249 0.001117 0.001359 0.002282
Al -3.213744 3.594199 7.614673 -0.003430 0.008389 -0.024017
Ga -3.223301 3.621520 -2.726916 0.001949 -0.000340 0.002628
Ga -0.031311 -1.843243 2.409775 0.004969 -0.000926 0.007007
Al -0.022892 -1.829326 7.549899 -0.001505 -0.002653 0.003342
Al -0.015828 -1.868033 -2.695497 -0.000713 0.001890 -0.007640
Al -0.048588 1.773583 4.982962 -0.000250 0.002006 0.000923
Ga -0.017707 1.760356 -5.319030 -0.001965 0.001316 0.003429
Ga 0.000734 1.782450 -0.111589 -0.003485 0.002159 0.000217
Al 3.143614 -3.714661 4.994519 0.000573 0.002777 0.002988
Ga 3.166349 -3.715542 -5.298734 0.000594 0.000772 0.001448
Ga 3.190806 -3.693347 -0.108152 -0.001144 -0.000582 -0.002814
Al 1.557815 -0.939040 4.989452 -0.003073 -0.003559 -0.001195
Al 1.577256 -0.955608 -5.300091 -0.002516 -0.002798 0.003445
Ga 1.589655 -0.946322 -0.121544 -0.001603 0.000285 0.000520
Al 3.123388 1.777680 5.006036 0.000439 0.001419 0.005239
Ga 3.170835 1.764864 -5.288581 -0.001626 0.000565 0.002309
Al 3.154352 1.787316 -0.197133 -0.001323 0.001578 -0.003864
Ga 6.310144 -3.711310 5.000348 0.000510 0.001585 0.002258
Ga 6.355752 -3.690760 -5.267686 -0.002410 -0.000150 0.001705
Al 6.354313 -3.693973 -0.182134 -0.001161 -0.000346 -0.006758
Ga 4.731283 -0.938588 5.000091 -0.000858 -0.001128 0.002258
Al 4.772586 -0.939883 -5.282264 -0.001994 -0.003173 0.001970
Al 4.762405 -0.946990 -0.171692 -0.000263 -0.002260 -0.004554
Al -3.207801 1.797293 5.019872 -0.004141 -0.002787 -0.000636
Al -3.220659 1.776967 -5.290359 0.005481 -0.002298 -0.006839
Ga -3.219056 1.779546 -0.146997 0.001698 0.001559 0.000855
Ga -0.028212 -3.692781 5.017374 0.000414 0.001480 0.001622
Al -0.009057 -3.670133 -5.289971 0.004519 -0.000786 0.001031
Al -0.026814 -3.688850 -0.158389 -0.001109 -0.001000 -0.001945
Al -1.613290 -0.932350 4.993372 -0.000756 -0.001464 0.003625
Al -1.569476 -0.951561 -5.299716 -0.006240 -0.000971 0.003290
Al -1.604245 -0.951330 -0.159965 -0.002751 -0.002672 -0.001107
N 1.550130 0.879566 4.389819 0.002668 0.002476 -0.002229
N 1.573596 0.816915 -5.964376 0.002396 0.002004 0.000046
N 1.595525 0.890460 -0.811659 0.002252 0.000804 -0.001930
N -0.083313 3.594190 4.370001 0.001749 0.000041 -0.002500
N -0.014712 3.608027 -5.961415 0.001644 0.000614 -0.002632
N 0.012765 3.631081 -0.791823 0.001618 0.000466 -0.001679
N 3.115089 -1.887661 4.382029 0.000623 -0.000734 -0.002247
N 3.169673 -1.833747 -5.866175 0.001691 0.002358 0.001636
N 3.203355 -1.845682 -0.758702 0.000991 -0.000076 -0.001500
N -4.830516 0.923359 4.396049 0.006546 0.003883 -0.001724
N -4.754885 0.843151 -5.920796 0.002160 0.002129 -0.003779
N -4.824668 0.850376 -0.797613 -0.001048 0.000667 -0.002149
N -6.404702 3.574221 4.389854 0.000370 -0.001718 -0.006601
N -6.327389 3.638843 -5.864199 -0.002117 -0.001078 -0.000783
N -6.372901 3.623818 -0.774505 0.000105 -0.000188 -0.001758
N -3.175921 -1.843689 4.381049 0.001805 -0.000142 -0.005576
N -3.183971 -1.821165 -5.858081 0.003757 0.000033 -0.000681
N -3.187237 -1.857937 -0.769531 0.000428 -0.000589 -0.001648
N -1.640358 0.873818 4.391019 -0.000178 0.001249 -0.002092
N -1.647656 0.849806 -5.953608 -0.002666 0.000054 0.006748
N -1.613423 0.839811 -0.754348 0.002083 0.000338 -0.002085
N -3.189996 3.602490 4.430154 -0.000226 -0.001681 -0.003058
N -3.237805 3.592016 -5.938945 -0.004269 -0.000816 0.017961
N -3.236243 3.649890 -0.744403 -0.000692 0.000435 -0.000233
N -0.047245 -1.821229 4.399576 0.004086 0.001626 -0.000208
N 0.000663 -1.854045 -5.916106 -0.000044 -0.002292 -0.001649
N -0.049341 -1.875942 -0.774984 0.001184 -0.001501 -0.000506
N -0.050290 1.792577 1.896734 0.012547 -0.000094 -0.002493
N -0.042384 1.783611 6.926298 0.000220 0.001430 -0.002407
N 0.019315 1.796601 -3.326350 -0.001157 0.003020 -0.001089
N 3.206455 -3.678781 1.873274 0.005462 0.005298 -0.000572
N 3.139599 -3.744361 6.927165 -0.000465 -0.000577 0.001706
N 3.208732 -3.734359 -3.324886 0.000360 -0.000965 -0.000757
N 1.609426 -0.915869 1.871092 0.008654 -0.000532 -0.001905
N 1.526461 -0.925527 6.920301 -0.001990 0.000371 -0.005490
N 1.535804 -0.929594 -3.366170 -0.002299 -0.001835 0.000882
N 3.100938 1.761121 1.712416 0.001450 0.001703 0.004862
N 3.137580 1.750535 6.938885 -0.000193 -0.001445 -0.002445
N 3.156812 1.780690 -3.297265 0.000249 0.002705 0.001913
N 6.290899 -3.724452 1.722696 0.002460 0.001986 0.006794
N 6.285255 -3.713305 6.972943 -0.000742 0.000327 -0.001497
N 6.343650 -3.704233 -3.278797 0.000172 0.000449 0.001871
N 4.707818 -0.972103 1.735367 0.003513 0.002273 0.003911
N 4.735403 -0.902731 6.968236 -0.001423 -0.001078 -0.002298
N 4.800428 -0.928435 -3.354715 0.001459 -0.001628 -0.001367
N -3.169994 1.766358 1.833709 -0.004296 -0.001539 -0.001269
N -3.217867 1.786310 6.956835 -0.001812 0.001043 -0.002947
N -3.242613 1.761237 -3.381377 -0.000993 0.000975 0.000147
N -0.021432 -3.695453 1.756751 -0.001138 -0.000800 -0.000566
N -0.002678 -3.643511 6.990100 0.007253 -0.007952 0.003316
N -0.053128 -3.668973 -3.350264 0.000178 0.000291 -0.003003
N -1.609286 -0.900763 1.756534 -0.003541 0.000503 -0.000861
N -1.579503 -0.921030 6.924160 -0.000358 -0.000149 -0.002459
N -1.601514 -1.017281 -3.360294 0.003374 0.002076 -0.001462
