108
Energy=-9.859700e+05 Lattice="9.460872e+00 0.000000e+00 0.000000e+00 -4.732870e+00 8.189085e+00 0.000000e+00 4.866862e-05 -2.282410e-03 1.523774e+01" Stress="3.696934e-04 -1.124376e-04 -1.213622e-04 -1.207818e-04 -4.878930e-04 -1.810707e-04 -1.016934e-04 -1.749207e-04 1.236495e-03" Properties=species:S:1:pos:R:3:forces:R:3 Config_type=AlGaN_super3_12_1_33.xyz
Al 1.564057e+00 8.680489e-01 2.384584e+00 -4.765923e-05 -5.509672e-05 -3.079059e-05
Al 1.547774e+00 8.716078e-01 7.497028e+00 -8.018879e-06 -2.634563e-05 -2.045986e-05
Al 1.554337e+00 8.606505e-01 -2.710317e+00 -5.567322e-05 1.767994e-06 -7.148307e-05
Al -1.257702e-02 3.604509e+00 2.433935e+00 -9.017711e-05 1.685800e-04 -6.545010e-07
Al -9.915658e-03 3.596902e+00 7.460147e+00 8.107958e-05 -2.425550e-05 -3.343842e-05
Al -2.819769e-02 3.589384e+00 -2.715020e+00 3.611282e-05 -1.013623e-05 -2.011843e-05
Al 3.134344e+00 -1.848796e+00 2.379838e+00 -5.617257e-05 -4.743236e-06 -4.418795e-05
Al 3.134669e+00 -1.852583e+00 7.489010e+00 8.200483e-05 -2.389190e-04 -1.080412e-04
Al 3.122751e+00 -1.843734e+00 -2.691696e+00 2.486429e-05 -1.998027e-05 -1.553106e-04
Al -4.762463e+00 8.656980e-01 2.372069e+00 1.098443e-04 4.382797e-05 -8.714134e-05
Al -4.751477e+00 8.650435e-01 7.500861e+00 -6.610254e-05 1.896173e-05 4.349919e-05
Al -4.758459e+00 8.676775e-01 -2.698865e+00 -4.655797e-05 6.931180e-05 -2.709070e-05
Al -6.332531e+00 3.598506e+00 2.390793e+00 1.476033e-04 8.794360e-05 -1.582961e-04
Al -6.338508e+00 3.607485e+00 7.484622e+00 8.804753e-06 1.067206e-04 5.588937e-05
Ga -6.326774e+00 3.589937e+00 -2.698819e+00 -1.226050e-05 -6.640856e-06 1.919870e-05
Al -3.174491e+00 -1.859146e+00 2.394631e+00 1.147005e-04 5.960124e-05 -6.492093e-05
Al -3.169456e+00 -1.862695e+00 7.481834e+00 -1.720783e-05 -4.873005e-05 6.668378e-06
Ga -3.181714e+00 -1.847250e+00 -2.702892e+00 -1.852713e-05 -9.926587e-06 -1.864268e-05
Ga -1.602055e+00 8.594789e-01 2.406698e+00 -4.153263e-06 -3.980640e-05 -3.674376e-05
Al -1.595257e+00 8.624853e-01 7.473183e+00 -4.543503e-05 3.195842e-05 -2.092285e-05
Al -1.597987e+00 8.739061e-01 -2.707526e+00 3.345502e-05 -3.660456e-05 -1.050775e-04
Ga -3.187201e+00 3.602112e+00 2.408555e+00 -3.133736e-05 1.839213e-05 3.598180e-05
Ga -3.183370e+00 3.598438e+00 7.469211e+00 4.217589e-05 -3.926573e-05 -3.298308e-05
Al -3.181638e+00 3.595897e+00 -2.696650e+00 1.367110e-04 1.240159e-05 -5.285329e-05
Al -2.647680e-02 -1.858971e+00 2.380879e+00 1.147781e-04 -3.144116e-05 -3.380967e-05
Al -3.071740e-02 -1.855308e+00 7.486991e+00 2.498807e-05 4.233962e-05 5.168826e-05
Al -9.226083e-03 -1.848854e+00 -2.698302e+00 -7.203807e-06 -1.044917e-05 3.361498e-05
Al -2.833470e-02 1.785838e+00 4.949755e+00 1.228289e-06 4.335408e-05 -1.039735e-05
Al -2.113023e-02 1.773088e+00 -5.233782e+00 -2.204279e-05 1.001009e-04 -2.634809e-05
Ga -1.993781e-02 1.767129e+00 -1.575096e-01 2.822574e-06 1.987632e-05 -2.309383e-05
Al 3.140932e+00 -3.684341e+00 4.942525e+00 2.834122e-05 -8.909235e-06 -4.502420e-05
Ga 3.137933e+00 -3.675130e+00 -5.215542e+00 -1.613034e-05 1.517793e-05 -1.638708e-05
Ga 3.124520e+00 -3.673276e+00 -1.611010e-01 -2.829601e-05 1.709850e-07 1.143396e-06
Ga 1.540222e+00 -9.574982e-01 4.941249e+00 -2.370553e-05 -8.146169e-06 -5.556059e-05
Al 1.547799e+00 -9.430252e-01 -5.228473e+00 -8.544706e-05 3.045870e-05 -1.040012e-05
Al 1.552580e+00 -9.476888e-01 -1.584135e-01 -7.615842e-05 -1.197437e-07 2.794689e-05
Ga 3.134526e+00 1.794081e+00 4.944764e+00 4.708450e-06 -3.555241e-05 6.608053e-06
Al 3.131356e+00 1.777986e+00 -5.242747e+00 -1.345449e-05 2.705601e-05 -1.684647e-04
Al 3.142226e+00 1.764212e+00 -1.478639e-01 4.761613e-05 1.954001e-04 -2.686807e-05
Al 6.292288e+00 -3.676826e+00 4.933523e+00 -3.952483e-05 4.929928e-05 1.961737e-05
Al 6.292046e+00 -3.679173e+00 -5.252638e+00 4.053533e-05 3.960047e-05 -1.230027e-04
Ga 6.290460e+00 -3.675893e+00 -1.207729e-01 4.196066e-05 5.912458e-06 -4.026976e-05
Ga 4.722905e+00 -9.525131e-01 4.941702e+00 -5.607497e-05 -2.545068e-05 -3.233502e-05
Al 4.709313e+00 -9.387488e-01 -5.239814e+00 2.747140e-05 -7.320337e-06 -2.054746e-05
Al 4.703154e+00 -9.300947e-01 -1.440413e-01 5.799241e-05 2.301014e-05 -1.545758e-05
Al -3.171033e+00 1.776416e+00 4.953191e+00 -1.158173e-04 1.158283e-04 1.101950e-04
Al -3.179736e+00 1.766463e+00 -5.218426e+00 -3.389681e-07 -6.038927e-06 -2.887484e-05
Al -3.192929e+00 1.770033e+00 -1.791602e-01 -4.733805e-05 -1.529206e-05 -3.903464e-05
Al -3.384865e-02 -3.670045e+00 4.938173e+00 3.016628e-04 -2.084091e-04 -3.028349e-04
Al -3.219597e-02 -3.669459e+00 -5.226015e+00 -5.115988e-05 2.504191e-05 8.361863e-05
Al -1.952297e-02 -3.672112e+00 -1.540674e-01 -4.285613e-06 -3.927757e-05 -5.228065e-05
Al -1.596527e+00 -9.561431e-01 4.951729e+00 -5.159660e-05 -1.478003e-04 -8.652415e-05
Al -1.593211e+00 -9.457896e-01 -5.242417e+00 -5.535181e-05 -7.576275e-06 1.350060e-05
Al -1.593109e+00 -9.487420e-01 -1.578851e-01 4.400825e-05 -1.594794e-04 3.309338e-05
N 1.516191e+00 8.932923e-01 4.296195e+00 1.041243e-04 1.281553e-05 1.558111e-05
N 1.549128e+00 8.710837e-01 -5.826826e+00 5.137787e-05 -9.602491e-06 8.571783e-06
N 1.597775e+00 8.464175e-01 -7.874957e-01 2.405338e-05 -6.136862e-05 2.965733e-06
N -2.108258e-02 3.598358e+00 4.352489e+00 2.677112e-05 1.045152e-05 3.473956e-05
N 1.498737e-02 3.574855e+00 -5.863295e+00 -4.286180e-05 -1.245773e-04 1.600618e-04
N -1.621668e-02 3.599218e+00 -8.193178e-01 2.210985e-05 -6.584525e-07 5.207199e-05
N 3.131998e+00 -1.900344e+00 4.290533e+00 1.691735e-05 -9.136283e-06 7.251341e-05
N 3.128456e+00 -1.812331e+00 -5.843157e+00 1.205432e-05 2.313445e-06 4.087280e-05
N 3.132693e+00 -1.804420e+00 -7.741210e-01 -6.718225e-05 9.488757e-07 1.321831e-04
N -4.711509e+00 8.957544e-01 4.282851e+00 2.146436e-05 6.119422e-06 7.091312e-05
N -4.748331e+00 8.747123e-01 -5.828948e+00 -4.174452e-06 -1.781237e-05 3.574853e-05
N -4.759199e+00 8.671351e-01 -7.740564e-01 -1.487432e-05 2.083198e-05 3.516080e-05
N -6.327592e+00 3.644741e+00 4.306092e+00 -2.400797e-05 -2.688676e-05 2.107748e-04
N -6.327142e+00 3.603933e+00 -5.834459e+00 -3.832073e-06 5.661164e-06 8.223587e-06
N -6.293187e+00 3.573752e+00 -7.232860e-01 1.328614e-05 -1.112053e-04 3.800374e-05
N -3.130487e+00 -1.877586e+00 4.313440e+00 1.083141e-04 9.197531e-05 5.357012e-05
N -3.172769e+00 -1.856133e+00 -5.834557e+00 6.610736e-07 2.425856e-05 -2.605345e-05
N -3.179960e+00 -1.812116e+00 -7.264966e-01 6.022290e-06 6.547598e-06 3.222646e-05
N -1.599870e+00 8.669275e-01 4.390394e+00 8.772834e-05 -1.498092e-04 5.948919e-06
N -1.600958e+00 8.744836e-01 -5.839557e+00 8.515031e-05 -1.986797e-05 -8.498878e-07
N -1.639532e+00 8.454564e-01 -7.887134e-01 5.325428e-05 1.013659e-04 2.540151e-05
N -3.179930e+00 3.599270e+00 4.397884e+00 -2.689906e-04 1.165661e-04 2.688372e-05
N -3.218965e+00 3.575841e+00 -5.796497e+00 4.470966e-05 -2.991550e-05 1.135743e-05
N -3.223102e+00 3.576577e+00 -7.799824e-01 4.937438e-05 7.196936e-05 -2.262023e-05
N -6.519057e-02 -1.879888e+00 4.299124e+00 -9.490245e-05 1.264712e-04 1.293527e-04
N -2.209000e-02 -1.858458e+00 -5.836364e+00 6.128034e-06 -4.102090e-05 1.431919e-05
N -2.054809e-02 -1.856566e+00 -7.701410e-01 1.673312e-05 -1.963969e-05 2.642383e-05
N 1.451739e-02 1.807431e+00 1.818557e+00 8.307600e-05 -6.953787e-05 -1.865344e-05
N -1.931792e-02 1.775703e+00 6.870774e+00 -1.794986e-05 -2.707891e-06 2.571562e-05
N -2.317554e-02 1.775623e+00 -3.309869e+00 -2.454184e-05 4.457810e-05 8.574215e-06
N 3.175665e+00 -3.662414e+00 1.818362e+00 1.052918e-04 -4.386140e-05 4.834864e-05
N 3.175968e+00 -3.652130e+00 6.858373e+00 -1.322156e-04 3.433412e-04 5.938609e-05
N 3.130500e+00 -3.673505e+00 -3.238550e+00 -2.041710e-04 -2.044906e-05 2.330104e-05
N 1.551660e+00 -9.495703e-01 1.773055e+00 -3.182863e-05 1.299890e-05 3.793541e-05
N 1.552466e+00 -9.495710e-01 6.922396e+00 -5.750819e-05 6.215749e-05 -8.429599e-06
N 1.552862e+00 -9.507709e-01 -3.308460e+00 -2.094902e-05 4.524532e-05 2.245057e-05
N 3.129740e+00 1.778033e+00 1.778665e+00 2.568687e-06 -5.851421e-06 6.816403e-06
N 3.131689e+00 1.779230e+00 6.931094e+00 -6.424095e-05 -1.633249e-04 -3.617071e-05
N 3.130283e+00 1.731729e+00 -3.330753e+00 1.101118e-04 -8.962839e-05 2.218125e-04
N 6.280615e+00 -3.681772e+00 1.853298e+00 -4.924684e-05 4.470538e-05 3.464445e-05
N 6.290802e+00 -3.676747e+00 6.861953e+00 2.238170e-05 2.483870e-05 7.601875e-06
N 6.247835e+00 -3.699848e+00 -3.348139e+00 1.008813e-06 -3.874689e-05 1.164542e-04
N 4.709249e+00 -9.492332e-01 1.781368e+00 -6.875474e-06 3.033439e-05 9.317124e-08
N 4.710637e+00 -9.486735e-01 6.923038e+00 -4.026082e-06 5.328307e-06 -2.145616e-05
N 4.664452e+00 -9.246084e-01 -3.328172e+00 -4.244026e-05 -5.119518e-06 -8.742001e-06
N -3.213680e+00 1.758104e+00 1.733934e+00 -7.429537e-05 -9.977005e-05 1.393695e-04
N -3.181647e+00 1.725289e+00 6.860473e+00 2.635908e-04 1.684922e-06 -1.031843e-04
N -3.179435e+00 1.775480e+00 -3.297049e+00 -8.818756e-07 2.025311e-06 2.292880e-05
N -5.917279e-02 -3.654847e+00 1.761725e+00 -3.149263e-05 -7.473741e-05 -1.999025e-05
N -6.908791e-02 -3.649880e+00 6.851021e+00 -8.571901e-05 -6.390569e-05 1.136194e-04
N 1.603967e-02 -3.649372e+00 -3.315596e+00 -5.081710e-05 6.757462e-06 -1.319258e-04
N -1.597325e+00 -9.936293e-01 1.756983e+00 -2.168065e-04 -3.135760e-05 -4.170855e-05
N -1.597586e+00 -9.537155e-01 6.875388e+00 -2.653998e-05 9.112796e-06 4.798938e-06
N -1.554673e+00 -9.265001e-01 -3.327709e+00 -3.715251e-05 1.871374e-05 6.472051e-06
