108
Energy=-1764153.147096 Lattice="9.558806 0.000000 0.000000 -4.784903 8.272011 0.000000 0.004225 0.007579 15.463201" Stress="-0.000001 -0.000001 0.000001 -0.000001 -0.000003 0.000002 0.000001 0.000002 0.000009" Properties=species:S:1:pos:R:3:forces:R:3
Al 1.544685 0.868553 2.434830 0.007561 0.005331 0.000112
Al 1.571710 0.883571 7.540772 0.001082 0.000571 -0.000844
Al 1.568245 0.865180 -2.698377 0.000005 -0.000590 0.001196
Al -0.020997 3.641183 2.399978 -0.001726 -0.006842 0.005111
Al -0.019855 3.631205 7.567367 0.000005 -0.000155 0.000605
Ga -0.029183 3.630244 -2.695514 0.000040 -0.000117 0.000512
Al 3.171172 -1.858266 2.445649 -0.003543 -0.005140 -0.000808
Ga 3.172113 -1.866442 7.551575 0.000140 -0.000137 0.001040
Al 3.168385 -1.869489 -2.710705 -0.000290 0.000310 0.000429
Ga -4.820405 0.879027 2.443666 0.000271 0.000671 -0.000443
Al -4.810914 0.881669 7.553962 -0.000413 0.000091 0.000404
Al -4.806322 0.867018 -2.709748 0.000322 -0.000178 -0.000115
Al -6.399780 3.630671 2.457971 -0.000062 -0.001025 -0.000466
Ga -6.389636 3.634645 7.552934 -0.000283 -0.000776 0.000025
Ga -6.402785 3.627870 -2.715257 -0.000189 0.000180 -0.000420
Ga -3.224228 -1.887896 2.453905 0.000503 0.000289 -0.000288
Al -3.210240 -1.868566 7.563610 -0.000027 -0.000037 0.000570
Al -3.217246 -1.867746 -2.718650 -0.000006 0.000188 0.000172
Ga -1.602528 0.895459 2.431106 -0.000198 0.000906 0.001107
Ga -1.609691 0.894957 7.569308 0.001034 -0.000528 0.000453
Al -1.625307 0.878622 -2.709307 0.000825 -0.000194 0.000487
Ga -3.208255 3.645404 2.406878 0.000294 0.000456 0.000583
Al -3.212689 3.648538 7.564406 0.000275 -0.000193 0.000538
Ga -3.210039 3.631773 -2.685741 0.000505 -0.000113 0.000734
Ga -0.000582 -1.882180 2.427248 0.000149 -0.001386 0.000566
Al -0.007835 -1.872214 7.554017 0.000114 -0.000080 0.000928
Ga -0.015647 -1.862992 -2.694127 0.000822 0.000035 0.000760
Al 0.000781 1.802021 4.999863 -0.000185 0.000562 -0.000023
Ga -0.011799 1.791044 -5.299439 -0.000999 0.000047 0.001167
Al -0.034978 1.791293 -0.135376 0.001867 -0.001441 -0.003622
Ga 3.175646 -3.710806 4.993758 -0.000056 -0.000158 0.000311
Ga 3.166886 -3.724694 -5.311670 -0.000631 0.000102 0.000687
Al 3.157495 -3.710644 -0.133344 -0.000293 0.000753 0.001118
Al 1.571194 -0.943845 5.001595 0.003301 0.000503 -0.001511
Ga 1.574172 -0.954152 -5.306967 -0.001080 0.000307 0.001290
Al 1.579460 -0.963634 -0.132454 0.000395 0.000344 -0.002506
Al 3.152051 1.786865 4.979198 -0.001170 0.000997 0.004111
Ga 3.154206 1.779718 -5.305213 0.000258 0.000004 0.000723
Ga 3.153563 1.792890 -0.134363 -0.000552 -0.000418 0.002099
Ga 6.352070 -3.726974 5.001964 -0.000461 -0.000719 0.000403
Ga 6.343412 -3.713193 -5.315406 0.000082 -0.000122 0.000202
Ga 6.350157 -3.725078 -0.115193 0.000459 0.000076 0.000492
Al 4.746316 -0.945055 5.016107 -0.000166 0.000159 0.000600
Ga 4.763284 -0.956399 -5.291990 -0.000369 0.000357 0.000684
Ga 4.742703 -0.965469 -0.162799 -0.000547 0.000671 0.001522
Ga -3.223503 1.810029 5.020721 -0.000026 -0.000009 0.001003
Ga -3.225673 1.800425 -5.305663 0.000133 0.000001 0.000747
Al -3.205904 1.805298 -0.160444 -0.000094 -0.000276 0.000679
Al -0.013470 -3.710108 5.009487 -0.000316 -0.000738 0.000600
Ga -0.013422 -3.711206 -5.321102 0.000177 0.000080 0.000911
Al -0.013612 -3.720900 -0.128958 0.000155 0.000036 0.001431
Ga -1.596824 -0.958319 5.022645 -0.001062 0.000238 0.000431
Ga -1.615142 -0.966082 -5.302774 -0.000328 0.000575 0.000434
Ga -1.609127 -0.949720 -0.148745 -0.000206 0.000826 -0.002010
N 1.560457 0.876681 4.370679 0.000297 -0.000364 -0.000772
N 1.565833 0.876318 -6.004836 0.000355 -0.000575 -0.000431
N 1.527023 0.849211 -0.774873 -0.001547 0.000430 0.001067
N -0.024154 3.587044 4.331757 -0.000265 0.000196 -0.002451
N -0.026245 3.625368 -5.977646 -0.000050 -0.000169 -0.001202
N -0.068189 3.613628 -0.712558 -0.000545 -0.000520 0.000815
N 3.170083 -1.824447 4.375520 -0.001805 0.000819 -0.000465
N 3.168810 -1.876506 -5.936309 0.000107 -0.000018 -0.000830
N 3.120154 -1.905541 -0.789644 -0.001115 -0.000136 0.001159
N -4.841365 0.862855 4.420555 0.000436 -0.001335 -0.000915
N -4.812691 0.874416 -5.987072 0.000376 -0.000308 -0.000736
N -4.770969 0.904169 -0.795847 0.000989 -0.000051 0.000544
N -6.348864 3.617687 4.387234 0.000356 -0.000113 -0.001062
N -6.398205 3.627871 -5.932919 -0.000103 0.000110 -0.000395
N -6.360746 3.657332 -0.746027 0.000348 0.000645 0.000569
N -3.246180 -1.847521 4.419416 -0.000328 0.000369 -0.000581
N -3.212233 -1.875009 -5.982227 0.000023 0.000199 -0.000800
N -3.208958 -1.886318 -0.810495 0.000203 -0.000095 0.000627
N -1.577864 0.913485 4.413838 0.000944 -0.000342 -0.000509
N -1.620113 0.883932 -5.923144 0.000963 -0.000505 -0.000133
N -1.619392 0.930294 -0.783740 0.000270 0.000014 -0.000015
N -3.247880 3.666320 4.383336 -0.000389 0.000214 -0.000544
N -3.213945 3.636776 -5.983752 0.000446 -0.000198 -0.001127
N -3.212797 3.642239 -0.695459 0.000397 -0.000199 0.000228
N 0.028301 -1.896843 4.412163 -0.000393 -0.001039 -0.000689
N -0.017960 -1.873018 -5.985982 0.000601 -0.000118 -0.001345
N 0.021301 -1.903693 -0.711761 0.001152 0.000035 0.000293
N 0.020534 1.808243 1.778487 -0.001526 0.003250 0.001119
N 0.025646 1.828545 6.923577 -0.000447 0.000256 -0.001017
N -0.019340 1.746045 -3.306478 -0.000246 -0.000123 -0.000729
N 3.216417 -3.682095 1.798041 -0.002287 0.003125 -0.000016
N 3.175451 -3.761567 6.977573 -0.000439 0.000072 -0.000460
N 3.164571 -3.676221 -3.326771 -0.000073 0.000590 -0.000410
N 1.620279 -0.932148 1.793548 0.000379 -0.001043 0.000573
N 1.539728 -0.930090 6.917762 -0.001388 0.000301 0.000591
N 1.613746 -0.937072 -3.315612 -0.000323 0.000623 -0.000932
N 3.119302 1.822424 1.856825 -0.004238 -0.001937 -0.000041
N 3.161933 1.754947 6.917378 -0.000527 -0.000949 -0.002408
N 3.155590 1.742295 -3.309356 -0.000024 -0.000722 -0.000220
N 6.352502 -3.765265 1.874089 0.003907 0.001752 -0.003717
N 6.312449 -3.691421 6.983120 -0.000116 0.000460 -0.000294
N 6.345388 -3.672153 -3.332586 -0.000186 0.000287 -0.000133
N 4.714713 -0.982192 1.822196 0.001712 0.001317 -0.003311
N 4.802834 -0.929551 6.932499 0.000095 0.000261 -0.000777
N 4.756663 -0.959144 -3.292962 -0.000237 0.000060 0.000175
N -3.213391 1.789432 1.757823 -0.000002 0.000090 -0.001260
N -3.251431 1.830362 6.994979 -0.000261 0.000101 -0.000455
N -3.218387 1.755705 -3.309879 0.000034 -0.000528 -0.000295
N -0.069211 -3.742371 1.784950 -0.000291 0.000402 -0.001084
N 0.024188 -3.686844 6.931919 0.000548 0.000525 -0.000792
N -0.015873 -3.712694 -3.347643 0.000025 0.000108 -0.000498
N -1.617491 -0.960549 1.815393 -0.000292 0.000015 0.001649
N -1.607541 -1.000029 6.996030 -0.000280 -0.000029 -0.000295
N -1.652412 -0.939074 -3.305210 -0.000736 0.000491 -0.000182
