108
Energy=-2.176133e+06 Lattice="9.607917e+00 0.000000e+00 0.000000e+00 -4.803229e+00 8.320685e+00 0.000000e+00 -1.067579e-03 6.920441e-04 1.557224e+01" Stress="-1.565758e-05 3.213886e-05 2.595088e-06 3.320682e-05 -1.830558e-05 6.425169e-06 6.476206e-07 1.417135e-05 6.739882e-06" Properties=species:S:1:pos:R:3:forces:R:3 Config_type=AlGaN_super3_38_2_13.xyz
Al 1.580768e+00 8.881386e-01 2.415040e+00 -4.788648e-05 1.288257e-06 8.516118e-05
Al 1.569474e+00 8.964304e-01 7.652179e+00 -3.463130e-05 -8.435099e-06 1.186580e-04
Al 1.580287e+00 8.786003e-01 -2.728510e+00 -1.796538e-05 -2.318274e-05 3.303195e-05
Al -1.788382e-02 3.649141e+00 2.445228e+00 -3.934794e-05 -4.162493e-05 1.860049e-04
Al -1.476068e-02 3.649652e+00 7.649638e+00 -7.280541e-06 6.869457e-06 1.417288e-04
Ga -2.527142e-02 3.641468e+00 -2.749691e+00 8.890152e-06 4.358123e-06 -1.265670e-05
Ga 3.180699e+00 -1.875883e+00 2.429050e+00 -4.986319e-05 1.638316e-05 7.621096e-05
Ga 3.193608e+00 -1.884858e+00 7.632357e+00 1.808819e-05 2.395285e-05 9.054392e-05
Ga 3.165810e+00 -1.876788e+00 -2.719809e+00 1.336177e-05 -1.712969e-05 4.257315e-05
Ga -4.831200e+00 8.834736e-01 2.431041e+00 -2.286422e-05 -2.482649e-05 4.112477e-06
Ga -4.826387e+00 8.741942e-01 7.621141e+00 -2.110485e-05 -3.002232e-05 -1.738669e-05
Al -4.833520e+00 8.921060e-01 -2.709540e+00 -3.274021e-05 -8.817466e-06 8.402128e-05
Ga -6.444048e+00 3.640463e+00 2.430799e+00 2.985747e-05 -1.765228e-05 9.502605e-06
Ga -6.444431e+00 3.654387e+00 7.645598e+00 -2.571522e-06 -2.297667e-05 3.997447e-05
Ga -6.417518e+00 3.643707e+00 -2.729628e+00 -2.654688e-05 1.839131e-05 7.592926e-06
Ga -3.242486e+00 -1.890392e+00 2.444751e+00 3.660881e-06 -1.620348e-05 -1.682248e-05
Al -3.239883e+00 -1.890973e+00 7.629236e+00 -2.907230e-05 4.316540e-06 1.377325e-04
Ga -3.224886e+00 -1.880965e+00 -2.724699e+00 4.581261e-06 -1.288543e-05 3.480825e-05
Ga -1.621188e+00 9.017144e-01 2.441802e+00 -2.174954e-05 -5.068670e-05 2.690973e-05
Ga -1.615761e+00 8.938334e-01 7.645000e+00 8.103279e-06 -2.401707e-05 2.282942e-05
Ga -1.616438e+00 8.926118e-01 -2.742773e+00 -7.430045e-06 -3.241082e-05 -1.739585e-05
Ga -3.216578e+00 3.644700e+00 2.442512e+00 1.272505e-05 5.358285e-05 4.897357e-05
Ga -3.217464e+00 3.650039e+00 7.635234e+00 3.700873e-05 5.452641e-05 -2.253992e-05
Al -3.231626e+00 3.653758e+00 -2.724497e+00 -3.271692e-05 5.067689e-05 1.342212e-04
Ga -1.003432e-02 -1.873637e+00 2.435660e+00 5.608607e-05 1.202607e-06 8.404315e-05
Ga -2.614145e-02 -1.881180e+00 7.643700e+00 1.488862e-06 -1.048334e-05 5.012264e-05
Al -7.938161e-03 -1.883276e+00 -2.727274e+00 -1.222347e-06 1.360437e-05 1.742357e-04
Ga -1.682075e-02 1.812769e+00 5.035887e+00 -3.129646e-05 -6.077572e-05 2.562484e-05
Al -1.005190e-02 1.808680e+00 -5.341915e+00 1.401914e-05 -1.794813e-05 9.506386e-05
Ga -7.421803e-03 1.799675e+00 -1.377397e-01 -3.380165e-05 -2.454059e-05 9.781011e-05
Ga 3.189502e+00 -3.742761e+00 5.037642e+00 -5.443582e-05 -6.998235e-06 7.663640e-05
Ga 3.184954e+00 -3.750240e+00 -5.331381e+00 -7.753492e-05 -2.847127e-05 2.085180e-05
Ga 3.173421e+00 -3.736027e+00 -1.462784e-01 -5.790133e-06 -8.299347e-05 1.783325e-04
Ga 1.589859e+00 -9.474207e-01 5.043191e+00 -1.582094e-05 9.952568e-07 2.787213e-05
Ga 1.570901e+00 -9.445630e-01 -5.317972e+00 -2.876436e-05 -3.230722e-05 -1.503959e-06
Al 1.585881e+00 -9.464248e-01 -1.633202e-01 7.633240e-05 -4.906480e-06 -4.863591e-05
Ga 3.181417e+00 1.790799e+00 5.037229e+00 1.227825e-05 -1.354339e-05 6.537553e-05
Ga 3.166895e+00 1.794594e+00 -5.318585e+00 6.006606e-06 -8.215333e-06 2.688031e-05
Al 3.184628e+00 1.781222e+00 -1.626483e-01 2.433262e-05 -1.854041e-05 -2.271469e-05
Ga 6.364396e+00 -3.732058e+00 5.054982e+00 4.255590e-05 8.493137e-06 6.431162e-05
Ga 6.371329e+00 -3.739156e+00 -5.354041e+00 1.651313e-05 1.732697e-05 1.085026e-05
Ga 6.377492e+00 -3.739686e+00 -1.374273e-01 1.688684e-05 3.535498e-08 7.395636e-05
Al 4.787937e+00 -9.568369e-01 5.044578e+00 6.268907e-06 2.808894e-05 1.200003e-04
Ga 4.786822e+00 -9.600369e-01 -5.323969e+00 1.260894e-06 8.469032e-05 -5.629022e-06
Al 4.771119e+00 -9.403023e-01 -1.592606e-01 1.298326e-06 6.862992e-06 -2.840121e-05
Al -3.230397e+00 1.799278e+00 5.040457e+00 3.073292e-05 -1.122892e-05 1.579606e-04
Ga -3.226098e+00 1.808868e+00 -5.308559e+00 2.211726e-05 1.419053e-05 8.974741e-05
Al -3.244280e+00 1.805022e+00 -1.748391e-01 -1.685188e-05 2.011090e-07 -2.396401e-05
Ga -1.923733e-02 -3.746827e+00 5.035895e+00 1.528210e-05 -4.379727e-06 8.555295e-05
Ga -1.655870e-02 -3.736138e+00 -5.301185e+00 -9.644153e-06 -3.282584e-05 1.101496e-04
Ga -1.199031e-02 -3.741089e+00 -1.671255e-01 -1.791540e-05 -1.414968e-05 2.287208e-05
Ga -1.643309e+00 -9.554983e-01 5.049921e+00 4.276521e-05 1.403397e-05 7.393589e-05
Ga -1.625706e+00 -9.625480e-01 -5.329957e+00 -3.745149e-06 3.299294e-05 4.176561e-05
Ga -1.622500e+00 -9.574027e-01 -1.560530e-01 1.756242e-05 3.037197e-05 -1.019588e-04
N 1.579969e+00 8.846797e-01 4.332734e+00 1.845241e-05 -2.765127e-05 -8.796983e-05
N 1.538487e+00 9.084693e-01 -5.999852e+00 -2.986011e-05 2.040026e-05 -7.605144e-05
N 1.616652e+00 8.637405e-01 -8.025147e-01 -2.799180e-05 -1.053296e-06 -3.042633e-05
N -2.036854e-02 3.655955e+00 4.356315e+00 -1.079007e-05 -7.717344e-06 -1.181864e-04
N -2.539625e-02 3.606073e+00 -5.997074e+00 7.427299e-06 -6.049441e-05 -8.352344e-05
N -2.360626e-02 3.651933e+00 -7.841203e-01 -1.441746e-05 6.973861e-06 -2.630702e-05
N 3.222157e+00 -1.860548e+00 4.423057e+00 6.527327e-05 3.770258e-05 -9.121407e-05
N 3.178804e+00 -1.885744e+00 -5.955794e+00 1.174968e-05 9.565585e-06 -3.702228e-05
N 3.178253e+00 -1.840947e+00 -7.341503e-01 -4.150751e-05 6.226977e-05 7.260138e-05
N -4.785087e+00 8.594191e-01 4.430996e+00 6.505266e-05 -4.029361e-06 -9.358029e-05
N -4.825517e+00 8.864437e-01 -5.974576e+00 6.954092e-06 -5.734816e-05 1.711141e-05
N -4.829193e+00 8.855647e-01 -7.796261e-01 1.410912e-05 3.011713e-05 -1.293696e-05
N -6.436261e+00 3.653094e+00 4.412149e+00 2.420430e-05 2.031550e-06 -6.341223e-05
N -6.420855e+00 3.653089e+00 -5.946774e+00 -2.796494e-05 1.716914e-05 -3.763389e-05
N -6.430553e+00 3.604970e+00 -7.498967e-01 7.697973e-06 -4.344995e-05 4.862222e-05
N -3.271247e+00 -1.866084e+00 4.423731e+00 -6.038262e-05 3.948968e-05 -4.410949e-05
N -3.229989e+00 -1.883124e+00 -6.021374e+00 -1.922603e-06 -1.040829e-05 -9.162109e-05
N -3.269446e+00 -1.865650e+00 -7.524159e-01 -3.888876e-05 2.506035e-05 2.198708e-05
N -1.663749e+00 9.129217e-01 4.427624e+00 -3.692527e-05 1.484791e-05 -4.385444e-05
N -1.586076e+00 9.132376e-01 -5.935108e+00 3.065522e-05 -1.991351e-05 -4.648049e-05
N -1.658000e+00 9.154572e-01 -7.634207e-01 -8.091187e-06 -1.800041e-05 8.269731e-05
N -3.222157e+00 3.604798e+00 4.424714e+00 -1.171950e-05 -8.210092e-05 -6.100548e-05
N -3.228175e+00 3.653348e+00 -5.963360e+00 3.803136e-05 1.248637e-05 -1.731869e-05
N -3.220799e+00 3.610967e+00 -8.106019e-01 2.688233e-05 -3.365248e-05 -7.820456e-05
N -2.058217e-02 -1.881712e+00 4.414171e+00 1.824468e-05 1.275202e-05 -5.759447e-05
N -2.059726e-02 -1.891055e+00 -5.956725e+00 5.207214e-05 5.924869e-05 -5.282246e-05
N 2.249996e-02 -1.860591e+00 -8.071114e-01 6.672169e-06 2.105931e-06 -6.564085e-05
N 2.043043e-02 1.832568e+00 1.846858e+00 9.374328e-05 5.253953e-05 -1.242920e-04
N 2.283825e-02 1.834587e+00 7.030133e+00 5.621121e-05 3.227574e-05 -2.918480e-05
N 2.852514e-02 1.780551e+00 -3.414210e+00 3.833876e-05 1.275300e-05 -1.027161e-04
N 3.219594e+00 -3.761213e+00 1.836915e+00 5.253631e-05 -1.263999e-05 -2.101070e-04
N 3.227126e+00 -3.764733e+00 7.024632e+00 2.420300e-05 -7.556718e-05 -3.923435e-05
N 3.136650e+00 -3.759518e+00 -3.346024e+00 -2.397548e-05 -4.303894e-05 -7.136890e-05
N 1.577653e+00 -9.126326e-01 1.762659e+00 -4.925066e-05 4.300028e-05 -6.929259e-05
N 1.579881e+00 -9.081628e-01 7.027565e+00 -4.617389e-05 3.821893e-05 -6.219515e-05
N 1.537709e+00 -9.346003e-01 -3.331968e+00 -4.978663e-05 2.918000e-05 -5.646398e-05
N 3.141846e+00 1.777770e+00 1.764250e+00 -7.725003e-05 -4.182061e-05 -4.323688e-05
N 3.133076e+00 1.780814e+00 7.020998e+00 -6.311770e-05 -3.315442e-05 -1.967072e-05
N 3.178355e+00 1.752012e+00 -3.327641e+00 4.590207e-05 -5.653325e-05 -1.920726e-05
N 6.337518e+00 -3.759924e+00 1.835851e+00 -9.864365e-05 5.705890e-07 -8.149261e-05
N 6.334293e+00 -3.716129e+00 7.049184e+00 -4.796912e-05 4.613024e-05 -5.429403e-05
N 6.383667e+00 -3.735353e+00 -3.377045e+00 -3.320260e-05 -4.273528e-06 -1.928859e-05
N 4.780150e+00 -9.579511e-01 1.750758e+00 3.976176e-05 9.028937e-06 -3.549705e-05
N 4.821199e+00 -9.877937e-01 6.964288e+00 5.564113e-05 -1.778840e-05 -1.090163e-04
N 4.780926e+00 -9.123845e-01 -3.342080e+00 1.877258e-05 3.769513e-05 -3.285382e-05
N -3.230350e+00 1.807699e+00 1.742872e+00 4.767810e-05 7.928815e-06 -5.330160e-05
N -3.223278e+00 1.805568e+00 6.954072e+00 -5.049844e-05 4.224475e-05 -1.132178e-04
N -3.273603e+00 1.831232e+00 -3.321205e+00 -2.863797e-05 2.100098e-05 -8.030240e-05
N -2.133537e-02 -3.737461e+00 1.811234e+00 1.331581e-05 3.912153e-05 -5.568293e-05
N -2.549149e-02 -3.739624e+00 7.008120e+00 1.980206e-05 2.322054e-05 -9.065857e-05
N 1.990428e-02 -3.711478e+00 -3.311297e+00 7.913733e-05 1.833849e-05 -9.109496e-05
N -1.626679e+00 -9.619879e-01 1.817698e+00 2.273099e-05 8.612366e-05 7.594950e-05
N -1.669052e+00 -9.842142e-01 7.033154e+00 -4.154884e-05 -2.315868e-05 -6.092178e-05
N -1.582490e+00 -9.903670e-01 -3.344866e+00 6.979363e-05 -2.054956e-06 -5.639429e-05
