108
Energy=-1.443725e+06 Lattice="9.523596e+00 0.000000e+00 0.000000e+00 -4.771710e+00 8.245582e+00 0.000000e+00 4.014249e-03 -2.137159e-03 1.535787e+01" Stress="1.324057e-03 -5.634361e-04 1.375395e-04 -5.723821e-04 1.530357e-03 -2.087343e-04 1.214924e-04 -2.037264e-04 4.791634e-04" Properties=species:S:1:pos:R:3:forces:R:3 Config_type=AlGaN_super3_22_2_8.xyz
Al 1.573595e+00 8.912036e-01 2.425036e+00 1.473573e-03 -6.130407e-03 8.633491e-04
Al 1.568577e+00 8.804139e-01 7.532291e+00 -8.099894e-05 4.472977e-04 1.016225e-03
Al 1.558602e+00 8.914283e-01 -2.732027e+00 4.088134e-04 -5.860711e-04 5.591815e-04
Al -3.728629e-02 3.625313e+00 2.409758e+00 -2.269295e-04 1.519658e-03 2.633134e-05
Al -1.288173e-02 3.619984e+00 7.572711e+00 -1.580052e-03 8.220932e-04 -5.954006e-04
Al -2.379409e-02 3.622102e+00 -2.753859e+00 7.970380e-05 9.083057e-04 1.119648e-03
Al 3.152766e+00 -1.883075e+00 2.417183e+00 -3.255774e-03 2.289044e-03 -4.099083e-03
Al 3.162530e+00 -1.873137e+00 7.543886e+00 2.755620e-04 -3.588774e-04 8.900680e-04
Ga 3.159947e+00 -1.890675e+00 -2.720426e+00 -6.711559e-06 -4.950201e-04 1.037929e-03
Al -4.799226e+00 8.933397e-01 2.416359e+00 -3.655827e-04 -5.267084e-04 -1.134897e-03
Ga -4.793285e+00 8.766574e-01 7.548673e+00 1.786526e-03 4.966517e-04 1.419295e-03
Ga -4.796841e+00 8.895911e-01 -2.732680e+00 -7.924181e-04 -1.417507e-03 1.411186e-03
Ga -6.377260e+00 3.605588e+00 2.412432e+00 8.267094e-04 7.593809e-04 -7.431432e-04
Al -6.388773e+00 3.618106e+00 7.561059e+00 4.571473e-04 -4.342701e-04 1.099521e-03
Al -6.383669e+00 3.625953e+00 -2.740356e+00 2.228068e-04 4.451372e-04 -2.517483e-03
Ga -3.189004e+00 -1.874316e+00 2.435580e+00 -4.658843e-04 -4.849226e-04 -9.052026e-04
Al -3.191646e+00 -1.882540e+00 7.548837e+00 -1.276691e-03 8.287002e-04 -4.460961e-04
Al -3.191044e+00 -1.885843e+00 -2.742521e+00 -3.722569e-04 -9.040609e-04 8.579313e-05
Ga -1.619841e+00 8.881422e-01 2.420242e+00 4.755134e-04 -3.954142e-04 -1.556346e-04
Al -1.609836e+00 8.828005e-01 7.535077e+00 -1.987547e-04 2.940645e-04 5.644076e-04
Ga -1.612580e+00 8.948651e-01 -2.713778e+00 2.945996e-03 -1.812175e-03 5.460581e-04
Al -3.193547e+00 3.630335e+00 2.404163e+00 7.064954e-04 -4.905730e-04 1.960588e-04
Ga -3.194262e+00 3.624000e+00 7.559531e+00 2.480957e-04 -1.465565e-03 -2.985280e-04
Al -3.200369e+00 3.624946e+00 -2.745895e+00 5.930077e-05 5.594300e-03 6.773813e-03
Al 2.235796e-04 -1.858021e+00 2.445538e+00 1.247226e-03 -4.965639e-04 -1.262037e-03
Ga -2.117455e-02 -1.861962e+00 7.528274e+00 1.037913e-03 -2.052605e-04 7.945272e-04
Al -2.316982e-02 -1.879827e+00 -2.732223e+00 1.119296e-03 -1.260953e-03 -1.341825e-03
Ga -1.700391e-02 1.781552e+00 4.989742e+00 -9.807099e-04 5.857887e-04 1.198461e-03
Al -2.129588e-02 1.807143e+00 -5.285854e+00 -1.481785e-04 -8.753092e-04 7.502172e-04
Ga -1.728933e-02 1.801893e+00 -1.454796e-01 -5.906277e-04 1.075883e-03 -3.397289e-03
Ga 3.153673e+00 -3.705095e+00 4.975057e+00 -8.631977e-04 -8.866101e-04 2.216882e-03
Al 3.164393e+00 -3.711149e+00 -5.272699e+00 3.897184e-05 -2.358582e-05 -4.013638e-04
Al 3.154624e+00 -3.725651e+00 -1.571460e-01 -9.056698e-04 -5.378570e-04 1.773424e-03
Al 1.575913e+00 -9.465395e-01 4.966634e+00 -1.201338e-03 1.136813e-03 6.981727e-04
Ga 1.584349e+00 -9.508399e-01 -5.269962e+00 -1.068977e-03 1.253094e-03 6.935800e-04
Ga 1.568433e+00 -9.576703e-01 -1.453062e-01 -5.287379e-04 1.386536e-03 1.789666e-03
Al 3.151508e+00 1.780078e+00 4.991701e+00 -3.131913e-04 2.151675e-03 -1.270449e-04
Al 3.140849e+00 1.803775e+00 -5.271995e+00 -2.953654e-04 -1.467900e-05 1.227641e-04
Al 3.146579e+00 1.783425e+00 -1.739474e-01 -2.311047e-04 1.283606e-04 4.141436e-03
Ga 6.335310e+00 -3.711030e+00 5.012298e+00 -5.138363e-04 -6.559942e-04 8.590934e-04
Al 6.327664e+00 -3.712266e+00 -5.274054e+00 5.213808e-04 5.294106e-04 2.918553e-04
Ga 6.320676e+00 -3.720222e+00 -1.949694e-01 -5.018677e-04 2.735510e-04 3.560071e-03
Ga 4.736153e+00 -9.399739e-01 4.980008e+00 -4.804389e-04 -1.194254e-03 5.771285e-04
Al 4.742921e+00 -9.635590e-01 -5.282687e+00 2.729627e-04 1.275694e-03 -1.836621e-04
Ga 4.744726e+00 -9.532350e-01 -1.383803e-01 -7.655716e-04 4.996137e-04 6.976613e-04
Al -3.220457e+00 1.771115e+00 4.963010e+00 4.958531e-03 9.069694e-03 4.506485e-03
Al -3.200420e+00 1.816529e+00 -5.246471e+00 -7.312817e-04 -4.767575e-03 -7.808146e-03
Al -3.217085e+00 1.809613e+00 -1.522614e-01 7.340770e-05 9.269318e-04 1.284163e-03
Ga -1.851515e-02 -3.706426e+00 4.969479e+00 1.034023e-03 -1.693806e-04 1.170941e-04
Al -2.590783e-02 -3.720081e+00 -5.249045e+00 -1.099736e-04 -7.799312e-05 -2.584643e-04
Ga -1.162339e-02 -3.718498e+00 -1.721719e-01 1.396872e-03 3.041727e-04 2.711290e-03
Al -1.601244e+00 -9.436787e-01 4.998643e+00 -2.027908e-04 -6.473821e-04 1.032665e-03
Ga -1.620682e+00 -9.532473e-01 -5.271112e+00 -4.939023e-04 1.634551e-03 7.289237e-05
Ga -1.606442e+00 -9.610575e-01 -1.598549e-01 -4.770474e-04 4.702355e-05 -1.375990e-03
N 1.606620e+00 8.623896e-01 4.351647e+00 8.254927e-04 -1.243735e-03 -3.528109e-04
N 1.563275e+00 9.228301e-01 -5.906667e+00 3.698680e-04 1.289687e-04 -9.257783e-04
N 1.593872e+00 8.956178e-01 -8.146882e-01 1.506907e-03 2.449471e-04 -1.385584e-04
N -2.499858e-02 3.624794e+00 4.320401e+00 4.501691e-04 -3.413443e-04 -1.561327e-03
N -2.527776e-02 3.627327e+00 -5.868965e+00 -5.267755e-04 -1.435489e-04 -1.103037e-04
N -7.557271e-02 3.641117e+00 -8.341731e-01 -3.076913e-05 5.213195e-05 6.430658e-05
N 3.116481e+00 -1.854267e+00 4.325127e+00 2.805907e-04 4.729357e-04 3.910108e-04
N 3.191829e+00 -1.897451e+00 -5.893217e+00 5.935951e-04 -2.148537e-04 -9.613278e-04
N 3.156911e+00 -1.924700e+00 -7.444790e-01 6.656624e-04 -8.565691e-04 1.663342e-04
N -4.788433e+00 9.287591e-01 4.348702e+00 -3.975830e-03 -1.198942e-03 -2.238500e-03
N -4.796773e+00 8.822856e-01 -5.827919e+00 3.395123e-03 7.035524e-04 3.065216e-03
N -4.791247e+00 9.171342e-01 -7.477696e-01 1.045864e-03 8.143929e-04 -6.636424e-04
N -6.383589e+00 3.576225e+00 4.380048e+00 4.062603e-04 -2.335055e-03 2.547986e-04
N -6.375318e+00 3.624912e+00 -5.867558e+00 -4.300768e-04 2.683283e-04 -9.869646e-04
N -6.376172e+00 3.569922e+00 -8.290605e-01 -2.007137e-05 2.232491e-04 3.583845e-03
N -3.151397e+00 -1.853548e+00 4.401470e+00 5.794357e-04 7.416568e-04 6.117758e-04
N -3.231542e+00 -1.896719e+00 -5.896809e+00 -6.151447e-04 -6.926513e-04 -3.156318e-04
N -3.199108e+00 -1.874017e+00 -8.341620e-01 4.692996e-05 2.700764e-04 4.358903e-04
N -1.656298e+00 8.561530e-01 4.401331e+00 7.405298e-04 -5.079564e-04 -1.133025e-03
N -1.614721e+00 9.272324e-01 -5.899708e+00 -1.922357e-03 1.663267e-03 1.806724e-03
N -1.657413e+00 9.068602e-01 -7.408550e-01 -3.233778e-04 9.253070e-05 1.485052e-04
N -3.199370e+00 3.584993e+00 4.321834e+00 -1.212496e-04 -4.776463e-03 -4.598525e-05
N -3.207482e+00 3.633716e+00 -5.822415e+00 5.063959e-04 -4.524968e-04 8.953836e-04
N -3.163265e+00 3.602785e+00 -7.989962e-01 7.719599e-04 -6.231827e-04 -2.399010e-03
N -2.138009e-02 -1.817319e+00 4.371197e+00 6.599950e-04 5.682880e-04 -2.635676e-04
N -1.877650e-02 -1.917579e+00 -5.861397e+00 1.884315e-04 -6.444263e-04 1.790854e-05
N -1.818367e-02 -1.874981e+00 -8.327315e-01 1.620223e-04 -7.791540e-04 8.686345e-04
N 2.151987e-02 1.816470e+00 1.827231e+00 -1.103831e-03 5.626764e-04 3.771102e-03
N -1.656820e-02 1.793626e+00 6.978901e+00 -1.171385e-03 4.513688e-04 -8.891346e-05
N 1.509726e-02 1.813644e+00 -3.357236e+00 -5.921537e-04 -5.902734e-04 -2.524686e-03
N 3.161673e+00 -3.712639e+00 1.791478e+00 -6.513551e-04 9.085378e-04 -2.122471e-03
N 3.200501e+00 -3.685432e+00 6.960908e+00 2.043835e-03 -2.140126e-04 3.055463e-05
N 3.159338e+00 -3.754687e+00 -3.362264e+00 -5.644095e-04 8.331446e-05 -6.366391e-04
N 1.566011e+00 -9.396500e-01 1.848614e+00 9.681526e-04 -2.592687e-03 1.077800e-03
N 1.615988e+00 -9.321060e-01 6.902539e+00 6.489698e-04 7.908375e-05 -1.093648e-03
N 1.538728e+00 -9.332562e-01 -3.298178e+00 -1.714378e-03 1.115896e-03 5.397576e-04
N 3.141100e+00 1.741272e+00 1.769541e+00 1.915577e-03 1.763221e-03 -4.438114e-03
N 3.113307e+00 1.816633e+00 6.915252e+00 -6.730710e-04 1.843856e-05 -1.827288e-03
N 3.104110e+00 1.817287e+00 -3.357216e+00 -3.982525e-04 -8.419656e-05 -1.452634e-03
N 6.291459e+00 -3.726883e+00 1.799300e+00 1.098907e-04 -5.925359e-04 -3.346929e-03
N 6.333373e+00 -3.712253e+00 6.997039e+00 -3.687864e-04 2.709292e-04 -1.634606e-04
N 6.331099e+00 -3.705474e+00 -3.343585e+00 3.173660e-04 6.654009e-06 -6.138427e-04
N 4.712179e+00 -9.303754e-01 1.847827e+00 -1.167413e-03 4.387307e-05 7.187491e-04
N 4.742057e+00 -9.999851e-01 6.957938e+00 4.642502e-04 -7.378349e-04 -1.042962e-05
N 4.781124e+00 -9.785831e-01 -3.368314e+00 7.416922e-05 4.215204e-04 -9.127425e-04
N -3.244918e+00 1.820111e+00 1.779126e+00 -9.510196e-04 3.796797e-04 -1.081385e-03
N -3.165373e+00 1.774852e+00 6.891849e+00 -2.617515e-04 -8.897568e-04 -3.033943e-03
N -3.201425e+00 1.845608e+00 -3.355135e+00 -2.495379e-04 -3.001111e-03 -1.620094e-03
N 2.315938e-02 -3.672011e+00 1.836399e+00 -8.479399e-04 2.877618e-04 -2.416115e-03
N -5.628386e-02 -3.731849e+00 6.942359e+00 -1.009578e-03 -1.314376e-04 -7.425072e-04
N -1.995622e-02 -3.709274e+00 -3.326036e+00 -8.935578e-05 2.450777e-04 1.456526e-05
N -1.559109e+00 -9.813569e-01 1.809279e+00 -3.403254e-04 2.898951e-04 1.458122e-03
N -1.647110e+00 -9.314588e-01 6.921183e+00 -6.747915e-04 7.594153e-04 -4.053857e-04
N -1.608016e+00 -9.922976e-01 -3.300262e+00 -5.834198e-04 3.440976e-04 2.595743e-04
