108
Energy=-2588112.508786 Lattice="9.661985 0.000000 0.000000 -4.831417 8.366867 0.000000 -0.001113 0.000834 15.683528" Stress="-0.000000 -0.000000 0.000000 -0.000000 -0.000000 -0.000000 0.000000 -0.000000 0.000000" Properties=species:S:1:pos:R:3:forces:R:3
Al 1.582990 0.899152 2.462768 -0.000002 0.000001 -0.000001
Ga 1.581110 0.894354 7.706473 -0.000000 -0.000004 0.000000
Ga 1.583810 0.902371 -2.766774 0.000004 -0.000005 0.000011
Al -0.018288 3.671031 2.466311 0.000001 0.000002 0.000003
Ga -0.030357 3.672455 7.705108 0.000001 -0.000000 -0.000000
Ga -0.016270 3.670235 -2.770973 0.000001 0.000003 -0.000001
Ga 3.196523 -1.901872 2.470090 0.000000 -0.000001 -0.000003
Ga 3.192971 -1.905972 7.687999 -0.000001 -0.000000 0.000003
Ga 3.194556 -1.902942 -2.754092 -0.000003 -0.000002 0.000004
Ga -4.863773 0.892145 2.468333 -0.000007 -0.000000 -0.000002
Ga -4.851752 0.897545 7.695596 -0.000001 -0.000002 0.000005
Ga -4.859358 0.901009 -2.761687 -0.000001 0.000005 -0.000005
Ga -6.473330 3.673473 2.480828 -0.000005 -0.000001 0.000001
Ga -6.450534 3.682935 7.677036 0.000002 -0.000000 -0.000003
Al -6.464555 3.678127 -2.757629 -0.000000 0.000002 -0.000002
Ga -3.240304 -1.904754 2.453093 0.000002 0.000002 -0.000003
Ga -3.245078 -1.901946 7.697911 -0.000005 0.000003 0.000005
Ga -3.232936 -1.906603 -2.746036 0.000002 0.000000 0.000001
Ga -1.620822 0.890177 2.459799 -0.000005 -0.000002 0.000001
Ga -1.630718 0.902673 7.697354 -0.000002 0.000002 -0.000001
Ga -1.624910 0.890717 -2.755744 -0.000001 -0.000000 0.000005
Ga -3.240582 3.681183 2.477285 -0.000000 -0.000001 -0.000000
Al -3.252138 3.684035 7.680868 0.000001 0.000000 -0.000001
Ga -3.251467 3.680027 -2.757146 -0.000001 0.000003 -0.000000
Ga -0.026386 -1.895818 2.468483 -0.000003 -0.000004 0.000000
Ga -0.016952 -1.915574 7.683446 0.000003 -0.000002 -0.000002
Ga -0.030487 -1.905088 -2.748663 -0.000005 -0.000003 0.000004
Ga -0.015531 1.822955 5.056277 0.000002 0.000002 -0.000002
Al -0.024378 1.818683 -5.371571 -0.000002 -0.000000 -0.000002
Ga -0.023424 1.815238 -0.124058 -0.000004 0.000004 0.000001
Ga 3.192615 -3.767087 5.082992 -0.000003 -0.000002 -0.000003
Ga 3.193530 -3.769939 -5.390015 -0.000001 0.000002 0.000005
Ga 3.202004 -3.763902 -0.131112 -0.000005 -0.000001 0.000001
Ga 1.580765 -0.967088 5.067873 -0.000009 -0.000003 -0.000002
Ga 1.581621 -0.963234 -5.374154 0.000001 -0.000000 0.000001
Ga 1.575177 -0.964663 -0.132837 -0.000010 0.000005 0.000005
Ga 3.193065 1.821912 5.072434 -0.000002 -0.000002 0.000005
Ga 3.188031 1.827011 -5.367910 -0.000001 0.000001 -0.000000
Ga 3.192268 1.826316 -0.143737 -0.000002 0.000001 0.000000
Ga 6.419032 -3.761215 5.068226 -0.000001 -0.000000 0.000005
Ga 6.420573 -3.769008 -5.363539 -0.000001 0.000000 -0.000003
Ga 6.425603 -3.760115 -0.145377 -0.000004 -0.000003 -0.000005
Ga 4.811004 -0.969711 5.078071 0.000000 0.000002 0.000001
Ga 4.808209 -0.971430 -5.367772 -0.000003 -0.000001 0.000004
Ga 4.816525 -0.969378 -0.145293 -0.000003 0.000001 -0.000002
Ga -3.247049 1.831548 5.090825 0.000001 -0.000001 0.000002
Ga -3.231864 1.828400 -5.386596 0.000003 0.000000 -0.000001
Ga -3.237490 1.812568 -0.144449 -0.000000 0.000003 0.000003
Al -0.017663 -3.760249 5.085876 -0.000001 -0.000002 0.000001
Ga -0.020974 -3.764245 -5.371011 0.000003 -0.000003 -0.000003
Ga -0.034787 -3.754653 -0.154380 -0.000007 0.000002 0.000002
Ga -1.628943 -0.977378 5.082655 -0.000003 -0.000003 -0.000001
Ga -1.627064 -0.961230 -5.376883 -0.000001 -0.000002 -0.000002
Al -1.630646 -0.968661 -0.144376 -0.000003 -0.000001 0.000003
N 1.589017 0.889977 4.381297 0.000001 0.000002 0.000001
N 1.544488 0.916123 -5.989227 0.000000 0.000001 0.000001
N 1.582557 0.892697 -0.786796 0.000003 -0.000007 -0.000002
N -0.025421 3.681782 4.387261 0.000005 -0.000008 -0.000001
N -0.020238 3.628804 -5.989715 0.000001 -0.000000 0.000003
N -0.022930 3.672961 -0.788188 0.000003 -0.000003 -0.000001
N 3.197625 -1.902758 4.448710 -0.000003 -0.000001 0.000004
N 3.196350 -1.898780 -6.014184 0.000004 -0.000003 -0.000005
N 3.193183 -1.901180 -0.770974 0.000006 -0.000002 -0.000002
N -4.852318 0.892364 4.446604 -0.000001 -0.000001 0.000000
N -4.855897 0.891737 -6.005296 0.000004 -0.000003 -0.000003
N -4.856400 0.893244 -0.781745 0.000002 0.000001 0.000006
N -6.420007 3.704358 4.467031 0.000001 0.000004 -0.000001
N -6.461478 3.681707 -6.026602 -0.000001 0.000001 0.000001
N -6.466254 3.677086 -0.835791 -0.000001 0.000004 -0.000003
N -3.239881 -1.898206 4.432549 0.000008 -0.000001 -0.000004
N -3.242706 -1.903251 -6.005636 0.000000 0.000001 -0.000003
N -3.198458 -1.877456 -0.758090 -0.000002 0.000017 -0.000013
N -1.636765 0.887156 4.441518 -0.000003 0.000002 -0.000000
N -1.587807 0.915985 -5.999515 0.000000 0.000002 -0.000001
N -1.626291 0.843965 -0.762234 0.000007 -0.000006 -0.000001
N -3.286398 3.703716 4.459883 0.000004 0.000004 -0.000004
N -3.250953 3.682517 -6.076634 0.000000 0.000001 0.000002
N -3.243038 3.679979 -0.778284 0.000006 -0.000003 0.000001
N -0.025777 -1.950048 4.458852 0.000003 0.000001 0.000003
N -0.021799 -1.905711 -6.018034 -0.000002 0.000002 0.000001
N -0.064578 -1.873798 -0.761658 0.000007 -0.000007 -0.000001
N 0.019530 1.844854 1.868248 -0.000002 0.000003 0.000002
N -0.019339 1.821866 7.036811 -0.000003 0.000004 -0.000001
N -0.026114 1.817614 -3.452042 -0.000001 0.000002 0.000000
N 3.240449 -3.786212 1.854794 0.000000 0.000002 -0.000002
N 3.159526 -3.787322 7.074146 -0.000003 0.000001 0.000001
N 3.194680 -3.761621 -3.406573 0.000004 -0.000001 -0.000006
N 1.584745 -0.920387 1.855703 0.000002 0.000001 -0.000001
N 1.586034 -0.962187 7.050950 -0.000002 0.000002 -0.000000
N 1.583840 -0.970230 -3.392234 0.000007 0.000003 -0.000004
N 3.153958 1.800626 1.845176 0.000002 -0.000003 0.000001
N 3.191635 1.815614 7.053008 0.000001 0.000003 -0.000005
N 3.195805 1.871108 -3.381411 -0.000000 -0.000004 0.000004
N 6.379776 -3.787864 1.844308 -0.000001 -0.000000 0.000005
N 6.412320 -3.761757 7.051553 0.000002 0.000000 -0.000004
N 6.462419 -3.782468 -3.374770 0.000002 -0.000002 0.000004
N 4.806757 -0.969317 1.829604 0.000006 -0.000003 0.000002
N 4.808518 -0.968640 7.057246 0.000002 0.000001 -0.000002
N 4.810457 -0.971808 -3.385795 0.000000 -0.000003 -0.000004
N -3.243314 1.820126 1.833755 0.000009 0.000002 -0.000005
N -3.242750 1.868389 7.079314 0.000004 -0.000001 0.000002
N -3.239243 1.821754 -3.401893 -0.000005 -0.000000 -0.000004
N -0.027331 -3.761474 1.823927 0.000005 -0.000000 -0.000004
N 0.020663 -3.782622 7.012257 0.000000 -0.000003 0.000003
N -0.064236 -3.783089 -3.379564 0.000000 -0.000001 0.000004
N -1.630660 -0.969298 1.776595 -0.000003 0.000009 0.000001
N -1.632794 -0.967469 7.063081 -0.000001 -0.000003 0.000001
N -1.632328 -0.968334 -3.399656 0.000001 -0.000003 0.000001
