108
Energy=-1.489500e+06 Lattice="9.514713e+00 0.000000e+00 0.000000e+00 -4.761952e+00 8.236157e+00 0.000000e+00 2.623628e-03 -1.708811e-03 1.536414e+01" Stress="-3.221728e-03 -3.288993e-04 -7.709826e-05 -3.324640e-04 -3.660492e-03 -7.221111e-05 -7.447974e-05 -8.909588e-05 -2.573923e-03" Properties=species:S:1:pos:R:3:forces:R:3 Config_type=AlGaN_super3_23_1_33.xyz
Al 1.576152e+00 8.760466e-01 2.424436e+00 -1.258359e-03 -2.470203e-03 -7.461320e-04
Al 1.565803e+00 8.818951e-01 7.522768e+00 -2.778709e-04 -8.905043e-04 5.945133e-04
Al 1.560482e+00 8.823784e-01 -2.704449e+00 1.109342e-04 -8.829334e-05 5.352946e-04
Al -3.182878e-02 3.632577e+00 2.431709e+00 8.990339e-04 4.927490e-04 -1.598463e-03
Al -3.668417e-02 3.615839e+00 7.511989e+00 2.904952e-05 1.033327e-04 7.733607e-04
Al -2.914081e-02 3.615386e+00 -2.706226e+00 1.186812e-04 8.162976e-05 2.805171e-04
Al 3.159729e+00 -1.876140e+00 2.391660e+00 -8.962709e-04 -2.219450e-05 -2.033074e-04
Al 3.160034e+00 -1.876910e+00 7.505021e+00 1.940035e-04 -2.830411e-05 6.091235e-04
Ga 3.165948e+00 -1.871073e+00 -2.670250e+00 -2.376361e-04 1.034286e-04 1.082832e-03
Al -4.795016e+00 8.658800e-01 2.425152e+00 -6.003061e-05 2.903453e-04 3.048173e-04
Al -4.786163e+00 8.733411e-01 7.512638e+00 -3.484993e-04 -1.068750e-03 -6.150549e-04
Al -4.777606e+00 8.742606e-01 -2.706585e+00 2.159612e-04 6.426953e-05 3.067016e-04
Al -6.369667e+00 3.616651e+00 2.416334e+00 1.178123e-03 2.066872e-04 2.387502e-04
Ga -6.372877e+00 3.600455e+00 7.518703e+00 -7.068545e-05 -3.610483e-05 5.472228e-04
Ga -6.361564e+00 3.619660e+00 -2.700181e+00 -4.142185e-05 3.053551e-04 -8.273532e-05
Al -3.210439e+00 -1.874989e+00 2.432879e+00 1.092298e-03 5.294629e-04 -6.164153e-04
Ga -3.209451e+00 -1.868440e+00 7.513901e+00 -4.441046e-04 1.478890e-05 3.812570e-04
Al -3.200674e+00 -1.862123e+00 -2.703536e+00 -3.074628e-06 1.974636e-04 4.107643e-04
Ga -1.613993e+00 8.818194e-01 2.421556e+00 7.232888e-04 -4.625604e-04 -5.099693e-04
Al -1.612093e+00 8.942912e-01 7.562643e+00 3.336396e-04 -2.712280e-04 5.667239e-04
Ga -1.618690e+00 8.915266e-01 -2.739378e+00 5.616293e-04 -5.211666e-04 2.446155e-04
Al -3.193974e+00 3.639989e+00 2.411597e+00 4.025260e-04 -8.150049e-04 -1.369672e-03
Al -3.182370e+00 3.617104e+00 7.534647e+00 3.004230e-04 -7.734701e-04 -2.878699e-04
Al -3.198666e+00 3.615364e+00 -2.705544e+00 -3.681465e-04 5.311856e-04 2.232175e-04
Al -9.926223e-03 -1.877448e+00 2.396491e+00 5.659900e-04 2.161965e-04 -7.364163e-04
Ga -9.697124e-03 -1.865020e+00 7.552250e+00 1.544939e-04 -2.851617e-04 6.811361e-04
Ga -1.849268e-02 -1.873957e+00 -2.702426e+00 1.032234e-05 -5.058917e-04 5.436068e-04
Ga -8.104605e-03 1.806412e+00 4.987566e+00 -6.912888e-04 4.741951e-04 5.720139e-04
Al -2.920233e-02 1.791535e+00 -5.287099e+00 4.124054e-04 -2.719909e-04 -3.097915e-04
Ga -1.609651e-02 1.797572e+00 -1.353439e-01 3.256794e-04 -2.910710e-05 6.561614e-05
Al 3.162248e+00 -3.693336e+00 4.967478e+00 1.239652e-03 4.183837e-05 2.061197e-04
Ga 3.142712e+00 -3.719065e+00 -5.279092e+00 2.393144e-05 4.789207e-04 1.062461e-03
Al 3.145718e+00 -3.694311e+00 -1.410523e-01 -1.067147e-03 -4.053265e-04 9.764811e-04
Ga 1.591296e+00 -9.589454e-01 4.962740e+00 -4.386885e-04 -4.191624e-04 5.209308e-04
Ga 1.562484e+00 -9.499293e-01 -5.277875e+00 -3.236303e-04 3.749755e-04 7.767057e-04
Al 1.572708e+00 -9.573232e-01 -1.254979e-01 7.198459e-04 -7.173576e-04 1.543028e-03
Al 3.148186e+00 1.779918e+00 4.954629e+00 4.854764e-04 1.114802e-03 1.102288e-03
Ga 3.149152e+00 1.785766e+00 -5.268077e+00 -1.017272e-04 -2.688259e-04 7.868961e-04
Ga 3.153911e+00 1.775204e+00 -1.338801e-01 -6.831846e-04 -2.314643e-04 2.568376e-04
Al 6.312213e+00 -3.704635e+00 4.942509e+00 -6.961681e-05 -2.236345e-04 4.349580e-04
Ga 6.318286e+00 -3.700043e+00 -5.258451e+00 -6.272321e-05 2.124425e-05 4.845140e-04
Ga 6.309119e+00 -3.687430e+00 -1.250216e-01 3.374118e-04 4.102922e-05 -3.328212e-04
Al 4.726244e+00 -9.644539e-01 4.952676e+00 2.679613e-04 4.461384e-04 1.387401e-03
Ga 4.746438e+00 -9.415222e-01 -5.273552e+00 -3.948931e-04 -2.886578e-04 9.642813e-04
Al 4.730829e+00 -9.558791e-01 -1.317507e-01 1.643609e-03 -3.315042e-04 6.962875e-04
Ga -3.212351e+00 1.797848e+00 4.985622e+00 2.136820e-04 -1.856813e-04 4.166810e-04
Al -3.201566e+00 1.798650e+00 -5.286107e+00 -2.944355e-04 6.259937e-04 -1.361595e-03
Ga -3.216575e+00 1.807535e+00 -1.360112e-01 2.459567e-04 4.218285e-04 -3.401679e-04
Ga -1.804481e-02 -3.710236e+00 4.951081e+00 -2.166708e-04 3.076449e-04 2.129254e-04
Al -1.058831e-02 -3.704464e+00 -5.272831e+00 2.361092e-05 3.268595e-06 6.950444e-04
Al -4.332348e-04 -3.694247e+00 -1.178773e-01 2.946110e-04 -2.138258e-04 3.634736e-04
Ga -1.614341e+00 -9.646155e-01 4.971577e+00 -3.738188e-04 1.344339e-04 1.780521e-04
Al -1.607298e+00 -9.434451e-01 -5.269768e+00 -2.900604e-04 1.018499e-04 4.541788e-04
Ga -1.610881e+00 -9.675351e-01 -1.281636e-01 -4.091387e-04 -1.494248e-04 -6.476668e-04
N 1.600119e+00 8.938762e-01 4.330607e+00 -2.412762e-04 2.937684e-04 -1.347958e-03
N 1.524291e+00 9.011429e-01 -5.930497e+00 -3.864458e-04 5.603202e-04 -4.397168e-04
N 1.559690e+00 8.276954e-01 -7.895173e-01 -1.688145e-04 2.187840e-04 -6.717819e-04
N -3.029321e-02 3.665512e+00 4.341624e+00 -1.036882e-03 6.223850e-05 4.223569e-04
N -2.435381e-02 3.580647e+00 -5.934783e+00 -3.190189e-05 -4.472037e-04 -6.560206e-04
N -6.688735e-02 3.644104e+00 -7.928402e-01 -2.476747e-04 1.284211e-04 2.923003e-05
N 3.196517e+00 -1.901032e+00 4.321332e+00 -5.342112e-04 -3.648643e-04 -1.342159e-03
N 3.158758e+00 -1.875074e+00 -5.943904e+00 -1.702922e-04 2.348069e-05 -1.300816e-03
N 3.155550e+00 -1.867696e+00 -6.794996e-01 -1.141333e-03 -1.569933e-04 -1.120437e-03
N -4.819486e+00 8.464833e-01 4.343056e+00 -1.219394e-04 1.172743e-04 -5.828793e-04
N -4.749337e+00 8.983940e-01 -5.939838e+00 1.069218e-03 4.587375e-04 1.548111e-04
N -4.779194e+00 8.247456e-01 -7.949132e-01 -1.767013e-04 5.346607e-04 3.061908e-05
N -6.405909e+00 3.592914e+00 4.338272e+00 -2.758818e-04 -5.248420e-04 -8.759641e-05
N -6.333098e+00 3.642645e+00 -5.868362e+00 1.520213e-04 2.135994e-04 -6.983746e-04
N -6.323469e+00 3.648495e+00 -7.244433e-01 1.183253e-04 2.067476e-04 5.667259e-04
N -3.235881e+00 -1.892053e+00 4.347741e+00 -2.064886e-04 1.615528e-04 -1.735160e-04
N -3.154044e+00 -1.849762e+00 -5.881983e+00 2.026217e-04 3.885984e-04 -6.340385e-04
N -3.233792e+00 -1.844213e+00 -7.918473e-01 -9.919576e-04 4.407571e-04 4.984588e-04
N -1.610886e+00 8.835800e-01 4.374007e+00 6.071804e-04 3.060681e-08 -6.873928e-04
N -1.614648e+00 8.826690e-01 -5.866528e+00 2.559041e-04 -1.129916e-04 -2.013468e-04
N -1.617037e+00 8.812694e-01 -7.647510e-01 7.552700e-04 -3.190790e-04 3.448391e-04
N -3.145572e+00 3.646890e+00 4.318252e+00 -1.622158e-04 -2.860414e-04 1.911108e-04
N -3.236856e+00 3.604922e+00 -5.917293e+00 -1.014682e-04 -1.419080e-03 3.724127e-04
N -3.199924e+00 3.673061e+00 -7.793344e-01 3.577003e-04 1.735774e-05 -1.786825e-04
N -1.504304e-02 -1.867645e+00 4.301293e+00 4.566850e-04 -2.013259e-04 -3.622342e-04
N -6.276323e-02 -1.891782e+00 -5.838309e+00 -2.459541e-05 -3.492201e-04 -4.623787e-04
N 2.269392e-02 -1.892217e+00 -7.155060e-01 -1.081835e-04 -6.183286e-05 -8.144167e-05
N 2.398593e-02 1.815347e+00 1.837859e+00 -5.263757e-04 1.767405e-03 8.596053e-04
N -2.678458e-02 1.787214e+00 6.969717e+00 2.170500e-04 9.333024e-05 -2.183101e-04
N 2.284375e-02 1.816431e+00 -3.356733e+00 9.316311e-06 6.456296e-04 -6.207208e-04
N 3.153902e+00 -3.707465e+00 1.785893e+00 1.934653e-04 4.968298e-06 1.840595e-04
N 3.149162e+00 -3.704117e+00 6.902490e+00 -8.226410e-05 -6.344660e-05 -7.538778e-04
N 3.149065e+00 -3.745852e+00 -3.293143e+00 1.625333e-04 -1.550274e-04 -2.636311e-04
N 1.570758e+00 -9.486038e-01 1.803876e+00 -2.703220e-04 -1.188425e-04 2.334027e-05
N 1.608449e+00 -9.344054e-01 6.943732e+00 -6.077849e-04 3.856878e-04 -5.573916e-04
N 1.577121e+00 -9.106895e-01 -3.303973e+00 -2.735765e-04 2.224418e-04 -5.653021e-04
N 3.143588e+00 1.783363e+00 1.846829e+00 2.506544e-03 1.514706e-03 3.686629e-04
N 3.144804e+00 1.736264e+00 6.879227e+00 8.985086e-04 1.115959e-03 -5.916402e-04
N 3.147350e+00 1.741125e+00 -3.287336e+00 2.612884e-04 -1.823596e-04 -3.806743e-06
N 6.322861e+00 -3.696774e+00 1.860208e+00 -2.139763e-03 -9.628925e-04 -1.278368e-04
N 6.281097e+00 -3.728282e+00 6.861844e+00 -1.321393e-05 -1.560172e-04 -4.306116e-04
N 6.278398e+00 -3.675540e+00 -3.280050e+00 5.749445e-05 -3.201608e-04 8.919518e-05
N 4.742113e+00 -9.509006e-01 1.796995e+00 2.674094e-04 -1.119945e-04 2.105564e-04
N 4.693395e+00 -9.331535e-01 6.875116e+00 2.017902e-04 5.980937e-04 -6.500606e-04
N 4.773269e+00 -9.287113e-01 -3.296022e+00 -2.762064e-04 -3.508833e-04 -5.105293e-04
N -3.247420e+00 1.818230e+00 1.838422e+00 -7.416614e-04 5.733128e-04 9.198972e-05
N -3.196681e+00 1.789455e+00 6.970513e+00 1.977214e-04 1.118294e-03 7.862701e-05
N -3.247187e+00 1.820793e+00 -3.358670e+00 -1.995082e-04 3.678102e-04 3.887195e-04
N -1.913394e-02 -3.705188e+00 1.806345e+00 -8.860915e-05 -1.646556e-04 2.221351e-04
N 2.195907e-02 -3.723725e+00 6.921069e+00 1.294367e-04 -2.237205e-04 -5.510705e-04
N 2.511685e-02 -3.723679e+00 -3.361458e+00 1.373151e-04 -1.718131e-04 -4.291833e-04
N -1.613484e+00 -1.003929e+00 1.842973e+00 -1.117905e-03 -5.207285e-04 3.739317e-04
N -1.602856e+00 -9.027934e-01 6.941554e+00 -1.736848e-04 4.309578e-05 -7.590840e-04
N -1.646249e+00 -9.773513e-01 -3.354444e+00 -2.767681e-04 -2.813066e-04 -1.631116e-04
