108
Energy=-665541.686886 Lattice="9.422503 0.000000 0.000000 -4.715229 8.161108 0.000000 -0.009377 0.010257 15.123351" Stress="-0.000001 -0.000001 -0.000003 -0.000001 -0.000001 0.000003 -0.000003 0.000003 -0.000003" Properties=species:S:1:pos:R:3:forces:R:3
Al 1.540999 0.869351 2.357422 0.000366 0.000127 0.000052
Al 1.538730 0.876439 7.422160 0.000206 -0.000128 -0.000016
Al 1.554335 0.871956 -2.665898 0.000275 0.000666 0.000241
Al -0.030299 3.585723 2.356691 0.000190 0.000069 -0.000056
Al -0.029996 3.585321 7.414524 -0.000104 0.000032 -0.000027
Al -0.015862 3.582252 -2.657505 0.000095 0.000023 -0.000106
Al 3.122431 -1.853291 2.367390 0.000179 -0.000067 -0.000193
Al 3.125481 -1.842915 7.397395 0.000021 -0.000163 0.000120
Al 3.130353 -1.848438 -2.651479 0.000833 -0.000265 0.000174
Al -4.732658 0.865755 2.358098 0.000030 0.000069 -0.000191
Al -4.733190 0.868749 7.423898 0.000312 0.000026 -0.000131
Al -4.732714 0.865940 -2.671953 0.000066 0.000151 -0.000219
Al -6.305223 3.589723 2.349282 -0.000303 -0.000279 -0.001052
Al -6.309270 3.590115 7.436692 0.000128 0.000160 -0.000036
Al -6.308752 3.578472 -2.665257 0.000081 -0.000011 -0.000061
Al -3.165597 -1.846553 2.358193 -0.000027 -0.000118 -0.000154
Al -3.176334 -1.840299 7.422891 0.000105 0.000010 -0.000147
Al -3.169503 -1.854089 -2.666512 0.000060 -0.000176 0.000035
Al -1.596271 0.872443 2.367316 0.000260 -0.000100 0.000162
Al -1.603857 0.883045 7.408538 0.000188 -0.000228 -0.000102
Al -1.598189 0.875546 -2.666159 0.000217 -0.000036 0.000258
Al -3.165030 3.588879 2.367125 0.000265 -0.000300 -0.000022
Al -3.170990 3.583169 7.397611 0.000063 -0.000077 0.000157
Al -3.164284 3.574389 -2.651279 -0.000072 -0.000090 0.000069
Al -0.023640 -1.850891 2.366389 0.000143 -0.000029 -0.000052
Ga -0.025852 -1.848231 7.415377 0.000328 -0.000272 -0.000068
Ga -0.017668 -1.853127 -2.662622 0.000067 -0.000314 0.000083
Al -0.039645 1.769573 4.885467 0.000044 0.000089 0.000193
Al -0.018077 1.761034 -5.183622 -0.000022 0.000290 0.000022
Al -0.024192 1.772077 -0.154021 0.000043 0.000349 0.000353
Al 3.110287 -3.664085 4.886799 -0.000101 0.000178 -0.000209
Ga 3.121502 -3.669478 -5.183862 -0.000365 0.000142 -0.000083
Al 3.119835 -3.665941 -0.151877 0.000100 0.000024 0.000079
Al 1.546211 -0.946686 4.873784 -0.000201 0.000017 -0.000146
Al 1.560386 -0.937373 -5.182333 -0.000014 -0.000650 -0.000542
Al 1.555374 -0.941920 -0.135685 -0.000117 -0.000365 0.000313
Ga 3.117226 1.771260 4.895150 0.000019 -0.000276 0.000138
Al 3.120041 1.769987 -5.188151 0.000073 0.000095 -0.000267
Al 3.117579 1.772940 -0.155449 0.000008 0.000097 0.000876
Ga 6.254402 -3.654491 4.891907 -0.000014 0.000048 -0.000059
Al 6.271900 -3.668310 -5.186322 0.000073 -0.000107 -0.000237
Al 6.260588 -3.664236 -0.151053 0.000160 -0.000285 0.000362
Al 4.689516 -0.940932 4.886654 -0.000208 -0.000145 0.000017
Al 4.695920 -0.943619 -5.183996 -0.000210 -0.000022 0.000064
Al 4.689795 -0.944024 -0.153639 -0.000131 -0.000187 0.000408
Al -3.160510 1.777393 4.884172 -0.000055 0.000066 -0.000016
Al -3.164286 1.765564 -5.188378 -0.000204 0.000189 0.000190
Al -3.164869 1.774367 -0.150060 -0.000088 -0.000054 0.000341
Al -0.014035 -3.659908 4.875297 0.000309 0.000223 0.000135
Al -0.022968 -3.680817 -5.180056 0.000174 -0.001578 0.000429
Al -0.019617 -3.672174 -0.135511 -0.000098 -0.000019 -0.001277
Al -1.595556 -0.931205 4.878093 -0.000013 -0.000126 -0.000071
Al -1.599794 -0.940141 -5.185016 0.001341 -0.001254 -0.000679
Al -1.598056 -0.939404 -0.140446 0.000400 -0.000599 -0.000028
N 1.501805 0.850904 4.266956 0.000161 0.000195 0.000001
N 1.546835 0.864086 -5.784645 -0.000192 -0.000140 0.000041
N 1.547193 0.866044 -0.748167 0.000021 0.000037 0.000038
N -0.068396 3.566536 4.271251 0.000039 -0.000108 0.000110
N 0.017973 3.556987 -5.797675 0.000064 -0.000035 0.000153
N -0.021196 3.586281 -0.743058 -0.000022 -0.000071 -0.000068
N 3.121370 -1.851687 4.287761 0.000138 -0.000044 0.000202
N 3.125008 -1.809634 -5.813211 0.000420 0.000012 0.000006
N 3.119044 -1.849512 -0.740293 0.000206 -0.000071 0.000219
N -4.697174 0.847842 4.268532 0.000106 0.000182 0.000045
N -4.729058 0.861598 -5.780411 0.000145 0.000075 0.000131
N -4.734138 0.868041 -0.753590 0.000206 0.000094 0.000223
N -6.271321 3.612754 4.245974 -0.000242 -0.000130 0.000830
N -6.301269 3.585210 -5.775636 -0.000244 -0.000150 0.000184
N -6.305958 3.588353 -0.745653 0.000001 -0.000019 -0.000025
N -3.166141 -1.801853 4.265325 0.000052 -0.000091 0.000107
N -3.161857 -1.853898 -5.783324 0.000211 0.000005 0.000098
N -3.161779 -1.851852 -0.748988 0.000057 0.000044 0.000142
N -1.598866 0.874507 4.283531 0.000254 -0.000104 -0.000038
N -1.591474 0.868111 -5.792628 0.000395 -0.000364 -0.000142
N -1.595558 0.868765 -0.749867 0.000065 -0.000105 -0.000128
N -3.166298 3.590403 4.286020 0.000033 -0.000230 0.000113
N -3.203545 3.559558 -5.813254 0.000342 -0.000490 -0.000160
N -3.167807 3.586251 -0.739426 -0.000020 -0.000244 0.000025
N -0.026552 -1.848224 4.288946 0.000046 -0.000178 0.000148
N -0.012278 -1.866460 -5.726283 -0.002062 0.004245 0.000451
N -0.020061 -1.853220 -0.689369 -0.000430 0.000678 0.000540
N -0.026767 1.774229 1.761083 -0.000161 -0.000027 -0.000185
N -0.027745 1.776323 6.807218 -0.000066 0.000233 -0.000023
N -0.020941 1.770400 -3.262638 -0.000166 0.000196 -0.000084
N 3.118228 -3.665038 1.766922 -0.000209 0.000331 -0.000102
N 3.117119 -3.663222 6.811579 0.000084 0.000191 0.000024
N 3.121702 -3.668812 -3.205344 0.000029 0.000200 0.000116
N 1.552704 -0.946215 1.779654 -0.000374 0.000141 -0.000345
N 1.585605 -0.915658 6.786711 -0.000339 0.000321 -0.000027
N 1.601409 -0.922367 -3.274831 -0.001208 -0.000195 -0.000547
N 3.116666 1.772559 1.766727 -0.000149 -0.000083 -0.001123
N 3.113680 1.779590 6.873744 -0.000110 -0.000080 0.000080
N 3.119472 1.772347 -3.267405 -0.000095 -0.000004 0.000222
N 6.257569 -3.663992 1.768511 -0.000126 0.000228 -0.000515
N 6.258972 -3.659560 6.869134 -0.000031 -0.000058 0.000065
N 6.263601 -3.667544 -3.264198 -0.000114 0.000051 0.000100
N 4.687378 -0.945601 1.761768 -0.000174 0.000096 -0.000431
N 4.689700 -0.937682 6.805697 -0.000170 -0.000044 0.000014
N 4.690952 -0.948505 -3.265266 -0.000069 -0.000073 0.000091
N -3.164355 1.776354 1.767658 -0.000161 0.000203 -0.000357
N -3.170919 1.776247 6.804110 -0.000132 -0.000041 0.000043
N -3.162263 1.773863 -3.268238 -0.000068 0.000087 -0.000020
N -0.017888 -3.666443 1.771983 0.000067 0.000339 0.000759
N -0.029542 -3.708483 6.787120 -0.000177 -0.000050 0.000024
N -0.016228 -3.719499 -3.273298 -0.000096 0.000023 0.000213
N -1.593819 -0.940821 1.775107 -0.000174 0.000103 -0.000337
N -1.638039 -0.916524 6.794773 -0.000212 0.000095 0.000163
N -1.633154 -0.920647 -3.277512 -0.000225 0.000001 -0.000092
