108
Energy=-2176132.848679 Lattice="9.608670 0.000000 0.000000 -4.805224 8.319178 0.000000 -0.000583 -0.000093 15.572579" Stress="0.000000 -0.000000 -0.000001 -0.000000 -0.000001 -0.000000 -0.000001 0.000000 0.000000" Properties=species:S:1:pos:R:3:forces:R:3
Al 1.566927 0.889585 2.434370 0.000147 -0.000097 0.000055
Al 1.573648 0.891503 7.650364 0.000101 -0.000003 0.000069
Ga 1.568796 0.872441 -2.745714 0.000084 0.000080 -0.000007
Al -0.018022 3.639577 2.461284 0.000072 -0.000079 -0.000076
Ga -0.003463 3.641172 7.641871 0.000050 0.000003 0.000059
Al -0.018563 3.651602 -2.758138 0.000039 0.000031 -0.000046
Ga 3.178321 -1.881650 2.440504 0.000099 -0.000095 0.000066
Ga 3.175906 -1.875894 7.648293 0.000037 0.000023 0.000021
Ga 3.163964 -1.882458 -2.740361 0.000054 -0.000009 0.000037
Ga -4.839467 0.879209 2.465136 0.000096 0.000021 0.000077
Ga -4.837650 0.888196 7.645486 0.000134 0.000083 0.000045
Al -4.815173 0.889829 -2.759911 0.000038 0.000009 0.000086
Ga -6.432148 3.653597 2.430266 0.000060 -0.000078 0.000136
Al -6.440541 3.651555 7.659954 0.000025 0.000007 -0.000016
Ga -6.435701 3.659839 -2.741749 0.000087 0.000033 0.000085
Ga -3.234585 -1.890980 2.449525 0.000090 -0.000110 0.000005
Ga -3.220632 -1.897598 7.667852 0.000079 -0.000010 0.000075
Ga -3.213584 -1.891168 -2.770185 0.000054 0.000060 0.000058
Ga -1.603579 0.896864 2.451594 0.000162 -0.000060 0.000042
Ga -1.611492 0.887023 7.660494 0.000082 -0.000047 0.000056
Al -1.628633 0.881371 -2.768887 0.000110 -0.000006 0.000015
Ga -3.227800 3.663913 2.427797 0.000150 -0.000093 0.000068
Ga -3.233627 3.651556 7.670745 0.000078 -0.000122 0.000011
Ga -3.224988 3.643809 -2.745521 0.000021 -0.000071 -0.000002
Ga -0.012922 -1.885800 2.429090 0.000048 -0.000095 0.000209
Ga -0.020780 -1.880314 7.666749 0.000045 -0.000033 0.000016
Al -0.018269 -1.872640 -2.750644 0.000047 -0.000043 0.000069
Al -0.010763 1.806500 5.039787 0.000030 0.000124 -0.000028
Ga -0.025868 1.800196 -5.321580 -0.000015 0.000140 0.000075
Ga -0.021753 1.809369 -0.164829 0.000042 -0.000049 0.000168
Ga 3.192074 -3.740762 5.036931 0.000016 0.000192 -0.000047
Ga 3.186815 -3.738542 -5.321343 0.000002 0.000151 0.000014
Ga 3.182448 -3.736264 -0.152989 -0.000020 0.000024 0.000009
Ga 1.581630 -0.943400 5.042407 -0.000023 0.000117 0.000095
Al 1.563661 -0.957810 -5.335471 -0.000035 0.000074 0.000015
Al 1.566336 -0.969674 -0.149553 -0.000024 -0.000067 -0.000004
Ga 3.158890 1.801707 5.057444 0.000008 0.000070 0.000010
Ga 3.174748 1.809119 -5.345691 0.000007 0.000056 0.000008
Ga 3.182089 1.801171 -0.153989 0.000037 0.000002 -0.000009
Ga 6.375094 -3.739370 5.044078 0.000030 0.000079 0.000006
Al 6.390149 -3.738936 -5.335383 -0.000017 0.000060 -0.000012
Ga 6.378736 -3.742161 -0.144224 0.000080 -0.000033 0.000029
Al 4.781291 -0.966153 5.058243 -0.000034 0.000016 -0.000002
Ga 4.788441 -0.961124 -5.320867 -0.000053 0.000049 0.000059
Ga 4.773644 -0.954053 -0.172195 0.000040 -0.000122 -0.000245
Ga -3.220316 1.803600 5.046139 0.000038 0.000112 0.000029
Al -3.221669 1.793402 -5.313344 -0.000029 0.000033 -0.000008
Ga -3.231084 1.805835 -0.168043 -0.000046 -0.000009 -0.000114
Ga -0.025905 -3.738009 5.070389 0.000031 0.000065 0.000062
Ga -0.035001 -3.724932 -5.327947 0.000016 0.000114 0.000032
Al -0.017353 -3.717754 -0.178025 0.000002 -0.000021 -0.000170
Ga -1.628917 -0.956079 5.049594 -0.000023 0.000025 0.000065
Al -1.615561 -0.960951 -5.312695 -0.000017 0.000045 0.000024
Ga -1.603471 -0.965854 -0.178996 -0.000066 -0.000154 -0.000016
N 1.534988 0.909466 4.361791 0.000111 -0.000088 -0.000013
N 1.571088 0.839314 -5.997047 0.000033 -0.000016 0.000044
N 1.577388 0.831523 -0.768792 0.000017 0.000097 -0.000080
N -0.021442 3.604882 4.385754 0.000021 -0.000104 0.000142
N 0.020118 3.676044 -5.952040 -0.000004 -0.000178 -0.000080
N -0.018960 3.658935 -0.845541 0.000027 0.000006 0.000146
N 3.219270 -1.860174 4.429298 -0.000031 -0.000159 -0.000009
N 3.137870 -1.861382 -5.940468 0.000110 -0.000144 -0.000041
N 3.130138 -1.863307 -0.759918 0.000051 -0.000064 -0.000079
N -4.834346 0.837903 4.449571 0.000014 -0.000023 -0.000098
N -4.784796 0.907418 -5.950232 -0.000021 -0.000060 -0.000072
N -4.828677 0.890706 -0.848929 0.000071 0.000044 -0.000082
N -6.424666 3.657563 4.407867 -0.000061 -0.000114 -0.000057
N -6.471244 3.681816 -5.992384 0.000050 -0.000104 0.000040
N -6.392259 3.682401 -0.759410 -0.000058 -0.000069 -0.000107
N -3.268941 -1.862334 4.433201 0.000058 -0.000163 -0.000075
N -3.179683 -1.910782 -5.909667 -0.000074 -0.000036 -0.000030
N -3.221847 -1.892592 -0.795180 0.000007 -0.000003 -0.000103
N -1.577923 0.911815 4.431990 0.000011 -0.000132 -0.000068
N -1.664407 0.860163 -5.920149 0.000077 -0.000055 -0.000113
N -1.625023 0.887062 -0.849383 0.000039 -0.000008 -0.000020
N -3.232552 3.662561 4.407228 -0.000061 -0.000177 -0.000037
N -3.227504 3.606089 -5.919792 -0.000031 -0.000086 -0.000012
N -3.264095 3.679745 -0.765820 0.000014 -0.000177 -0.000097
N -0.019968 -1.890637 4.409620 -0.000042 -0.000173 -0.000079
N -0.025625 -1.835837 -5.925922 0.000018 -0.000202 -0.000083
N 0.025709 -1.904996 -0.815606 -0.000026 0.000043 -0.000046
N 0.018446 1.836230 1.826956 -0.000172 0.000159 -0.000253
N 0.021435 1.780114 6.973918 -0.000105 0.000137 0.000037
N -0.061998 1.830381 -3.340133 -0.000025 -0.000014 -0.000048
N 3.231780 -3.764287 1.835515 -0.000131 0.000264 -0.000058
N 3.182360 -3.741251 7.020668 -0.000031 0.000058 -0.000043
N 3.221871 -3.759770 -3.346282 -0.000098 0.000126 -0.000033
N 1.577306 -0.915419 1.776868 -0.000113 0.000220 0.000045
N 1.576882 -0.910537 7.025041 -0.000077 0.000013 -0.000075
N 1.536018 -0.985356 -3.419919 -0.000074 0.000025 0.000018
N 3.140547 1.779484 1.829363 -0.000044 0.000061 0.000035
N 3.130702 1.832986 7.056696 -0.000037 -0.000036 -0.000074
N 3.215609 1.785442 -3.362675 -0.000126 0.000060 -0.000052
N 6.335352 -3.762758 1.837496 -0.000045 0.000131 -0.000032
N 6.426483 -3.759194 7.024881 -0.000103 0.000006 -0.000062
N 6.344826 -3.768356 -3.417446 0.000014 0.000033 0.000053
N 4.781951 -0.959582 1.797420 -0.000159 0.000117 0.000271
N 4.787325 -0.968462 6.978249 -0.000098 -0.000052 -0.000000
N 4.777964 -0.919698 -3.348423 -0.000083 -0.000057 -0.000066
N -3.228198 1.800029 1.811455 -0.000099 0.000070 0.000168
N -3.221507 1.807456 7.015639 -0.000094 0.000068 0.000009
N -3.225058 1.758670 -3.390157 -0.000117 0.000144 -0.000009
N -0.023684 -3.731622 1.740579 -0.000126 0.000138 0.000097
N -0.065122 -3.760195 7.056688 -0.000032 0.000078 0.000023
N -0.025579 -3.686944 -3.350952 -0.000057 -0.000027 -0.000068
N -1.623899 -0.960421 1.803143 -0.000098 0.000102 0.000055
N -1.624671 -0.963890 7.021826 -0.000095 -0.000047 -0.000044
N -1.575017 -0.941062 -3.385649 -0.000162 -0.000026 -0.000040
