108
Energy=-1077520.908724 Lattice="9.471514 0.000000 0.000000 -4.736033 8.202162 0.000000 -0.006103 0.006863 15.253771" Stress="0.000001 -0.000001 -0.000001 -0.000001 -0.000000 0.000001 -0.000001 0.000001 -0.000000" Properties=species:S:1:pos:R:3:forces:R:3
Al 1.557058 0.868782 2.407065 -0.000009 0.000027 0.000026
Al 1.550095 0.879374 7.460535 -0.000027 -0.000053 -0.000038
Al 1.544825 0.857282 -2.691188 -0.000108 -0.000103 -0.000021
Al -0.023534 3.602912 2.405747 0.000150 0.000068 -0.000303
Al -0.020259 3.601365 7.484800 0.000023 -0.000037 -0.000034
Al -0.021782 3.612740 -2.715592 -0.000069 0.000064 0.000055
Al 3.120398 -1.859548 2.399583 -0.000026 -0.000048 0.000048
Al 3.138746 -1.849231 7.486634 -0.000056 0.000031 0.000045
Al 3.130009 -1.867974 -2.710803 -0.000074 -0.000125 0.000006
Al -4.767963 0.882029 2.403457 0.000020 0.000037 0.000026
Al -4.763793 0.867405 7.473872 0.000016 0.000006 -0.000036
Ga -4.750305 0.862223 -2.693420 0.000051 -0.000003 0.000038
Al -6.344852 3.597523 2.409885 -0.000011 0.000029 -0.000053
Al -6.345975 3.604019 7.451421 0.000040 0.000074 -0.000168
Ga -6.363761 3.609618 -2.676074 0.000015 0.000011 0.000024
Ga -3.187170 -1.871029 2.416402 0.000009 -0.000026 -0.000020
Al -3.198877 -1.861946 7.482743 0.000006 0.000031 -0.000008
Al -3.178733 -1.870466 -2.719026 -0.000021 0.000011 0.000077
Al -1.596778 0.886205 2.403582 -0.000020 0.000090 0.000038
Al -1.596892 0.888199 7.500857 0.000035 0.000091 0.000004
Al -1.593845 0.867838 -2.720330 -0.000002 -0.000007 -0.000014
Al -3.174797 3.607063 2.387865 -0.000050 -0.000033 -0.000058
Al -3.180956 3.605561 7.485922 0.000185 -0.000015 -0.000191
Ga -3.150208 3.602182 -2.683110 0.000059 0.000022 0.000007
Al -0.003778 -1.857698 2.415125 -0.000093 0.000039 0.000040
Ga -0.014473 -1.857094 7.483304 0.000014 0.000005 0.000001
Al -0.016192 -1.835902 -2.709156 0.000009 0.000012 -0.000062
Al -0.007226 1.787375 4.937522 0.000053 -0.000066 0.000100
Al -0.023839 1.780275 -5.235575 0.000038 0.000011 -0.000010
Ga -0.018471 1.794002 -0.153805 -0.000054 0.000048 -0.000017
Ga 3.139922 -3.672745 4.947251 -0.000059 0.000034 0.000041
Al 3.149545 -3.683845 -5.258420 -0.000002 0.000013 -0.000006
Al 3.146399 -3.679016 -0.136460 -0.000004 -0.000010 -0.000009
Al 1.565885 -0.938045 4.932856 0.000185 0.000018 0.000110
Al 1.565380 -0.945164 -5.232347 0.000177 0.000074 0.000025
Al 1.565134 -0.951540 -0.146724 0.000085 0.000101 -0.000131
Al 3.123075 1.784086 4.937347 0.000043 -0.000033 -0.000020
Ga 3.125888 1.770870 -5.262853 -0.000043 -0.000015 0.000014
Al 3.126560 1.778303 -0.118967 0.000010 -0.000047 0.000001
Al 6.291383 -3.696947 4.955649 0.000074 -0.000040 0.000073
Al 6.278372 -3.680169 -5.257245 -0.000025 0.000016 -0.000024
Al 6.277475 -3.693374 -0.141190 -0.000089 0.000172 -0.000225
Al 4.693506 -0.945698 4.950665 -0.000120 0.000036 -0.000032
Al 4.716784 -0.964675 -5.244728 -0.000017 -0.000066 0.000086
Ga 4.700001 -0.957432 -0.152033 0.000010 -0.000001 -0.000018
Ga -3.188279 1.785874 4.949793 -0.000022 0.000001 0.000020
Al -3.163818 1.772154 -5.265974 0.000177 0.000306 -0.000099
Al -3.176791 1.784158 -0.119422 -0.000007 0.000007 -0.000005
Al -0.029589 -3.687219 4.924682 0.000038 -0.000100 0.000014
Ga -0.017746 -3.686758 -5.232842 0.000011 -0.000029 0.000056
Ga -0.020998 -3.681297 -0.126938 0.000015 -0.000008 -0.000029
Ga -1.596777 -0.947994 4.951763 -0.000048 0.000044 0.000031
Al -1.610986 -0.943177 -5.237133 -0.000046 0.000018 0.000022
Ga -1.598576 -0.947777 -0.152492 -0.000086 -0.000002 -0.000024
N 1.555077 0.874163 4.330782 0.000068 -0.000021 0.000003
N 1.508700 0.843201 -5.879932 -0.000116 0.000018 0.000069
N 1.597882 0.845967 -0.770737 -0.000021 -0.000043 0.000251
N 0.017737 3.587073 4.320226 -0.000030 0.000066 0.000040
N -0.017932 3.595001 -5.850529 0.000033 -0.000035 0.000006
N -0.025768 3.656533 -0.790867 0.000093 -0.000018 -0.000060
N 3.131628 -1.814514 4.310347 -0.000018 0.000104 0.000164
N 3.133539 -1.857763 -5.847491 0.000067 0.000014 0.000022
N 3.089187 -1.890775 -0.786849 -0.000060 0.000023 0.000070
N -4.801851 0.852445 4.321818 -0.000093 -0.000013 0.000125
N -4.717377 0.839512 -5.866999 -0.000141 -0.000156 -0.000006
N -4.756660 0.924415 -0.714832 0.000060 -0.000027 -0.000012
N -6.345560 3.606104 4.337731 0.000044 -0.000026 -0.000003
N -6.375816 3.629065 -5.895165 -0.000014 0.000012 0.000145
N -6.382098 3.580260 -0.704258 -0.000039 0.000010 -0.000026
N -3.226547 -1.888026 4.385573 0.000006 0.000057 -0.000068
N -3.180663 -1.864228 -5.848629 0.000012 -0.000011 0.000001
N -3.179164 -1.912483 -0.799093 0.000058 -0.000132 0.000025
N -1.561626 0.902874 4.305836 -0.000086 -0.000060 -0.000096
N -1.588573 0.870395 -5.838667 0.000030 -0.000017 0.000012
N -1.645505 0.900017 -0.803544 0.000071 -0.000018 -0.000001
N -3.213223 3.629799 4.295084 -0.000030 0.000066 -0.000034
N -3.138266 3.584063 -5.860310 -0.000019 -0.000165 0.000223
N -3.132356 3.581154 -0.703147 -0.000034 -0.000019 0.000006
N 0.022412 -1.878853 4.329896 -0.000037 -0.000019 -0.000069
N -0.017864 -1.814622 -5.802070 -0.000081 -0.000045 -0.000045
N 0.020895 -1.833723 -0.796348 0.000017 -0.000017 0.000062
N -0.019766 1.785145 1.830087 0.000089 -0.000005 -0.000012
N -0.027744 1.787999 6.862276 0.000010 -0.000014 0.000021
N -0.015894 1.783160 -3.303373 -0.000042 0.000016 -0.000023
N 3.143048 -3.680181 1.792812 -0.000012 0.000014 0.000005
N 3.135047 -3.678492 6.929228 -0.000030 -0.000067 0.000013
N 3.177361 -3.661880 -3.342425 -0.000005 0.000033 0.000056
N 1.555164 -0.947869 1.781594 -0.000030 0.000024 -0.000022
N 1.599962 -0.924387 6.844132 -0.000011 0.000049 -0.000173
N 1.563657 -0.946497 -3.313950 -0.000043 -0.000014 -0.000027
N 3.127782 1.782668 1.803743 -0.000055 -0.000004 -0.000002
N 3.131963 1.782605 6.864371 0.000015 -0.000009 -0.000038
N 3.092097 1.757410 -3.297024 0.000138 0.000060 -0.000057
N 6.287148 -3.731762 1.772148 -0.000201 -0.000148 0.000278
N 6.283440 -3.683431 6.872686 0.000009 0.000007 -0.000000
N 6.252211 -3.664663 -3.344756 0.000072 -0.000116 -0.000071
N 4.669595 -0.927967 1.819422 0.000077 -0.000010 -0.000066
N 4.705950 -0.948568 6.871390 -0.000021 0.000016 0.000010
N 4.711665 -0.999270 -3.323049 -0.000001 0.000142 -0.000172
N -3.179104 1.778924 1.801222 -0.000018 0.000007 -0.000025
N -3.179994 1.785152 6.927884 0.000001 -0.000007 -0.000016
N -3.139979 1.760919 -3.359060 -0.000010 -0.000025 0.000074
N -0.029163 -3.679428 1.853119 0.000130 -0.000120 0.000095
N -0.020561 -3.728466 6.845375 -0.000154 0.000003 -0.000001
N -0.021051 -3.646236 -3.265687 0.000001 0.000005 0.000001
N -1.560238 -0.927936 1.829299 0.000020 0.000004 0.000019
N -1.645031 -0.919388 6.920008 0.000012 -0.000063 -0.000027
N -1.604068 -0.951052 -3.310273 -0.000037 0.000019 -0.000018
