108
Energy=-1947251.889202 Lattice="9.521076 0.000000 0.000000 -4.767786 8.248639 0.000000 0.043002 0.023975 15.307947" Stress="-0.000197 0.000027 0.000010 0.000027 -0.000163 0.000006 0.000010 0.000006 -0.000209" Properties=species:S:1:pos:R:3:forces:R:3
Al 1.583879 0.908932 2.460301 -0.000486 -0.013320 -0.008068
Al 1.589588 0.912216 7.512834 -0.000944 -0.011419 -0.002909
Al 1.552528 0.890969 -2.745230 -0.000491 -0.011239 -0.004198
Al 0.012246 3.638043 2.462163 -0.002998 -0.001238 -0.007382
Al 0.016334 3.641479 7.513892 -0.002146 -0.001527 -0.001480
Ga -0.021339 3.621076 -2.737678 -0.001859 -0.001634 -0.002481
Al 3.197714 -1.882170 2.460042 -0.003563 0.001918 -0.007614
Ga 3.208929 -1.876591 7.513453 -0.002958 0.000493 -0.002046
Al 3.171061 -1.895911 -2.749779 -0.002585 0.001182 -0.002676
Ga -4.790430 0.910945 2.458218 -0.000272 -0.014362 -0.007776
Ga -4.780454 0.912270 7.515671 0.000092 -0.012966 -0.002463
Ga -4.818690 0.891561 -2.745590 0.000504 -0.012682 -0.004649
Al -6.366423 3.638127 2.465324 0.000867 0.000143 -0.006644
Ga -6.361008 3.642534 7.513885 -0.000567 -0.000166 -0.001174
Al -6.395788 3.623582 -2.739835 -0.000763 -0.000675 -0.001115
Ga -3.169773 -1.883019 2.456439 -0.001574 0.002406 -0.006629
Al -3.167041 -1.876521 7.511549 0.000745 0.001854 -0.001280
Al -3.202927 -1.896110 -2.745142 -0.000096 0.001763 -0.002541
Ga -1.636646 0.910820 2.462152 0.013700 -0.007303 -0.010129
Ga -1.634267 0.916348 7.511209 0.013814 -0.008006 -0.005836
Al -1.670126 0.893581 -2.743542 0.011604 -0.006327 -0.004958
Ga -3.215028 3.640468 2.459127 0.011165 0.007545 -0.008253
Ga -3.207175 3.641506 7.513057 0.011922 0.006499 -0.002654
Ga -3.245908 3.623509 -2.741015 0.012477 0.005151 -0.003564
Al -0.024212 -1.878875 2.462264 0.011622 0.005007 -0.007985
Ga -0.017325 -1.872447 7.511960 0.011285 0.008027 -0.003853
Ga -0.054059 -1.893283 -2.744016 0.011677 0.008372 -0.004462
Ga 0.013408 1.819175 4.984699 -0.012332 -0.008444 -0.003618
Ga -0.024745 1.796525 -5.268509 -0.011289 -0.007415 -0.003726
Ga -0.018009 1.797175 -0.218848 -0.010719 -0.006765 0.030817
Ga 3.207350 -3.701934 4.984280 -0.012970 -0.005141 -0.002892
Ga 3.168525 -3.718186 -5.266748 -0.012159 -0.005678 -0.003080
Ga 3.172612 -3.709218 -0.211151 -0.010775 -0.005001 0.030274
Ga 1.628903 -0.969249 4.980299 -0.013213 0.006586 -0.006694
Al 1.595140 -0.988971 -5.268912 -0.011728 0.006171 -0.003633
Al 1.604750 -0.984989 -0.236077 -0.011745 0.006132 0.027146
Ga 3.162175 1.819945 4.984698 0.000456 -0.002441 -0.001039
Ga 3.124278 1.797453 -5.266498 0.000385 -0.002639 -0.001274
Ga 3.130493 1.800783 -0.219080 0.000233 -0.000169 0.032606
Ga 6.353558 -3.696513 4.985750 0.000290 0.000114 -0.000050
Ga 6.315821 -3.716217 -5.267577 -0.000286 0.000380 0.000078
Ga 6.323984 -3.711265 -0.215872 0.001354 -0.000366 0.033474
Ga 4.782671 -0.969135 4.984161 -0.001831 0.013373 -0.003338
Al 4.741637 -0.990128 -5.268276 -0.001427 0.010467 -0.002311
Al 4.748230 -0.984105 -0.238794 -0.001735 0.009733 0.028904
Al -3.209139 1.820046 4.984169 0.002345 -0.000914 -0.002250
Al -3.245557 1.799424 -5.266429 0.001141 -0.000609 -0.001630
Ga -3.241734 1.803883 -0.217887 0.003571 -0.000033 0.031467
Ga -0.018649 -3.696703 4.981836 0.002542 0.001842 -0.002219
Ga -0.054454 -3.717987 -5.266331 0.002491 0.001684 -0.001497
Al -0.045242 -3.709045 -0.230714 0.000921 0.001022 0.029808
Al -1.595462 -0.967504 4.984781 0.001366 0.011591 -0.002586
Ga -1.633593 -0.985634 -5.267416 0.001084 0.013072 -0.003801
Ga -1.624678 -0.984438 -0.218524 0.002390 0.013925 0.029225
N 1.586828 0.911325 4.376859 -0.000468 -0.013055 -0.014005
N 1.549041 0.882493 -5.873118 -0.000196 -0.028260 -0.009871
N 1.555766 0.886572 -0.827619 0.000231 -0.028247 -0.007302
N 0.012259 3.639334 4.377979 -0.001129 -0.000328 -0.017413
N -0.025647 3.618621 -5.872821 -0.001570 -0.000556 -0.018452
N -0.020709 3.622657 -0.810901 -0.001829 -0.000200 0.003347
N 3.204072 -1.880690 4.379450 -0.001509 0.000952 -0.017201
N 3.166053 -1.892907 -5.863691 -0.001726 0.018661 0.013578
N 3.173597 -1.888652 -0.828173 -0.001420 0.018243 -0.004555
N -4.778668 0.915608 4.387528 0.016145 -0.004453 0.010738
N -4.815478 0.887425 -5.860336 0.016557 -0.019332 0.015219
N -4.815598 0.888037 -0.819101 0.001060 -0.028418 0.011318
N -6.361983 3.639890 4.381679 -0.000928 -0.000157 -0.017355
N -6.398613 3.619973 -5.866681 -0.000332 -0.000195 0.001527
N -6.386238 3.627466 -0.820624 0.015676 0.008765 -0.009792
N -3.161637 -1.875343 4.386038 0.015048 0.009991 0.007858
N -3.211950 -1.895241 -5.873483 -0.015996 0.010252 -0.012162
N -3.204496 -1.891281 -0.827225 -0.015696 0.010225 -0.009158
N -1.643138 0.908892 4.390699 -0.001930 -0.013800 0.019086
N -1.681019 0.896666 -5.866799 -0.001795 0.001358 0.013023
N -1.668894 0.896192 -0.827404 0.013294 -0.007297 -0.009515
N -3.211279 3.633714 4.387224 0.012085 -0.012036 0.011284
N -3.249248 3.613365 -5.864147 0.012189 -0.012043 0.009887
N -3.247631 3.629165 -0.813825 -0.002690 0.014727 0.012666
N -0.027916 -1.872868 4.381560 -0.004274 0.016075 -0.007928
N -0.051847 -1.893044 -5.864449 0.024763 0.014505 0.009364
N -0.043504 -1.894121 -0.816218 0.025099 -0.003092 0.017027
N 0.018252 1.822462 1.869561 0.002004 0.000648 -0.016062
N 0.022713 1.824540 6.916661 0.003615 0.001870 0.016415
N -0.021754 1.793668 -3.337425 -0.009423 -0.022698 0.014825
N 3.210225 -3.698107 1.864013 0.002217 0.001837 -0.013746
N 3.214840 -3.701698 6.915782 0.003181 -0.014694 0.010333
N 3.171438 -3.711688 -3.338422 -0.012003 0.011696 0.010299
N 1.621708 -0.975457 1.872590 -0.011014 0.006958 -0.022846
N 1.633157 -0.961621 6.911715 -0.012898 0.022448 0.012581
N 1.602026 -0.985159 -3.347541 0.001932 0.013375 0.000416
N 3.150600 1.824198 1.865438 -0.015094 0.006671 -0.018309
N 3.158258 1.818002 6.916511 -0.013997 -0.010197 0.007039
N 3.120616 1.805121 -3.336591 -0.014385 0.008405 0.013776
N 6.351862 -3.710134 1.867701 -0.000594 -0.017320 -0.018332
N 6.349404 -3.693115 6.917586 -0.015113 0.009128 0.013197
N 6.324391 -3.713113 -3.335899 0.016281 0.008965 0.012991
N 4.764438 -0.978070 1.865326 -0.014676 0.004935 -0.036457
N 4.787635 -0.971492 6.914565 0.014702 0.005149 0.010446
N 4.744621 -0.996221 -3.347330 -0.000287 -0.004554 -0.001834
N -3.211952 1.819485 1.853484 0.001542 -0.002136 -0.029607
N -3.207877 1.823270 6.904312 0.001612 -0.001111 -0.018932
N -3.237867 1.799715 -3.346105 0.017199 -0.009450 -0.012372
N -0.032355 -3.697686 1.873535 -0.013714 0.008837 -0.033090
N -0.015657 -3.695241 6.912325 0.001913 -0.000048 0.000963
N -0.058642 -3.719093 -3.337827 -0.013956 -0.008540 0.007558
N -1.588208 -0.974588 1.856274 0.013620 0.005387 -0.020031
N -1.597425 -0.970249 6.907533 -0.015020 0.004838 -0.008919
N -1.635016 -0.982788 -3.337472 -0.014831 0.019339 0.015144
