108
Energy=-1626826.754188 Lattice="9.533776 0.000000 0.000000 -4.769786 8.256058 0.000000 -0.001426 -0.000370 15.403291" Stress="-0.000010 -0.000001 0.000000 -0.000001 -0.000011 0.000000 0.000000 0.000000 -0.000014" Properties=species:S:1:pos:R:3:forces:R:3
Al 1.569462 0.872157 2.424692 0.000066 0.000166 0.000224
Al 1.577138 0.888384 7.548422 -0.000224 -0.001206 -0.001169
Al 1.571825 0.873358 -2.715196 0.000066 -0.000009 0.000064
Al -0.027728 3.629789 2.443347 0.000204 0.000047 0.000334
Al -0.010282 3.643280 7.523922 -0.001109 0.000774 -0.000409
Al -0.005177 3.628124 -2.711160 -0.000031 0.000046 0.000016
Al 3.150473 -1.869746 2.430380 0.000891 0.000321 0.000576
Al 3.161775 -1.880088 7.524245 -0.000380 -0.000163 -0.000148
Ga 3.145387 -1.866159 -2.699891 -0.000033 -0.000001 0.000026
Al -4.792517 0.877086 2.442511 -0.000206 -0.000149 0.000163
Ga -4.820191 0.870016 7.531053 -0.000024 0.000131 -0.000029
Al -4.802651 0.884475 -2.710796 0.000074 -0.000007 0.000035
Ga -6.381291 3.623876 2.434605 -0.000151 -0.000003 0.000109
Al -6.398646 3.631021 7.532345 0.000006 -0.000917 -0.000279
Ga -6.396485 3.623499 -2.715758 -0.000039 0.000039 -0.000017
Ga -3.219078 -1.879275 2.441136 -0.000117 -0.000056 0.000098
Al -3.205130 -1.893496 7.541757 0.000509 0.000184 -0.000301
Ga -3.194589 -1.889405 -2.724990 -0.000075 0.000003 0.000075
Al -1.615228 0.897828 2.410806 0.000054 -0.000099 0.000081
Ga -1.597211 0.866704 7.567780 0.000101 -0.000058 -0.000046
Ga -1.607470 0.875307 -2.710346 0.000097 -0.000074 0.000055
Al -3.198900 3.628880 2.422427 -0.000118 -0.000082 0.000376
Ga -3.198545 3.656140 7.527341 0.000238 -0.000009 -0.000022
Ga -3.205108 3.627097 -2.686273 0.000038 -0.000088 0.000042
Ga -0.000057 -1.873952 2.426282 -0.000183 -0.000007 0.000129
Al -0.027716 -1.878563 7.541333 0.000435 0.000409 -0.000767
Al -0.016153 -1.863846 -2.702034 0.000016 -0.000077 0.000051
Ga -0.009730 1.809746 4.979125 0.000095 0.000180 0.000046
Ga -0.000133 1.807988 -5.283979 -0.000092 0.000116 0.000128
Ga -0.012170 1.801189 -0.131934 -0.000022 0.000063 -0.000016
Al 3.164028 -3.696787 4.958987 0.000818 -0.000020 0.000111
Ga 3.179150 -3.708582 -5.287419 -0.000116 0.000106 -0.000034
Ga 3.159104 -3.715537 -0.113255 0.000014 0.000036 -0.000059
Ga 1.586887 -0.959895 5.000030 -0.000044 0.000103 0.000264
Ga 1.559349 -0.949245 -5.305521 -0.000018 -0.000013 -0.000003
Al 1.561428 -0.957979 -0.135562 -0.000133 0.000107 0.000001
Al 3.152395 1.799327 4.975399 -0.000375 0.000331 0.000245
Al 3.143653 1.802769 -5.285588 0.000116 0.000041 0.000078
Ga 3.159420 1.793837 -0.135099 0.000050 0.000015 0.000080
Al 6.333253 -3.711751 5.010059 -0.000360 -0.000182 -0.000217
Al 6.338952 -3.713478 -5.325874 0.000126 -0.000222 0.000377
Al 6.334933 -3.716577 -0.132536 0.000051 0.000020 0.000135
Al 4.734738 -0.967678 4.985203 -0.000198 -0.000084 -0.000272
Ga 4.754678 -0.959567 -5.296992 -0.000231 0.000065 0.000069
Ga 4.744201 -0.945912 -0.129217 0.000011 -0.000023 0.000057
Ga -3.214732 1.805135 4.960508 0.000121 -0.000170 0.000022
Ga -3.214011 1.789842 -5.280189 -0.000003 0.000016 0.000053
Al -3.217670 1.799430 -0.113261 0.000040 -0.000025 0.000060
Al -0.025988 -3.718509 4.998796 -0.000601 0.000024 -0.000071
Ga -0.047292 -3.700274 -5.295137 0.000088 -0.000125 0.000155
Al -0.020086 -3.704347 -0.142648 -0.000011 -0.000024 0.000084
Ga -1.621385 -0.967486 4.994301 -0.000034 -0.000077 0.000094
Al -1.608806 -0.978725 -5.293475 -0.000053 0.000105 0.000046
Ga -1.600921 -0.968173 -0.136174 -0.000103 -0.000017 0.000098
N 1.606349 0.894302 4.333121 0.000022 -0.000047 -0.000203
N 1.611550 0.905284 -5.946124 0.000094 0.000114 0.000432
N 1.569000 0.829899 -0.796030 0.000037 -0.000077 -0.000059
N -0.013540 3.680538 4.357299 -0.000507 0.000286 0.000173
N 0.015198 3.654638 -5.967163 0.000109 -0.000042 0.000083
N 0.020042 3.655595 -0.795236 -0.000014 0.000008 -0.000084
N 3.193171 -1.892151 4.348005 0.000040 0.000074 -0.000210
N 3.158666 -1.876831 -5.966498 0.000042 0.000015 -0.000051
N 3.115339 -1.854922 -0.729822 0.000009 -0.000006 -0.000048
N -4.835742 0.851035 4.361025 0.000187 -0.000271 0.000023
N -4.840737 0.902119 -5.903193 0.000055 -0.000007 0.000015
N -4.750253 0.905516 -0.795327 0.000098 0.000022 -0.000086
N -6.383284 3.634662 4.422068 0.000403 0.000259 0.000274
N -6.420287 3.598693 -5.937495 -0.000167 0.000220 -0.000202
N -6.383366 3.676079 -0.728562 -0.000008 0.000057 -0.000038
N -3.244108 -1.905532 4.413479 0.000015 0.000033 0.000064
N -3.158751 -1.899326 -5.932304 0.000009 0.000040 -0.000023
N -3.199716 -1.925563 -0.746406 0.000018 0.000018 -0.000107
N -1.609963 0.878891 4.316708 0.000058 0.000002 -0.000065
N -1.607094 0.832080 -5.863015 0.000139 -0.000136 0.000034
N -1.656108 0.904796 -0.729556 0.000099 -0.000026 -0.000080
N -3.207412 3.685993 4.349678 -0.000233 -0.000283 -0.000521
N -3.201408 3.638429 -5.908760 -0.000013 -0.000129 -0.000000
N -3.239639 3.604035 -0.706593 0.000021 -0.000022 0.000002
N -0.015877 -1.922012 4.393701 0.000017 -0.000139 -0.000067
N -0.061256 -1.852036 -5.955351 -0.000053 -0.000075 0.000231
N 0.022543 -1.896014 -0.775021 0.000101 -0.000039 -0.000037
N -0.015964 1.801323 1.859530 -0.000090 0.000064 -0.000056
N 0.017605 1.818114 6.959766 0.000137 0.000027 0.000176
N 0.023959 1.820377 -3.296569 -0.000012 0.000084 -0.000085
N 3.160732 -3.710059 1.873195 -0.000055 -0.000112 -0.000156
N 3.199336 -3.683795 6.882704 0.000777 -0.000533 0.000364
N 3.200574 -3.734902 -3.308771 0.000046 0.000034 -0.000087
N 1.608547 -0.930284 1.786755 -0.000300 0.000028 -0.000261
N 1.568195 -0.954302 6.984222 -0.000364 0.000482 0.000503
N 1.524158 -0.934074 -3.319862 -0.000147 0.000111 -0.000054
N 3.156711 1.747424 1.841040 0.000095 -0.000068 -0.000092
N 3.107518 1.820084 6.890744 0.000146 0.000639 0.000089
N 3.150592 1.749183 -3.353508 0.000012 -0.000051 -0.000050
N 6.290445 -3.736949 1.777031 0.000042 0.000021 -0.000196
N 6.334398 -3.709041 6.928769 0.000114 -0.000023 0.000217
N 6.292903 -3.736702 -3.404154 0.000012 0.000008 -0.000394
N 4.702675 -0.928051 1.845752 -0.000193 0.000006 -0.000043
N 4.744696 -1.006017 6.907782 0.000390 0.000091 0.000109
N 4.744827 -0.912539 -3.319059 -0.000032 0.000015 -0.000072
N -3.212252 1.796341 1.821708 0.000009 -0.000057 -0.000036
N -3.200360 1.793695 6.924489 -0.000025 -0.000072 -0.000043
N -3.244809 1.773983 -3.314111 -0.000022 -0.000031 -0.000029
N 0.015557 -3.731477 1.770035 0.000078 0.000033 -0.000120
N -0.068782 -3.688161 6.916315 -0.000022 0.000133 0.000080
N -0.025560 -3.659719 -3.315173 0.000044 0.000032 -0.000026
N -1.611251 -0.915306 1.833929 -0.000012 0.000046 -0.000083
N -1.615987 -1.002451 6.964053 -0.000395 -0.000174 0.000208
N -1.566410 -0.986629 -3.367790 -0.000056 -0.000047 -0.000111
