108
Energy=-1077520.890423 Lattice="9.471542 0.000000 0.000000 -4.737117 8.199946 0.000000 0.000257 0.001521 15.259502" Stress="-0.000001 -0.000001 -0.000000 -0.000001 -0.000002 0.000001 -0.000000 0.000001 0.000003" Properties=species:S:1:pos:R:3:forces:R:3
Al 1.554552 0.867347 2.373749 0.000379 -0.000240 -0.000017
Al 1.551454 0.857350 7.484609 0.000164 0.000077 0.000170
Al 1.558376 0.857991 -2.682333 -0.000343 -0.000048 0.000245
Al -0.011136 3.600563 2.381917 -0.000397 -0.000002 -0.000062
Al -0.026336 3.606443 7.490249 0.000212 0.000078 -0.000152
Al -0.037886 3.603978 -2.687177 0.000101 0.000279 0.000032
Al 3.130192 -1.846174 2.380169 -0.000072 -0.000375 -0.000034
Al 3.132131 -1.853618 7.496674 0.000034 0.000036 0.000127
Al 3.126144 -1.861419 -2.702696 -0.000205 0.000051 0.000118
Al -4.781892 0.865350 2.388350 0.000108 -0.001315 -0.001214
Al -4.761484 0.856876 7.501712 -0.000024 -0.000022 0.000011
Al -4.771121 0.863292 -2.702348 -0.001187 -0.000472 0.001956
Al -6.348269 3.602914 2.366560 0.001315 -0.000242 0.000516
Ga -6.343533 3.605588 7.514675 -0.000178 0.000019 -0.000042
Ga -6.333614 3.594717 -2.696424 -0.000063 -0.000014 0.000098
Ga -3.193748 -1.870029 2.406391 -0.000212 0.000400 -0.000145
Al -3.183694 -1.855044 7.480321 0.000025 0.000089 0.000049
Ga -3.190853 -1.854675 -2.700558 -0.000072 0.000055 0.000144
Ga -1.581297 0.877856 2.414284 0.000133 0.000104 0.000046
Al -1.593542 0.865606 7.477915 -0.000045 -0.000024 -0.000139
Al -1.591534 0.871516 -2.697168 -0.000134 0.000731 0.000334
Ga -3.182781 3.622440 2.373698 0.000099 0.000022 -0.000233
Al -3.169228 3.614269 7.514244 -0.000558 -0.000959 -0.000139
Al -3.170877 3.620529 -2.694611 0.000416 -0.000234 0.000610
Al -0.003581 -1.858087 2.397386 -0.000060 -0.000310 0.000002
Al -0.014172 -1.844163 7.499749 -0.000081 0.000100 0.000056
Al -0.003519 -1.853504 -2.711081 0.000211 -0.000488 -0.000301
Al -0.007682 1.781725 4.954448 0.000038 -0.000121 0.000150
Ga -0.008635 1.782224 -5.228625 -0.000057 0.000153 0.000067
Al -0.005625 1.793989 -0.169115 -0.000152 -0.000309 -0.000466
Ga 3.158343 -3.669363 4.953873 -0.000184 0.000041 -0.000046
Al 3.140185 -3.667373 -5.233457 -0.000241 -0.000201 -0.000013
Al 3.148170 -3.668924 -0.165718 -0.000048 0.000003 -0.000112
Al 1.553165 -0.942742 4.937980 -0.000015 0.000461 0.000035
Al 1.562437 -0.956328 -5.232313 0.000001 -0.000108 0.000310
Al 1.566346 -0.953692 -0.163095 -0.000088 0.000050 -0.000103
Ga 3.118521 1.773119 4.926288 -0.000074 0.000100 0.000004
Al 3.129492 1.765820 -5.229424 0.000180 0.000417 0.000405
Al 3.125369 1.774472 -0.142972 -0.000122 0.000237 -0.000214
Al 6.284189 -3.681675 4.940858 0.000274 -0.000288 0.000933
Al 6.285267 -3.675115 -5.237840 0.000440 -0.000256 -0.000423
Al 6.281275 -3.697376 -0.146529 0.000067 -0.000240 0.000191
Al 4.707983 -0.956722 4.955801 0.000320 0.000559 0.000126
Al 4.704350 -0.958491 -5.246790 0.000034 -0.000349 0.000238
Al 4.688859 -0.954892 -0.156976 -0.000161 0.000365 0.000138
Ga -3.182086 1.765969 4.971819 0.000023 0.000146 0.000171
Ga -3.189895 1.780874 -5.225908 0.000161 0.000085 -0.000212
Ga -3.190949 1.784400 -0.175449 -0.000049 -0.000165 -0.000118
Ga -0.035707 -3.660313 4.953755 -0.000007 -0.000159 -0.000040
Al -0.016474 -3.668708 -5.231167 -0.000031 -0.000171 -0.000166
Al -0.019344 -3.671672 -0.160171 -0.000813 0.000031 0.000704
Al -1.592720 -0.957670 4.960997 -0.000002 0.000079 0.000160
Al -1.597116 -0.964540 -5.245611 -0.000142 -0.000051 -0.000018
Ga -1.585515 -0.960834 -0.154295 -0.000047 0.000133 0.000152
N 1.508138 0.846727 4.296134 0.000057 -0.000487 0.000221
N 1.594808 0.840774 -5.862040 -0.000262 0.000086 -0.000609
N 1.560510 0.867350 -0.759143 -0.000115 0.000029 0.000057
N 0.018047 3.577266 4.308419 -0.000183 0.000196 -0.000602
N -0.023490 3.649055 -5.860531 -0.000069 0.000050 0.000305
N -0.023868 3.609386 -0.770126 -0.000082 -0.000022 0.000082
N 3.134262 -1.809764 4.308027 -0.000241 -0.000131 -0.000344
N 3.131375 -1.859518 -5.842779 -0.000084 -0.000138 -0.000123
N 3.133177 -1.860618 -0.778932 -0.000171 -0.000129 -0.000086
N -4.758728 0.820705 4.295180 -0.000095 -0.000371 0.000772
N -4.800779 0.843862 -5.852246 -0.000075 0.000111 0.000198
N -4.812390 0.843797 -0.784829 0.000597 -0.000085 -0.001158
N -6.378145 3.631710 4.288473 -0.000264 0.000078 -0.000123
N -6.336721 3.601832 -5.767147 -0.000585 0.000225 0.000052
N -6.337413 3.603266 -0.709629 0.000156 -0.000253 0.000022
N -3.182045 -1.859378 4.395271 -0.000186 0.000155 -0.000192
N -3.180048 -1.860866 -5.848370 0.000048 0.000114 0.000088
N -3.223672 -1.886394 -0.724450 -0.000096 0.000202 -0.000192
N -1.556356 0.851051 4.391882 0.000003 -0.000029 -0.000056
N -1.597791 0.825535 -5.872875 0.000173 -0.000054 0.000043
N -1.558045 0.891208 -0.794243 0.000432 0.000130 0.000028
N -3.178660 3.608539 4.336837 0.000076 -0.000014 -0.000056
N -3.177042 3.652793 -5.838263 0.000442 0.000213 0.000368
N -3.178149 3.661635 -0.773619 0.000577 -0.000075 -0.000723
N -0.017905 -1.810211 4.314135 0.000025 0.000006 -0.000143
N -0.017311 -1.855505 -5.840495 0.000110 -0.000076 0.000062
N 0.024873 -1.882079 -0.799809 0.000094 -0.000026 0.000283
N 0.018942 1.807176 1.748348 -0.000327 0.000412 0.000212
N -0.014932 1.786874 6.881235 -0.000015 0.000046 0.000056
N -0.016537 1.784223 -3.249737 0.000299 -0.000428 -0.000013
N 3.184726 -3.653461 1.757459 0.000273 -0.000019 0.000476
N 3.137216 -3.678419 6.933049 0.000530 0.000227 -0.000170
N 3.138848 -3.681872 -3.307000 0.000013 -0.000001 -0.000004
N 1.556393 -0.952180 1.765097 -0.000115 -0.000028 0.000025
N 1.558051 -0.952894 6.867229 -0.000112 0.000189 -0.000140
N 1.560464 -0.947560 -3.310412 -0.000237 0.000055 -0.000041
N 3.130883 1.779609 1.783610 -0.000011 0.000005 -0.000144
N 3.134002 1.737015 6.902542 -0.000111 -0.000123 0.000151
N 3.126281 1.728961 -3.317251 0.000568 0.000248 -0.000768
N 6.288308 -3.727909 1.763956 -0.000814 0.000235 -0.000352
N 6.252462 -3.663125 6.862759 -0.000057 -0.000188 -0.000764
N 6.247029 -3.708232 -3.335197 -0.000201 -0.000122 0.000370
N 4.670017 -0.928998 1.756112 0.000105 0.000870 0.000395
N 4.708350 -0.950774 6.880700 -0.000117 -0.000045 -0.000050
N 4.667186 -0.930084 -3.332921 0.000378 0.000067 -0.000514
N -3.219476 1.754830 1.794779 -0.000024 0.000081 0.000095
N -3.186871 1.784252 6.952981 0.000408 0.000479 0.000008
N -3.184348 1.782880 -3.238844 0.000595 0.000262 -0.000274
N -0.065389 -3.651106 1.759122 0.000075 0.000350 -0.000461
N 0.015821 -3.655501 6.927022 0.000134 -0.000157 -0.000039
N 0.021043 -3.660548 -3.320544 -0.000351 0.000807 0.000146
N -1.559823 -0.973743 1.809116 -0.000111 -0.000116 0.000042
N -1.595963 -0.957529 6.883282 -0.000018 0.000000 0.000094
N -1.560743 -0.928701 -3.325230 0.000088 -0.000551 -0.000401
