108
Energy=-2.221908e+06 Lattice="9.614345e+00 0.000000e+00 0.000000e+00 -4.806485e+00 8.326134e+00 0.000000e+00 -1.659165e-03 1.537111e-03 1.558412e+01" Stress="2.642580e-05 -1.725067e-05 -3.290628e-05 -9.711093e-06 -2.865406e-06 -1.020410e-05 -2.521137e-05 -1.967591e-06 1.927990e-05" Properties=species:S:1:pos:R:3:forces:R:3 Config_type=AlGaN_super3_39_0_13.xyz
Al 1.569683e+00 8.984171e-01 2.434748e+00 4.127335e-05 -3.330225e-06 -2.619742e-05
Al 1.586125e+00 8.892812e-01 7.685438e+00 2.322558e-06 7.864097e-06 -7.277090e-07
Ga 1.576311e+00 8.872772e-01 -2.777302e+00 -1.768297e-05 1.389530e-05 3.673374e-05
Al -2.863920e-02 3.644619e+00 2.442313e+00 4.212207e-05 -2.252194e-05 5.939051e-06
Ga -2.372375e-02 3.652537e+00 7.658874e+00 -3.733235e-07 -6.677179e-06 9.991745e-06
Ga -2.978511e-02 3.638411e+00 -2.751396e+00 -2.305581e-05 8.578313e-06 3.955133e-05
Ga 3.174105e+00 -1.897257e+00 2.452457e+00 2.921772e-05 1.527851e-06 1.354256e-05
Al 3.166994e+00 -1.886405e+00 7.656404e+00 1.298623e-06 1.549040e-05 -1.010429e-05
Ga 3.177273e+00 -1.882064e+00 -2.753603e+00 -9.094169e-06 1.574072e-05 4.668604e-05
Ga -4.836719e+00 8.969551e-01 2.459405e+00 1.552540e-06 -4.279125e-06 7.412294e-06
Ga -4.845594e+00 8.978086e-01 7.660785e+00 -6.772589e-06 1.912356e-05 4.621952e-06
Al -4.829404e+00 8.912495e-01 -2.768447e+00 5.562082e-06 1.908643e-05 1.233898e-05
Ga -6.435952e+00 3.651936e+00 2.450543e+00 8.624622e-06 -1.199657e-05 1.795743e-05
Al -6.424958e+00 3.648170e+00 7.667678e+00 4.191731e-06 1.306388e-07 1.078058e-05
Ga -6.417422e+00 3.647393e+00 -2.765507e+00 -8.526941e-06 9.146803e-06 1.937056e-05
Ga -3.225544e+00 -1.891549e+00 2.437449e+00 2.923672e-05 -1.362525e-06 8.771690e-06
Ga -3.233390e+00 -1.897702e+00 7.660554e+00 2.883605e-06 2.618851e-06 1.252057e-05
Ga -3.224045e+00 -1.874046e+00 -2.739502e+00 -8.467624e-06 1.797645e-05 5.052252e-05
Ga -1.611616e+00 8.989815e-01 2.423929e+00 9.096049e-06 -4.040052e-06 1.647146e-05
Ga -1.615509e+00 8.998233e-01 7.659559e+00 5.890863e-06 1.314161e-05 2.227297e-05
Al -1.618612e+00 8.891745e-01 -2.736172e+00 -2.139669e-06 8.629135e-06 1.500098e-05
Al -3.218648e+00 3.659680e+00 2.449016e+00 1.317002e-05 8.130326e-06 -3.279903e-06
Al -3.236434e+00 3.668105e+00 7.665694e+00 -2.887662e-06 -3.745035e-07 -2.568027e-06
Ga -3.233641e+00 3.650843e+00 -2.761007e+00 -1.636969e-05 -1.262411e-06 5.514099e-05
Ga -1.962978e-02 -1.884830e+00 2.448776e+00 2.153490e-05 -8.826434e-06 -3.208810e-06
Ga -4.460280e-03 -1.899623e+00 7.668796e+00 -9.837981e-06 6.755531e-06 2.394945e-05
Ga -1.852386e-02 -1.888647e+00 -2.765549e+00 -1.716787e-05 5.222287e-06 5.341399e-05
Ga -9.769088e-03 1.808393e+00 5.043891e+00 7.760344e-06 2.241327e-06 -3.534414e-07
Al -1.013096e-02 1.795141e+00 -5.338875e+00 1.190545e-05 7.631542e-06 6.565823e-06
Al -2.538117e-02 1.802269e+00 -1.476055e-01 4.439134e-05 -1.534011e-05 1.679390e-05
Ga 3.175214e+00 -3.747716e+00 5.056618e+00 2.663856e-06 1.583407e-05 3.853528e-05
Ga 3.167871e+00 -3.736743e+00 -5.363317e+00 -1.604175e-06 1.239020e-05 3.390472e-05
Ga 3.184846e+00 -3.754415e+00 -1.317986e-01 2.250920e-05 -1.203961e-05 -4.166508e-05
Ga 1.581069e+00 -9.467642e-01 5.067491e+00 2.528931e-06 9.986063e-07 1.637945e-05
Al 1.581667e+00 -9.549818e-01 -5.365013e+00 1.454978e-05 4.461714e-06 1.252694e-05
Ga 1.562643e+00 -9.494314e-01 -1.456242e-01 2.223275e-05 -1.660244e-05 5.629864e-06
Ga 3.162481e+00 1.809093e+00 5.072800e+00 -2.034185e-06 7.247904e-06 -3.993587e-06
Al 3.172026e+00 1.812371e+00 -5.356535e+00 9.172531e-06 -3.365511e-07 9.875284e-06
Ga 3.173467e+00 1.803311e+00 -1.565783e-01 -1.318605e-06 -5.079340e-06 6.854890e-05
Ga 6.383028e+00 -3.746839e+00 5.056430e+00 -5.910981e-06 1.287863e-05 1.700673e-05
Ga 6.401003e+00 -3.761988e+00 -5.345876e+00 1.783732e-06 6.322775e-07 2.674549e-05
Ga 6.380854e+00 -3.744129e+00 -1.460292e-01 1.650089e-05 -1.894378e-05 1.291979e-05
Ga 4.780435e+00 -9.671320e-01 5.067446e+00 -6.332415e-07 -3.225049e-06 2.131524e-05
Ga 4.763902e+00 -9.576750e-01 -5.337352e+00 -9.930778e-06 -5.550059e-07 3.529266e-05
Ga 4.789693e+00 -9.535135e-01 -1.609551e-01 2.651999e-05 -3.699572e-05 2.915493e-05
Ga -3.225191e+00 1.822964e+00 5.055075e+00 5.339175e-06 -8.941241e-06 1.401832e-05
Ga -3.226708e+00 1.815656e+00 -5.325587e+00 1.110192e-05 6.214341e-06 1.917188e-05
Ga -3.218458e+00 1.801179e+00 -1.688941e-01 -1.192168e-06 1.330941e-05 7.901989e-06
Ga -1.744974e-02 -3.749404e+00 5.067040e+00 -1.568177e-05 -3.920112e-06 2.135681e-05
Al -2.281311e-02 -3.749129e+00 -5.367152e+00 7.824952e-06 -6.154386e-06 1.987718e-05
Ga -2.345940e-02 -3.731491e+00 -1.398017e-01 1.570830e-05 -1.149684e-05 -5.342448e-05
Ga -1.624800e+00 -9.623834e-01 5.059758e+00 -5.663913e-06 -8.543367e-06 1.459005e-05
Ga -1.604640e+00 -9.578059e-01 -5.325494e+00 3.309120e-06 -6.170249e-06 2.740101e-05
Al -1.616468e+00 -9.491239e-01 -1.703313e-01 3.754614e-05 -2.968087e-05 -1.192419e-05
N 1.579682e+00 8.867631e-01 4.352998e+00 6.908616e-06 -8.924033e-07 -3.214366e-06
N 1.578533e+00 8.883423e-01 -5.963161e+00 1.960672e-06 -5.989100e-06 -2.073610e-06
N 1.534697e+00 9.121694e-01 -7.918431e-01 -3.949530e-06 1.473727e-05 -2.847839e-05
N -2.621686e-02 3.658112e+00 4.370665e+00 1.058911e-05 -6.103218e-06 -1.369196e-05
N -2.309485e-02 3.606198e+00 -5.948863e+00 6.820279e-06 -1.698084e-06 -1.831017e-05
N -2.558751e-02 3.606563e+00 -7.675799e-01 -3.208751e-05 3.656418e-05 -3.925561e-05
N 3.176738e+00 -1.890857e+00 4.428166e+00 9.334002e-06 -1.406782e-05 -2.136100e-05
N 3.140357e+00 -1.865070e+00 -6.010473e+00 1.519645e-05 -1.456310e-05 -9.699511e-06
N 3.173861e+00 -1.892653e+00 -7.741704e-01 -2.010699e-05 2.626022e-05 -3.778332e-05
N -4.835398e+00 8.896250e-01 4.440150e+00 1.085399e-05 -8.341374e-06 -1.590909e-05
N -4.868319e+00 9.125110e-01 -5.948894e+00 9.747544e-06 -5.231519e-06 -2.827836e-05
N -4.835538e+00 8.916495e-01 -8.484305e-01 -9.292233e-06 1.497997e-05 -3.258215e-06
N -6.430814e+00 3.658210e+00 4.424737e+00 1.642373e-05 -7.823083e-06 -1.774709e-05
N -6.388771e+00 3.632294e+00 -5.989789e+00 -3.206334e-06 2.154250e-06 -1.403787e-05
N -6.428302e+00 3.660306e+00 -7.873392e-01 -6.178691e-06 1.091856e-05 -1.523016e-05
N -3.227435e+00 -1.888920e+00 4.419699e+00 1.065462e-05 -1.513320e-05 -5.873104e-06
N -3.226259e+00 -1.888746e+00 -5.952881e+00 1.132276e-05 -3.909166e-06 -2.638900e-05
N -3.184713e+00 -1.866789e+00 -7.590173e-01 -4.212053e-05 2.364065e-05 -3.639214e-05
N -1.623208e+00 8.872169e-01 4.407838e+00 6.568944e-06 -7.503362e-06 -2.332558e-05
N -1.583251e+00 9.117516e-01 -5.952043e+00 -1.591796e-05 -1.253846e-05 -1.600833e-05
N -1.576008e+00 8.682838e-01 -7.981634e-01 -2.715670e-05 5.926085e-07 -7.913358e-06
N -3.228749e+00 3.662295e+00 4.366120e+00 7.644162e-06 -4.350545e-06 -2.287643e-05
N -3.268488e+00 3.675829e+00 -6.002449e+00 5.051210e-07 -9.046865e-06 -1.662957e-05
N -3.230279e+00 3.664784e+00 -7.900202e-01 -2.352372e-05 3.639878e-06 -6.992006e-05
N -2.028867e-02 -1.890101e+00 4.432086e+00 1.103647e-05 -6.451524e-06 -1.217970e-05
N 2.036878e-02 -1.915721e+00 -5.932003e+00 -9.437818e-06 -1.018206e-06 -2.609768e-05
N -5.980775e-02 -1.868977e+00 -7.781064e-01 -2.729898e-05 3.261076e-06 -5.643313e-05
N 2.008289e-02 1.835068e+00 1.785991e+00 -6.134015e-05 2.884906e-05 1.632053e-05
N 2.917921e-02 1.783488e+00 7.026568e+00 -1.443758e-05 8.250232e-06 -6.004762e-06
N -6.648758e-02 1.781079e+00 -3.421270e+00 1.383544e-05 -7.935024e-06 -1.933562e-05
N 3.182508e+00 -3.790941e+00 1.856683e+00 -2.352274e-05 -1.092533e-06 7.993674e-05
N 3.136565e+00 -3.719010e+00 7.058218e+00 1.197044e-06 -7.702387e-06 -4.707812e-06
N 3.180655e+00 -3.739216e+00 -3.389699e+00 9.326770e-06 -6.339470e-06 -4.389458e-05
N 1.578352e+00 -9.127230e-01 1.833801e+00 -2.988686e-05 -7.191978e-06 1.145151e-05
N 1.618991e+00 -9.274812e-01 7.062215e+00 -3.422935e-06 -6.719671e-06 -1.040572e-05
N 1.582670e+00 -9.637865e-01 -3.447142e+00 -2.750741e-06 -2.370068e-06 -3.484876e-05
N 3.141404e+00 1.784821e+00 1.823534e+00 -1.946356e-06 4.808470e-06 -6.652988e-05
N 3.129202e+00 1.833149e+00 7.063236e+00 6.180149e-06 -1.860786e-05 4.648029e-07
N 3.220681e+00 1.785944e+00 -3.431176e+00 -1.245286e-05 6.868728e-06 -1.372298e-05
N 6.341897e+00 -3.766499e+00 1.835986e+00 -6.284368e-06 2.024270e-06 7.109482e-06
N 6.428198e+00 -3.769952e+00 7.043950e+00 -1.331436e-05 8.664149e-06 -1.905609e-05
N 6.387010e+00 -3.742025e+00 -3.370765e+00 8.174303e-06 -7.695454e-06 -3.359840e-05
N 4.780485e+00 -9.578926e-01 1.813988e+00 -1.470070e-05 1.047648e-05 -2.172407e-05
N 4.740300e+00 -9.874786e-01 7.048685e+00 -1.629690e-06 -5.740838e-06 -1.426846e-05
N 4.781953e+00 -9.197957e-01 -3.358562e+00 1.114124e-06 -1.893616e-05 -3.688769e-05
N -3.230846e+00 1.856457e+00 1.819364e+00 1.256917e-05 -2.380310e-05 1.074685e-05
N -3.226588e+00 1.862941e+00 7.040444e+00 -1.212011e-06 -4.414941e-06 -1.793254e-06
N -3.220180e+00 1.759014e+00 -3.335603e+00 -1.352022e-05 9.065102e-06 -2.824180e-05
N 1.898034e-02 -3.762630e+00 1.839420e+00 -1.860499e-05 3.940300e-06 8.460697e-05
N -2.429828e-02 -3.791359e+00 7.058532e+00 -7.023758e-06 4.509837e-06 -1.441603e-05
N -2.201040e-02 -3.742312e+00 -3.449653e+00 -6.441969e-07 7.872353e-06 -3.080194e-05
N -1.621895e+00 -9.611608e-01 1.751726e+00 -5.014823e-05 2.436364e-05 3.581817e-05
N -1.621033e+00 -9.643884e-01 7.033497e+00 -8.741940e-06 -8.976063e-06 -1.966978e-05
N -1.622115e+00 -9.122057e-01 -3.351041e+00 2.918477e-06 -1.245740e-05 -3.923686e-05
