108
Energy=-894419.019095 Lattice="9.451929 0.000000 0.000000 -4.731755 8.183093 0.000000 -0.004956 -0.000614 15.212695" Stress="0.000006 -0.000003 -0.000001 -0.000003 0.000004 -0.000000 -0.000001 -0.000000 0.000011" Properties=species:S:1:pos:R:3:forces:R:3
Al 1.564234 0.883655 2.386396 -0.000192 -0.000511 -0.000657
Al 1.563662 0.871318 7.457674 0.000226 -0.000169 0.000220
Al 1.552271 0.883350 -2.677960 -0.000051 -0.000800 -0.001165
Al -0.017300 3.604619 2.376325 -0.000862 0.000686 -0.000567
Al -0.028094 3.607063 7.456190 -0.000035 -0.000115 0.000231
Al -0.033755 3.586415 -2.673742 -0.000169 0.000018 0.000135
Al 3.152174 -1.857835 2.406391 -0.000976 0.000628 -0.000439
Al 3.137571 -1.860140 7.453486 0.000241 -0.000031 -0.000054
Al 3.140149 -1.860162 -2.701224 -0.000068 0.000271 -0.000056
Al -4.754953 0.865170 2.386142 0.000125 0.000213 -0.000286
Al -4.758577 0.866696 7.442798 0.000404 0.000014 0.000206
Al -4.751304 0.871314 -2.674148 0.000546 0.000013 0.000019
Al -6.339003 3.589157 2.391715 -0.000582 -0.000371 -0.000124
Al -6.333582 3.589034 7.432569 0.000101 0.000232 0.000198
Al -6.319927 3.584049 -2.661403 -0.000233 0.000668 0.000311
Al -3.180536 -1.857754 2.383157 -0.001029 -0.000613 -0.000195
Al -3.190259 -1.862479 7.444551 -0.000307 -0.000119 0.000617
Ga -3.185472 -1.851699 -2.662438 0.000288 0.000229 0.000438
Al -1.604900 0.872871 2.380380 -0.000339 -0.000212 -0.000237
Ga -1.614948 0.878539 7.474528 0.000337 0.000106 0.000367
Al -1.597736 0.889205 -2.687876 0.000028 -0.000672 -0.000156
Ga -3.169965 3.591398 2.386731 0.000513 0.000148 0.000254
Al -3.179959 3.595104 7.455805 0.000382 -0.000173 0.000226
Al -3.170972 3.591886 -2.685768 0.000130 0.000220 0.000250
Ga -0.032083 -1.854271 2.402272 0.000595 0.000040 0.000019
Ga -0.019922 -1.865964 7.462746 0.000675 0.000185 0.000374
Ga -0.016244 -1.859522 -2.690546 0.000242 0.000037 -0.000105
Ga -0.022422 1.782657 4.911522 -0.000302 0.000065 0.000198
Al -0.029394 1.775862 -5.211450 0.000767 0.000492 0.000352
Al -0.030693 1.785403 -0.145359 0.000529 -0.000166 -0.000651
Al 3.130442 -3.667934 4.934233 -0.000223 0.000143 0.000233
Al 3.124195 -3.678772 -5.226009 -0.000126 0.000401 0.000159
Al 3.139722 -3.678514 -0.161033 -0.000427 0.000397 -0.001287
Al 1.567211 -0.950224 4.919256 0.000557 -0.000359 0.001544
Al 1.564178 -0.949974 -5.217705 -0.000051 -0.000251 -0.000197
Ga 1.572004 -0.947857 -0.146225 -0.000519 0.000326 -0.000638
Al 3.133606 1.777741 4.919841 0.000144 0.000206 0.000213
Ga 3.133895 1.772404 -5.217220 0.000173 0.000023 0.000445
Al 3.133227 1.786972 -0.149285 -0.000198 -0.000029 -0.000496
Al 6.280457 -3.667709 4.916136 0.000253 -0.000189 -0.000185
Ga 6.280165 -3.673763 -5.223682 0.000111 0.000249 0.000456
Al 6.282188 -3.684002 -0.138140 0.000436 0.000142 -0.000204
Al 4.704717 -0.949047 4.916486 -0.000343 0.000135 -0.000136
Al 4.704820 -0.944524 -5.236478 -0.000296 -0.000339 0.000346
Al 4.705498 -0.945471 -0.130941 -0.000122 0.000064 0.000177
Al -3.189289 1.777544 4.921264 -0.000663 0.000652 0.000105
Al -3.173988 1.782896 -5.207705 -0.000288 0.000400 0.000318
Al -3.175028 1.776289 -0.163666 -0.000209 0.000168 -0.000238
Al -0.025793 -3.683144 4.932592 0.000299 -0.001279 0.000094
Al -0.007710 -3.686119 -5.221484 0.000735 0.000925 0.000519
Al -0.026319 -3.689593 -0.152362 0.000129 -0.000170 -0.000102
Al -1.615827 -0.952497 4.916298 0.001140 0.000024 -0.000734
Al -1.600895 -0.938624 -5.217450 0.000758 -0.001010 0.000286
Al -1.607359 -0.935316 -0.135947 -0.000265 -0.000101 -0.000239
N 1.593827 0.850411 4.295951 0.000190 -0.000139 -0.000292
N 1.513670 0.847353 -5.840147 -0.000080 0.000173 -0.000015
N 1.549531 0.918404 -0.769920 -0.000041 0.000988 0.002062
N -0.029865 3.649351 4.292645 0.000066 0.000357 -0.000359
N -0.065212 3.574504 -5.842175 -0.000222 -0.000077 -0.000249
N -0.025295 3.594769 -0.751479 0.000317 -0.000236 0.000260
N 3.133812 -1.862700 4.323643 0.000155 -0.000050 -0.000220
N 3.132427 -1.860520 -5.833750 0.000422 -0.000178 0.000102
N 3.178742 -1.880354 -0.787593 0.000559 -0.000096 0.000040
N -4.753370 0.869750 4.310758 0.000174 -0.000075 -0.000105
N -4.705957 0.849741 -5.852629 0.000440 0.000221 -0.000453
N -4.750322 0.864988 -0.752314 0.000016 -0.000048 0.000210
N -6.330538 3.596363 4.317505 -0.000206 -0.000080 0.000127
N -6.283958 3.619276 -5.872525 -0.000804 -0.000511 -0.000764
N -6.326002 3.598174 -0.748306 -0.000550 -0.000131 -0.000039
N -3.177789 -1.859987 4.306093 0.000232 0.000273 0.000122
N -3.171103 -1.812345 -5.850899 0.000050 0.000194 -0.000380
N -3.174716 -1.856018 -0.685592 -0.000037 -0.000254 -0.000455
N -1.647391 0.855679 4.295093 0.001067 -0.002282 0.000082
N -1.601159 0.877239 -5.764087 -0.000600 -0.000699 -0.000623
N -1.597536 0.874343 -0.762456 0.000441 -0.000290 0.000171
N -3.174483 3.601023 4.365487 0.000022 -0.000362 -0.000249
N -3.173241 3.594520 -5.829224 0.000090 -0.000399 -0.000170
N -3.174276 3.601286 -0.758705 0.000101 -0.000474 -0.000087
N -0.019505 -1.864287 4.380350 -0.001960 0.002702 0.000648
N -0.016150 -1.860225 -5.763763 -0.001272 0.000479 -0.000396
N -0.061384 -1.876694 -0.716075 -0.000291 -0.000447 -0.000059
N -0.023148 1.779518 1.786008 -0.000272 0.000065 0.000057
N 0.013949 1.799385 6.881317 -0.000195 0.000558 -0.000169
N -0.020219 1.782249 -3.289308 -0.000053 0.000060 0.000216
N 3.168352 -3.645023 1.750576 0.001479 -0.001309 0.002006
N 3.128467 -3.677771 6.855968 -0.000002 0.000249 -0.000012
N 3.133080 -3.680163 -3.296675 -0.000106 0.000033 -0.000011
N 1.599883 -0.929071 1.823143 0.000777 0.000603 0.001695
N 1.598412 -0.926841 6.841875 -0.000712 0.000197 -0.002227
N 1.601090 -0.921104 -3.303779 0.000138 0.000648 0.000982
N 3.131273 1.783101 1.776027 -0.000235 -0.000535 0.000220
N 3.124006 1.775099 6.843564 -0.000229 -0.000078 -0.000348
N 3.130422 1.780355 -3.237972 -0.000041 -0.000342 -0.000069
N 6.286382 -3.678090 1.784725 -0.000674 -0.000242 0.000165
N 6.274772 -3.676143 6.843706 -0.000017 -0.000169 -0.000276
N 6.282258 -3.724344 -3.247445 0.000460 -0.000203 -0.000119
N 4.701976 -0.945223 1.791454 -0.000604 -0.000352 -0.000027
N 4.701045 -0.949413 6.839898 -0.000252 -0.000155 -0.000278
N 4.669660 -0.921046 -3.320128 -0.000580 0.000170 -0.000424
N -3.177750 1.733178 1.753327 -0.000104 -0.000043 0.000085
N -3.219077 1.800810 6.832620 -0.000226 0.000058 -0.000448
N -3.179668 1.781360 -3.282330 -0.000225 -0.000190 0.000330
N -0.063501 -3.703276 1.754734 0.000531 0.000165 0.000291
N -0.021968 -3.725064 6.838047 -0.000162 -0.000112 -0.000220
N -0.020194 -3.730018 -3.304597 -0.000148 -0.000646 -0.000192
N -1.641178 -0.924618 1.773931 0.001211 0.001330 0.000662
N -1.642584 -0.969632 6.824125 0.000160 0.000327 -0.001400
N -1.604006 -0.902221 -3.315450 -0.000189 0.000512 0.000445
