108
Energy=-1718375.762659 Lattice="9.490869 0.000000 0.000000 -4.752549 8.217334 0.000000 -0.001414 0.000189 15.325533" Stress="-0.000159 0.000018 -0.000002 0.000018 -0.000137 0.000002 -0.000002 0.000002 -0.000149" Properties=species:S:1:pos:R:3:forces:R:3
Al 1.546879 0.957212 2.503594 -0.003968 -0.030044 -0.039238
Al 1.554026 0.879074 7.498545 0.000640 -0.001211 0.002588
Al 1.560807 0.888185 -2.743195 0.000482 -0.007525 0.005625
Al -0.010514 3.638778 2.441230 -0.010736 -0.009614 0.002561
Al -0.017859 3.601976 7.492638 0.000127 -0.001167 0.002089
Al -0.006427 3.600465 -2.735492 -0.001759 0.000833 0.007287
Al 3.143848 -1.897171 2.608956 0.006082 0.010598 -0.085397
Ga 3.162848 -1.867630 7.507464 0.000785 -0.002838 0.003685
Ga 3.166184 -1.867711 -2.737491 -0.003510 -0.002087 0.009042
Ga -4.792885 0.871207 2.428153 0.002926 -0.009230 -0.004061
Al -4.782464 0.881772 7.502495 -0.000220 -0.003757 0.000732
Al -4.788206 0.888585 -2.739263 0.001823 -0.003675 0.005489
Ga -6.377866 3.598202 2.441702 0.004843 0.001611 -0.002377
Ga -6.363657 3.606456 7.500320 0.000153 0.000629 0.001679
Al -6.362746 3.603395 -2.730432 0.000402 0.000743 0.006190
Ga -3.192019 -1.887136 2.429837 0.005562 0.011339 -0.005178
Ga -3.184460 -1.865051 7.505757 0.000524 -0.002121 0.000647
Ga -3.177628 -1.872042 -2.725310 -0.000676 -0.002471 0.006431
Al -1.630189 0.979086 2.496342 0.015830 -0.030625 -0.029552
Al -1.635072 0.894884 7.512779 0.008731 -0.002302 0.001049
Ga -1.634617 0.895724 -2.734802 0.007158 -0.001260 0.004271
Ga -3.191920 3.619190 2.437066 0.004909 0.003211 -0.004999
Ga -3.202081 3.608590 7.510259 0.005451 0.003452 0.000620
Ga -3.210627 3.608795 -2.731441 0.007422 0.003528 0.005402
Al -0.022729 -1.883726 2.431842 0.004134 0.013216 -0.007331
Ga -0.022461 -1.852082 7.513743 0.004438 -0.001016 0.000817
Ga -0.028019 -1.860900 -2.732068 0.010092 0.001398 0.007568
Al -0.025902 1.789892 4.976874 -0.001100 0.002991 0.000532
Ga -0.016553 1.785160 -5.294552 -0.005683 -0.003020 0.004124
Al -0.015213 1.791277 -0.186837 -0.004726 -0.003496 0.015641
Al 3.169731 -3.698779 4.981634 -0.004757 -0.007536 0.001611
Ga 3.163793 -3.704529 -5.280438 -0.005362 -0.000613 0.003288
Ga 3.173863 -3.710060 -0.134549 -0.005781 0.006681 0.005024
Ga 1.593299 -0.968754 4.963374 -0.012418 0.005937 -0.000948
Al 1.588919 -0.961583 -5.284229 -0.005990 0.004198 0.004551
Ga 1.592115 -0.951211 -0.132856 -0.002201 -0.000864 0.008692
Al 3.125353 1.820726 4.982939 -0.000471 -0.015480 0.000360
Ga 3.136327 1.785742 -5.283819 -0.001056 -0.002216 0.005166
Al 3.132233 1.787707 -0.204104 -0.001089 -0.003046 0.013561
Al 6.301363 -3.702067 4.990318 -0.000815 0.001804 -0.001584
Ga 6.309777 -3.699714 -5.277210 -0.001781 0.000913 0.005929
Ga 6.311699 -3.704000 -0.135880 -0.001318 0.001832 -0.004772
Al 4.732178 -0.970555 4.982892 0.003765 0.008129 0.001335
Ga 4.738526 -0.951338 -5.278572 -0.002111 0.005445 0.003268
Al 4.744976 -0.953213 -0.189506 -0.006381 0.002041 0.017627
Ga -3.203085 1.790971 4.981148 -0.002039 -0.001055 0.000309
Al -3.211226 1.794194 -5.293916 0.000835 -0.001096 0.005434
Al -3.204453 1.785963 -0.184952 0.000702 -0.002314 0.013192
Al -0.031782 -3.694942 4.982095 0.000585 0.001181 -0.000858
Ga -0.025329 -3.690819 -5.272707 0.000885 0.001996 0.003676
Ga -0.033810 -3.698516 -0.132358 0.000929 0.003631 -0.006211
Ga -1.600076 -0.961442 4.976908 -0.000887 0.003975 -0.004594
Ga -1.597308 -0.949664 -5.283017 -0.000633 0.006617 0.002287
Al -1.599583 -0.947933 -0.176884 -0.001126 0.005591 0.019602
N 1.529453 0.899115 4.323438 0.009637 0.009028 0.028563
N 1.557696 0.854140 -5.906856 0.001333 -0.014104 -0.009332
N 1.555618 0.903553 -0.806270 -0.000985 0.004205 -0.001295
N -0.018059 3.614408 4.380031 -0.000098 -0.001001 -0.001385
N -0.014299 3.609131 -5.918420 -0.000432 -0.000290 -0.014561
N -0.013253 3.586361 -0.804137 -0.000728 -0.010005 -0.007304
N 3.186785 -1.894326 4.364338 0.007530 -0.004233 0.041778
N 3.142065 -1.862308 -5.871043 -0.008751 0.003895 0.000508
N 3.181679 -1.864806 -0.773346 0.007413 0.003085 -0.002096
N -4.806706 0.859349 4.395188 -0.009921 -0.005259 0.005804
N -4.763761 0.897074 -5.905969 0.009291 -0.000318 -0.009790
N -4.781553 0.883827 -0.801092 0.002234 -0.002830 0.002184
N -6.362926 3.605809 4.417635 0.000046 0.005939 0.002435
N -6.357425 3.613451 -5.884160 0.001185 -0.000316 -0.002961
N -6.357596 3.591275 -0.799646 0.000189 -0.009566 -0.007008
N -3.203150 -1.887328 4.398089 -0.008538 -0.006259 0.005443
N -3.178949 -1.872159 -5.879350 0.000504 -0.000349 -0.002623
N -3.174664 -1.851910 -0.763970 0.001211 0.008531 0.006613
N -1.595742 0.902516 4.350877 0.008094 0.002919 0.008200
N -1.656194 0.905217 -5.899039 -0.001005 0.001174 -0.007311
N -1.632314 0.891416 -0.769671 0.007447 -0.002552 0.011666
N -3.206639 3.639485 4.400343 0.006189 0.012023 0.004819
N -3.206298 3.594855 -5.869957 0.005620 -0.007390 0.001144
N -3.205453 3.594021 -0.768681 0.006295 -0.008243 0.005737
N -0.029612 -1.901511 4.359443 0.007085 -0.007618 -0.006908
N -0.001546 -1.851754 -5.868575 0.013297 0.005165 0.001698
N -0.044251 -1.853430 -0.768647 -0.002252 0.005882 0.002308
N -0.016597 1.833645 1.853164 -0.004940 -0.005628 -0.014438
N -0.018893 1.787215 6.909016 -0.004713 -0.004193 -0.004285
N 0.005873 1.800188 -3.334715 0.002247 0.001349 0.004895
N 3.200438 -3.657229 1.855480 -0.002591 -0.004310 0.006530
N 3.184151 -3.710860 6.896012 0.001002 -0.004150 -0.009247
N 3.187254 -3.715223 -3.332963 0.002111 -0.006477 0.003403
N 1.617316 -1.028833 1.845746 -0.013479 0.021492 0.019816
N 1.589040 -0.938784 6.913570 -0.005779 0.013002 -0.002171
N 1.590317 -0.939652 -3.361625 -0.007450 0.013226 -0.007671
N 3.103409 1.768343 1.804206 -0.005499 0.001074 -0.018419
N 3.133406 1.769105 6.902376 -0.001728 -0.012027 -0.007560
N 3.134072 1.791340 -3.322387 0.000278 -0.000363 0.008342
N 6.261248 -3.728922 1.811309 0.005709 0.002145 0.004266
N 6.285807 -3.706466 6.894175 -0.007768 -0.003355 -0.008392
N 6.311209 -3.720723 -3.322163 0.000513 -0.007952 0.004702
N 4.713804 -0.978991 1.799632 -0.014662 -0.003389 -0.006794
N 4.736010 -0.935993 6.897723 -0.002580 0.014299 -0.010752
N 4.741882 -0.932026 -3.332274 0.000060 0.015247 0.002097
N -3.176008 1.771399 1.816735 0.000397 0.004719 -0.018185
N -3.205181 1.768655 6.927290 0.000431 -0.010402 0.003822
N -3.230364 1.782955 -3.366386 -0.007909 -0.006189 -0.009765
N -0.035370 -3.677358 1.803898 -0.001926 0.003563 0.011611
N -0.027571 -3.686530 6.888677 0.000624 0.001216 -0.011623
N -0.051122 -3.702124 -3.328040 -0.009026 -0.004349 0.002736
N -1.578738 -0.953437 1.829654 0.006284 0.015895 -0.009861
N -1.599963 -0.928663 6.924577 -0.001118 0.015806 0.000421
N -1.600483 -0.954416 -3.340917 -0.002003 0.006401 -0.001684
