108
Energy=-1.306398e+06 Lattice="9.498976e+00 0.000000e+00 0.000000e+00 -4.750048e+00 8.223855e+00 0.000000e+00 1.593812e-04 5.102003e-04 1.532193e+01" Stress="-4.463425e-04 -1.328550e-05 9.417641e-05 -1.656139e-05 -7.098916e-04 3.936477e-06 6.009075e-05 1.077426e-06 -2.823335e-04" Properties=species:S:1:pos:R:3:forces:R:3 Config_type=AlGaN_super3_19_1_15.xyz
Al 1.560246e+00 8.866713e-01 2.378860e+00 -4.406510e-04 3.983997e-05 -1.369387e-03
Al 1.553581e+00 8.775607e-01 7.520892e+00 8.168967e-05 -7.716728e-05 1.550821e-04
Al 1.542737e+00 8.770524e-01 -2.684821e+00 4.818241e-05 6.609915e-05 -9.995387e-06
Al -2.795550e-02 3.605890e+00 2.387526e+00 -3.591882e-04 -4.832799e-04 9.296080e-04
Al -2.545099e-02 3.604080e+00 7.525266e+00 -9.342194e-04 -3.854535e-04 3.698919e-04
Al -1.925785e-02 3.606388e+00 -2.705275e+00 7.939699e-04 -4.726804e-04 1.417327e-04
Al 3.150522e+00 -1.870136e+00 2.393427e+00 2.358450e-05 -8.692761e-06 5.169967e-04
Al 3.153926e+00 -1.861592e+00 7.525715e+00 -3.994537e-04 3.523727e-04 -2.551195e-04
Ga 3.142018e+00 -1.875542e+00 -2.706471e+00 -2.946296e-04 9.488804e-05 1.217541e-04
Al -4.768321e+00 8.815081e-01 2.399172e+00 -3.758283e-04 -1.041622e-03 -1.910700e-04
Al -4.777369e+00 8.644421e-01 7.491126e+00 2.985681e-04 -4.997034e-05 -1.465123e-05
Ga -4.773834e+00 8.739492e-01 -2.672070e+00 9.635804e-05 3.230985e-04 8.245529e-05
Al -6.357473e+00 3.604944e+00 2.409619e+00 3.251812e-04 -2.249597e-04 -1.343367e-03
Ga -6.354857e+00 3.608446e+00 7.513151e+00 2.068318e-04 1.230913e-04 3.168192e-04
Al -6.377057e+00 3.618511e+00 -2.693810e+00 -1.376040e-04 -1.480422e-05 -2.109090e-04
Al -3.191877e+00 -1.859554e+00 2.413790e+00 3.499012e-04 4.397431e-04 -1.707189e-04
Ga -3.211211e+00 -1.863572e+00 7.511785e+00 -3.603609e-05 3.597850e-04 3.880865e-04
Al -3.180750e+00 -1.874853e+00 -2.706155e+00 6.788768e-04 -4.360288e-04 5.290410e-04
Al -1.605651e+00 8.839253e-01 2.400844e+00 1.083341e-04 -4.700697e-04 -1.487497e-04
Ga -1.601740e+00 8.965745e-01 7.488452e+00 4.268755e-04 -2.722627e-04 2.041840e-04
Al -1.590532e+00 8.736941e-01 -2.674309e+00 3.819590e-04 -1.426185e-04 2.642733e-04
Al -3.178428e+00 3.603524e+00 2.402404e+00 -6.510593e-04 6.374817e-04 -1.149868e-04
Al -3.185916e+00 3.614347e+00 7.494240e+00 1.572485e-04 -7.500171e-05 2.587119e-04
Ga -3.172161e+00 3.615609e+00 -2.675506e+00 2.988867e-06 -2.474430e-04 -1.755774e-04
Ga -2.626555e-02 -1.858991e+00 2.401762e+00 -2.301171e-04 2.333519e-05 -1.695183e-05
Ga -7.571418e-03 -1.867315e+00 7.501346e+00 -5.213351e-05 -2.826139e-04 3.270654e-04
Al -2.521388e-02 -1.847772e+00 -2.677969e+00 8.042030e-05 4.822506e-05 -3.106556e-05
Al -2.643908e-02 1.779818e+00 4.935776e+00 -1.455932e-03 2.194998e-03 5.907946e-05
Al -1.489441e-02 1.796219e+00 -5.234924e+00 5.281912e-04 2.442472e-04 3.213156e-04
Al -3.115961e-02 1.781355e+00 -1.552141e-01 6.692790e-05 -2.396311e-04 7.572634e-04
Ga 3.143843e+00 -3.701836e+00 4.959026e+00 -6.723531e-05 -1.514553e-04 2.103058e-04
Al 3.162670e+00 -3.690880e+00 -5.283505e+00 -7.154084e-04 -7.745345e-04 -6.381847e-04
Al 3.147875e+00 -3.705378e+00 -1.217319e-01 -7.931082e-05 3.209853e-05 -9.681003e-05
Ga 1.567251e+00 -9.448788e-01 4.953373e+00 -2.451562e-04 -1.826140e-04 3.634050e-04
Al 1.571992e+00 -9.454282e-01 -5.253358e+00 -3.572830e-04 2.298349e-04 2.532309e-05
Al 1.558942e+00 -9.408490e-01 -1.432779e-01 -2.055444e-04 2.640255e-04 1.079999e-04
Ga 3.145595e+00 1.780472e+00 4.948622e+00 5.283827e-04 -2.076052e-04 3.536476e-04
Ga 3.125962e+00 1.771661e+00 -5.254163e+00 2.239910e-05 -1.254645e-04 8.000381e-05
Al 3.129947e+00 1.784789e+00 -1.344763e-01 -2.175002e-06 1.103771e-04 3.050506e-04
Ga 6.305819e+00 -3.689874e+00 4.933327e+00 -1.949283e-04 6.285131e-05 1.218010e-05
Al 6.285435e+00 -3.698246e+00 -5.230975e+00 1.310069e-05 -1.485026e-04 -2.580188e-06
Ga 6.300433e+00 -3.700542e+00 -1.417115e-01 4.373787e-04 -8.924959e-05 1.627059e-04
Al 4.733370e+00 -9.441390e-01 4.934205e+00 7.161356e-04 5.298858e-04 4.431410e-04
Al 4.718638e+00 -9.641019e-01 -5.254404e+00 -8.556832e-05 1.763290e-04 1.210775e-04
Ga 4.729514e+00 -9.536852e-01 -1.250163e-01 -1.352192e-04 -1.261685e-04 5.045758e-04
Al -3.190544e+00 1.784735e+00 4.933758e+00 1.662412e-04 -4.432923e-05 1.209783e-05
Ga -3.184623e+00 1.787321e+00 -5.261804e+00 -3.019732e-05 1.353458e-04 3.080429e-04
Al -3.173603e+00 1.783765e+00 -1.135092e-01 7.611194e-04 1.668092e-04 -9.973152e-04
Al -1.800184e-02 -3.702971e+00 4.937680e+00 2.410731e-04 -4.301551e-05 1.846276e-04
Ga -1.288577e-02 -3.687613e+00 -5.227956e+00 1.790584e-04 -7.070928e-05 1.639827e-04
Ga -1.872749e-02 -3.694955e+00 -1.456361e-01 -1.759276e-04 1.043773e-04 -1.899090e-04
Al -1.615386e+00 -9.392560e-01 4.934775e+00 -2.688031e-04 1.152924e-04 -1.051690e-06
Ga -1.603790e+00 -9.494080e-01 -5.221554e+00 3.076354e-05 2.288989e-05 2.486257e-04
Al -1.602549e+00 -9.337729e-01 -1.564908e-01 -1.282833e-04 1.564304e-04 1.561515e-04
N 1.517438e+00 8.994759e-01 4.284583e+00 8.267919e-04 -3.833485e-04 6.393585e-04
N 1.507754e+00 8.526238e-01 -5.883206e+00 2.871837e-04 3.479682e-05 -4.675321e-06
N 1.556340e+00 8.751482e-01 -7.555792e-01 3.344160e-04 -2.531591e-05 -3.137364e-05
N -3.017349e-02 3.567463e+00 4.293740e+00 1.652371e-04 -1.210137e-03 -1.441320e-05
N -1.559505e-02 3.605079e+00 -5.867162e+00 -1.452744e-04 7.006370e-05 1.876090e-04
N -6.829309e-02 3.592081e+00 -7.798000e-01 -6.055081e-05 -3.535833e-05 2.453775e-04
N 3.185599e+00 -1.848085e+00 4.306117e+00 -1.010353e-03 -5.003151e-04 -1.333273e-03
N 3.146835e+00 -1.861756e+00 -5.864388e+00 -1.408016e-04 -6.228814e-05 7.783050e-05
N 3.104452e+00 -1.896590e+00 -7.242640e-01 -1.712091e-04 6.487432e-06 -2.807185e-04
N -4.734139e+00 8.557015e-01 4.315211e+00 1.020461e-04 1.726998e-05 1.975144e-05
N -4.772565e+00 8.235504e-01 -5.910201e+00 1.382250e-04 -1.646654e-04 -3.399242e-04
N -4.770593e+00 9.235509e-01 -6.985614e-01 -2.586130e-04 -1.101202e-04 1.042821e-04
N -6.317278e+00 3.632505e+00 4.311141e+00 6.905841e-05 1.818925e-04 6.877052e-04
N -6.395535e+00 3.643885e+00 -5.836067e+00 -1.840272e-04 -2.715937e-06 -1.344101e-04
N -6.362157e+00 3.568476e+00 -7.864995e-01 -1.552029e-04 -1.248595e-04 -8.749393e-05
N -3.187800e+00 -1.816731e+00 4.324509e+00 7.356275e-05 -3.442599e-05 -1.105306e-04
N -3.226040e+00 -1.890372e+00 -5.826619e+00 -6.941117e-05 -4.898093e-05 -9.133121e-05
N -3.151090e+00 -1.846483e+00 -7.935508e-01 -1.385779e-04 2.281523e-05 -1.897530e-04
N -1.605720e+00 8.798755e-01 4.332760e+00 3.390391e-04 -1.157890e-04 1.499583e-04
N -1.557475e+00 8.993368e-01 -5.861364e+00 -4.366800e-04 -3.307317e-04 -4.158428e-04
N -1.608561e+00 8.810465e-01 -7.522668e-01 2.321166e-04 -8.166346e-05 6.267206e-05
N -3.223056e+00 3.592596e+00 4.319337e+00 8.009737e-05 -1.158134e-04 -2.209383e-04
N -3.155862e+00 3.638035e+00 -5.911207e+00 6.837264e-04 5.781039e-04 2.736363e-04
N -3.140835e+00 3.589395e+00 -7.073972e-01 -8.863067e-05 -1.957563e-04 3.154392e-04
N -6.171059e-02 -1.884832e+00 4.376687e+00 2.595974e-04 -1.579967e-04 -1.043204e-04
N 1.612421e-02 -1.842316e+00 -5.849651e+00 1.092863e-04 -7.334965e-05 -1.895344e-04
N -1.803143e-02 -1.813965e+00 -7.599357e-01 5.982298e-05 7.477334e-06 9.531466e-05
N -2.604793e-02 1.785782e+00 1.772396e+00 -1.443890e-04 3.222282e-04 -9.550961e-04
N 2.369478e-02 1.816310e+00 6.860135e+00 2.483949e-04 -3.924694e-04 -8.411400e-04
N -2.217289e-02 1.785984e+00 -3.303323e+00 -2.797848e-06 8.345976e-06 1.729172e-04
N 3.147107e+00 -3.696771e+00 1.798062e+00 -9.642592e-05 1.198377e-04 1.612244e-04
N 3.151124e+00 -3.693234e+00 6.952908e+00 -2.103158e-04 1.724302e-04 1.804996e-04
N 3.189335e+00 -3.723487e+00 -3.367986e+00 -8.152501e-04 6.270324e-04 -5.873525e-04
N 1.601828e+00 -9.274246e-01 1.773130e+00 2.651044e-04 -2.317684e-04 2.474100e-04
N 1.611564e+00 -9.249448e-01 6.928248e+00 1.809513e-04 -5.930776e-05 1.990308e-04
N 1.523763e+00 -9.263519e-01 -3.327389e+00 -2.370691e-04 1.720827e-04 -1.121857e-04
N 3.142048e+00 1.791377e+00 1.792007e+00 3.526932e-04 -1.650503e-04 -2.029957e-04
N 3.137291e+00 1.738787e+00 6.929178e+00 -8.722547e-05 -1.328677e-04 -1.400513e-04
N 3.099131e+00 1.803494e+00 -3.275624e+00 -1.879434e-05 -4.112581e-05 -7.154152e-05
N 6.310159e+00 -3.693967e+00 1.848400e+00 -9.410807e-05 7.673894e-04 -6.099754e-04
N 6.263158e+00 -3.719853e+00 6.903462e+00 8.049603e-04 3.802304e-04 -3.062660e-04
N 6.301724e+00 -3.697222e+00 -3.304382e+00 2.262043e-04 2.956525e-05 1.512178e-04
N 4.729287e+00 -9.564236e-01 1.848079e+00 4.149411e-04 1.084337e-03 9.579471e-06
N 4.682942e+00 -9.329509e-01 6.859873e+00 -1.196603e-04 -1.137371e-05 -9.469069e-05
N 4.766284e+00 -9.727748e-01 -3.340167e+00 -5.141379e-04 2.184870e-04 -1.915536e-04
N -3.181760e+00 1.785994e+00 1.803653e+00 -3.435552e-04 2.794923e-05 3.374239e-04
N -3.234377e+00 1.811879e+00 6.862414e+00 -1.212119e-04 2.281549e-05 -3.744229e-04
N -3.148352e+00 1.762503e+00 -3.292915e+00 -4.990761e-05 6.256741e-06 -2.232708e-04
N -2.297811e-02 -3.739008e+00 1.824205e+00 4.911356e-04 -6.791765e-04 9.175116e-04
N 1.646886e-02 -3.720286e+00 6.852417e+00 9.122654e-05 -4.597277e-06 -3.992598e-04
N -5.786046e-02 -3.669387e+00 -3.248229e+00 6.211542e-05 1.288651e-04 2.698103e-04
N -1.649208e+00 -9.250962e-01 1.767634e+00 -4.260402e-04 9.642217e-05 3.973881e-05
N -1.610500e+00 -9.525507e-01 6.842678e+00 -3.111507e-04 2.230854e-04 -3.514076e-04
N -1.603024e+00 -9.479519e-01 -3.242605e+00 -1.404115e-04 -7.044373e-07 -6.346109e-05
