108
Energy=-1.672602e+06 Lattice="9.542498e+00 0.000000e+00 0.000000e+00 -4.777855e+00 8.256355e+00 0.000000e+00 -9.338000e-03 -1.675484e-02 1.542044e+01" Stress="-1.683052e-03 -4.020783e-05 -4.594615e-04 -5.311149e-05 -2.524595e-03 -7.942047e-04 -4.381720e-04 -8.031179e-04 -2.023009e-03" Properties=species:S:1:pos:R:3:forces:R:3 Config_type=AlGaN_super3_27_2_16.xyz
Al 1.579584e+00 8.704269e-01 2.454284e+00 -6.457414e-05 4.032437e-04 -1.640958e-04
Al 1.571290e+00 8.786384e-01 7.550916e+00 9.019333e-04 1.168319e-04 1.304813e-03
Al 1.563210e+00 8.966655e-01 -2.741561e+00 1.079628e-04 -2.157080e-04 -1.536129e-04
Al -2.413693e-02 3.639009e+00 2.395467e+00 2.224155e-03 -4.278446e-04 7.321137e-04
Al -1.983445e-02 3.623291e+00 7.585411e+00 -3.362636e-04 1.327118e-04 3.186395e-04
Ga -2.253609e-02 3.626436e+00 -2.723453e+00 -1.131512e-04 -8.600794e-05 8.366593e-04
Al 3.171999e+00 -1.867823e+00 2.415983e+00 1.225606e-03 -1.518167e-03 -1.983455e-03
Al 3.163963e+00 -1.887476e+00 7.554528e+00 -2.416765e-04 -1.261843e-04 4.994981e-04
Ga 3.172389e+00 -1.882076e+00 -2.702547e+00 3.194572e-06 -1.624757e-04 1.003133e-03
Al -4.797225e+00 8.649300e-01 2.414577e+00 -4.042413e-04 -1.038722e-04 1.692705e-04
Ga -4.827951e+00 8.713711e-01 7.555525e+00 8.157962e-04 2.697412e-05 9.647302e-04
Ga -4.798272e+00 8.898994e-01 -2.708618e+00 5.368836e-04 -2.729099e-04 -9.492632e-05
Ga -6.407248e+00 3.620731e+00 2.435881e+00 -3.076436e-04 -2.650999e-04 1.296181e-03
Al -6.406181e+00 3.609286e+00 7.545750e+00 -3.578877e-04 4.323008e-04 -6.164726e-04
Al -6.393530e+00 3.629391e+00 -2.714890e+00 -7.686786e-05 2.367296e-05 2.601489e-04
Al -3.216953e+00 -1.893785e+00 2.420883e+00 -1.545697e-03 3.599400e-03 -1.710853e-03
Al -3.210379e+00 -1.894032e+00 7.545554e+00 1.993718e-04 5.878209e-05 4.289628e-04
Al -3.196155e+00 -1.873764e+00 -2.693787e+00 7.902275e-07 1.473114e-04 6.050847e-04
Ga -1.629021e+00 8.822934e-01 2.438031e+00 7.128716e-04 -4.049678e-04 8.040914e-05
Ga -1.619566e+00 8.714730e-01 7.547039e+00 5.245020e-04 -6.677031e-04 6.197007e-04
Al -1.611051e+00 8.919180e-01 -2.713945e+00 5.845553e-04 -2.460039e-04 -2.828779e-04
Ga -3.199582e+00 3.624003e+00 2.427236e+00 2.188371e-04 -3.318675e-04 7.678163e-04
Ga -3.211002e+00 3.629823e+00 7.547766e+00 1.702878e-04 -2.239311e-04 8.399655e-04
Al -3.195873e+00 3.632526e+00 -2.705221e+00 2.386962e-04 -3.893934e-04 -4.179874e-05
Ga -1.601614e-02 -1.862171e+00 2.461734e+00 1.071412e-04 -2.561231e-04 -5.863816e-04
Ga -2.954207e-02 -1.881561e+00 7.533452e+00 2.372962e-04 -2.612836e-04 4.669618e-04
Ga -2.531780e-02 -1.864680e+00 -2.713514e+00 6.291133e-04 -2.262688e-04 -1.583474e-03
Ga -1.599951e-02 1.780527e+00 4.994065e+00 -1.928755e-04 9.155741e-04 -6.181365e-04
Al -1.288714e-02 1.804514e+00 -5.295723e+00 -1.785389e-04 1.983490e-04 1.106917e-04
Ga -2.429409e-02 1.798938e+00 -1.399176e-01 -5.411541e-04 5.818631e-04 7.351885e-04
Ga 3.159547e+00 -3.713867e+00 4.988958e+00 -2.141560e-04 2.207286e-04 9.143458e-05
Al 3.170125e+00 -3.710038e+00 -5.300095e+00 -2.649061e-04 2.820963e-04 5.605761e-04
Al 3.171045e+00 -3.714772e+00 -1.334321e-01 -3.795946e-04 5.813225e-04 -2.474419e-04
Al 1.576854e+00 -9.585500e-01 4.999315e+00 -1.354956e-03 -7.874335e-04 -1.105028e-03
Ga 1.592630e+00 -9.386451e-01 -5.302387e+00 -8.899443e-04 8.258942e-04 -8.328413e-05
Ga 1.592603e+00 -9.522739e-01 -1.309246e-01 -1.116008e-03 4.291931e-04 1.087153e-04
Al 3.161275e+00 1.769505e+00 4.989855e+00 -1.188215e-03 5.815833e-03 -2.436007e-03
Al 3.137380e+00 1.810826e+00 -5.289947e+00 -9.864885e-05 -8.183355e-05 5.769613e-04
Ga 3.151329e+00 1.793369e+00 -1.395907e-01 4.717354e-04 7.032364e-05 3.830286e-04
Ga 6.345997e+00 -3.713945e+00 5.009653e+00 2.999833e-04 -6.982517e-04 5.322920e-04
Ga 6.345177e+00 -3.713131e+00 -5.302423e+00 1.169587e-04 2.573800e-04 5.734734e-04
Al 6.332400e+00 -3.697094e+00 -1.523882e-01 -1.605708e-04 -1.665286e-05 6.422783e-04
Ga 4.748261e+00 -9.513773e-01 4.977876e+00 1.309935e-04 -1.143195e-04 -9.306979e-05
Ga 4.753332e+00 -9.598641e-01 -5.298869e+00 -4.003726e-04 1.727352e-04 8.290118e-04
Al 4.761685e+00 -9.668746e-01 -1.229187e-01 -1.370897e-04 2.122554e-04 6.727774e-04
Al -3.229897e+00 1.788924e+00 4.983447e+00 3.049907e-04 2.494613e-04 5.953688e-04
Ga -3.199612e+00 1.815132e+00 -5.268865e+00 8.001072e-05 1.058792e-04 7.088152e-04
Al -3.205189e+00 1.801307e+00 -1.601251e-01 -9.204113e-05 -7.878915e-06 -2.458890e-04
Al -2.917386e-02 -3.718161e+00 5.001737e+00 -3.843844e-04 2.109682e-04 -2.019335e-04
Ga -1.949917e-02 -3.720542e+00 -5.277593e+00 1.679676e-04 3.062885e-05 3.456593e-04
Ga -1.510386e-02 -3.720973e+00 -1.588151e-01 -3.422292e-05 3.009802e-04 1.039166e-04
Al -1.619961e+00 -9.661494e-01 4.989576e+00 -1.219293e-04 -7.393492e-05 -6.226696e-04
Ga -1.615508e+00 -9.414368e-01 -5.274176e+00 -6.471422e-04 2.480132e-04 6.663973e-04
Ga -1.636887e+00 -9.510337e-01 -1.471092e-01 -2.817759e-04 3.638588e-04 1.147986e-03
N 1.605507e+00 8.433814e-01 4.367303e+00 6.245273e-04 -1.649334e-04 8.895578e-05
N 1.570515e+00 9.358042e-01 -5.938438e+00 2.965718e-04 -2.513074e-04 -1.165074e-03
N 1.563935e+00 8.801177e-01 -8.347367e-01 2.908694e-04 1.536526e-05 6.746136e-04
N -2.129305e-02 3.625612e+00 4.308476e+00 -5.469979e-04 1.634195e-04 -5.057111e-04
N -6.128180e-02 3.611799e+00 -5.911302e+00 -4.142804e-04 -4.727370e-04 -4.111191e-04
N -2.586302e-02 3.673878e+00 -7.365513e-01 -8.664371e-05 1.744786e-04 -1.631072e-04
N 3.120745e+00 -1.858604e+00 4.328989e+00 -5.382534e-04 1.305691e-04 2.794910e-04
N 3.166391e+00 -1.916740e+00 -5.949793e+00 8.157974e-05 -6.360029e-04 -8.101838e-04
N 3.207336e+00 -1.901270e+00 -7.185947e-01 7.286046e-04 -3.565142e-04 3.734077e-04
N -4.800992e+00 9.198958e-01 4.343376e+00 9.533431e-04 -8.329019e-04 -6.042620e-04
N -4.840187e+00 9.152068e-01 -5.881631e+00 3.400169e-04 7.275112e-05 -5.521152e-04
N -4.762683e+00 8.526990e-01 -7.259810e-01 5.878011e-04 -4.635324e-04 -1.069948e-05
N -6.356372e+00 3.604261e+00 4.412172e+00 1.513836e-04 -3.067600e-03 2.776532e-04
N -6.381192e+00 3.588002e+00 -5.955085e+00 -8.823380e-05 -5.420038e-04 -8.179244e-04
N -6.433533e+00 3.650512e+00 -7.972619e-01 -4.890264e-04 5.456177e-05 -5.452597e-05
N -3.169187e+00 -1.864443e+00 4.332475e+00 6.287230e-04 7.417243e-05 8.459776e-06
N -3.191426e+00 -1.866059e+00 -5.970589e+00 1.033933e-04 -4.851550e-05 -6.528254e-04
N -3.246394e+00 -1.896298e+00 -7.761723e-01 -3.946952e-04 -1.337543e-04 -5.840946e-06
N -1.664842e+00 8.561726e-01 4.417152e+00 5.787039e-04 -5.857760e-04 -9.287766e-05
N -1.578585e+00 9.121964e-01 -5.896933e+00 1.111102e-03 -2.982895e-04 -5.433232e-04
N -1.652593e+00 9.094324e-01 -7.982758e-01 8.238725e-04 -3.084521e-04 6.373881e-04
N -3.249869e+00 3.606493e+00 4.408992e+00 3.139451e-04 -6.553288e-04 -5.626895e-04
N -3.167870e+00 3.662764e+00 -5.902525e+00 5.010555e-04 -3.238434e-04 -6.273391e-04
N -3.157291e+00 3.614725e+00 -7.805614e-01 6.874395e-04 -4.802986e-04 1.855263e-05
N -2.134348e-02 -1.876436e+00 4.448547e+00 8.858828e-04 3.908486e-04 8.822063e-04
N -1.973957e-02 -1.866415e+00 -5.909043e+00 4.473520e-04 -3.364086e-04 -2.510300e-04
N -1.773631e-02 -1.863015e+00 -7.563130e-01 2.479502e-04 -4.175435e-04 9.612593e-04
N 2.102592e-02 1.805395e+00 1.851526e+00 1.087045e-05 -4.194111e-05 -1.546638e-03
N 1.805395e-02 1.812588e+00 6.971907e+00 -1.050982e-03 8.540497e-04 2.416756e-04
N -2.302019e-02 1.751907e+00 -3.366061e+00 -2.885173e-04 -8.300229e-05 -5.324864e-04
N 3.196656e+00 -3.698354e+00 1.785925e+00 -1.905762e-04 3.871616e-03 1.007505e-03
N 3.208051e+00 -3.699338e+00 6.967492e+00 3.336183e-04 4.551154e-04 -4.131986e-04
N 3.126107e+00 -3.729747e+00 -3.379445e+00 -4.164898e-04 3.818950e-04 -6.627143e-04
N 1.607733e+00 -9.308841e-01 1.846288e+00 6.732536e-04 -1.918959e-04 3.837909e-04
N 1.614666e+00 -9.398921e-01 6.926158e+00 4.497576e-04 2.618682e-04 -4.511665e-05
N 1.585506e+00 -9.092742e-01 -3.328546e+00 -6.975190e-04 4.888133e-04 -4.999760e-05
N 3.151514e+00 1.745609e+00 1.839318e+00 -8.521304e-05 -5.649737e-04 -1.977503e-04
N 3.106277e+00 1.808010e+00 6.900717e+00 -2.178643e-04 -9.268182e-04 1.642640e-03
N 3.114757e+00 1.827938e+00 -3.361082e+00 -5.751807e-05 1.265769e-04 -5.519420e-04
N 6.309329e+00 -3.690749e+00 1.773646e+00 -1.621123e-03 4.253683e-04 -4.224553e-04
N 6.329996e+00 -3.720374e+00 6.997833e+00 2.332241e-04 -4.668187e-04 1.904607e-05
N 6.385853e+00 -3.677680e+00 -3.314499e+00 4.052005e-04 4.328118e-07 -6.706825e-04
N 4.754393e+00 -9.538319e-01 1.811310e+00 4.571193e-04 -3.078415e-03 8.037893e-05
N 4.745977e+00 -1.009829e+00 6.963259e+00 -5.494107e-04 -3.408156e-04 -8.318394e-04
N 4.797539e+00 -9.793859e-01 -3.323074e+00 -2.249363e-04 1.953381e-04 -7.668192e-04
N -3.246048e+00 1.774030e+00 1.758017e+00 -7.026843e-04 -1.570168e-04 2.358954e-04
N -3.222420e+00 1.784375e+00 6.889074e+00 -1.752246e-04 2.732382e-05 -4.282647e-04
N -3.165168e+00 1.826441e+00 -3.293196e+00 -1.324403e-04 -1.894774e-06 1.943384e-04
N -2.397727e-02 -3.707626e+00 1.808052e+00 1.651234e-04 -7.373413e-05 -2.383289e-05
N -7.046615e-02 -3.745353e+00 6.909944e+00 -1.377597e-04 1.327677e-04 -8.328429e-05
N -1.801288e-02 -3.757133e+00 -3.292128e+00 4.783854e-05 -3.712525e-04 4.358117e-04
N -1.651789e+00 -9.794981e-01 1.830430e+00 -1.310924e-03 -1.235625e-03 -9.169936e-04
N -1.662661e+00 -9.886789e-01 6.897973e+00 -8.765604e-04 2.329166e-04 -3.989172e-04
N -1.656378e+00 -9.269770e-01 -3.292886e+00 -7.513537e-04 3.312491e-04 2.232588e-04
