108
Energy=-1077520.945835 Lattice="9.474097 0.000000 0.000000 -4.742292 8.202021 0.000000 -0.003601 0.004028 15.260114" Stress="0.000003 -0.000003 0.000000 -0.000003 0.000002 0.000002 0.000000 0.000002 0.000007" Properties=species:S:1:pos:R:3:forces:R:3
Al 1.557330 0.854061 2.399929 -0.002849 -0.002561 0.001998
Al 1.563336 0.883833 7.483636 -0.000017 -0.000304 -0.000343
Al 1.549570 0.884698 -2.700413 -0.000048 -0.000754 0.000410
Al -0.030552 3.606496 2.384387 -0.000092 -0.001081 0.000388
Al -0.027739 3.610542 7.486057 0.000002 0.000150 0.000407
Al -0.024872 3.592815 -2.692674 -0.000184 0.000060 0.000357
Al 3.123331 -1.867765 2.394992 -0.000506 0.000184 0.000591
Al 3.148475 -1.859942 7.457757 -0.000015 0.000054 0.000032
Ga 3.138014 -1.873436 -2.674059 -0.000203 0.000049 0.000907
Al -4.754641 0.882757 2.426672 -0.003509 -0.001454 -0.000812
Al -4.771356 0.875440 7.472276 0.000314 -0.000200 0.000123
Al -4.752858 0.886877 -2.714615 0.000177 0.000713 0.002620
Ga -6.364860 3.589400 2.411918 0.000802 0.000917 -0.000354
Al -6.360002 3.594997 7.485422 0.000171 -0.000040 0.000042
Al -6.336950 3.600909 -2.701811 -0.000143 0.000250 0.000673
Ga -3.177127 -1.869096 2.406642 -0.000044 -0.000265 0.001162
Al -3.185304 -1.854066 7.459428 0.000005 0.000065 0.000150
Al -3.161175 -1.861188 -2.683209 0.000123 0.000088 0.000250
Ga -1.599571 0.877667 2.378734 0.000222 -0.000307 0.000539
Al -1.614315 0.873986 7.495093 0.000569 -0.000177 0.000226
Al -1.602935 0.876913 -2.699047 0.000428 -0.000269 0.000349
Al -3.166619 3.599457 2.398612 -0.001219 0.001556 -0.000192
Ga -3.175830 3.603833 7.497600 0.000440 -0.000135 0.000515
Al -3.179567 3.596383 -2.707708 -0.000095 0.000093 0.000078
Al -0.004988 -1.848834 2.398352 -0.000421 -0.002350 -0.000673
Ga -0.033522 -1.841951 7.490838 0.000324 -0.000255 0.000500
Al -0.032424 -1.861514 -2.698881 0.000341 0.000257 0.000118
Ga -0.021044 1.784747 4.951300 -0.000152 0.000005 -0.000180
Al -0.031881 1.783728 -5.243355 -0.000115 -0.000019 0.000469
Al -0.024396 1.785107 -0.165693 0.000023 0.000023 0.000930
Al 3.143786 -3.678376 4.922595 0.000172 0.000300 0.000331
Al 3.139151 -3.699865 -5.230426 -0.000084 0.000042 0.000179
Al 3.144917 -3.703778 -0.141727 -0.000227 0.000290 0.000312
Al 1.569254 -0.947659 4.935060 -0.000459 0.000461 -0.000418
Ga 1.562442 -0.947225 -5.235126 -0.000746 0.000314 0.000533
Al 1.543240 -0.947817 -0.145902 -0.000440 0.000237 0.000368
Al 3.132693 1.772392 4.950920 -0.000281 -0.000600 0.000202
Al 3.138761 1.790638 -5.240116 0.000049 -0.000219 0.000418
Ga 3.126889 1.773038 -0.145796 -0.000000 0.000101 -0.000514
Al 6.275895 -3.679882 4.969832 0.000254 -0.000381 0.000316
Ga 6.300006 -3.689029 -5.236487 -0.000164 -0.000011 0.000143
Al 6.284498 -3.687683 -0.176953 0.000177 0.000008 -0.000205
Al 4.707659 -0.946962 4.943858 -0.000349 0.000297 -0.000385
Ga 4.729171 -0.943683 -5.245938 -0.000723 0.000018 -0.000002
Ga 4.727150 -0.947565 -0.138711 -0.000176 0.000142 -0.000342
Al -3.191310 1.779915 4.950922 0.001074 -0.000926 -0.000105
Al -3.177358 1.785581 -5.230326 0.000111 -0.000171 0.000006
Al -3.168590 1.791138 -0.165509 -0.000493 -0.000284 -0.000529
Ga -0.022451 -3.677599 4.930289 -0.000103 -0.000046 -0.000059
Al -0.020504 -3.693969 -5.216575 0.000049 -0.000135 0.000011
Ga -0.008885 -3.675046 -0.148814 -0.000395 -0.000388 -0.001784
Al -1.610117 -0.942623 4.949286 0.000594 -0.001270 0.000545
Al -1.602398 -0.936040 -5.220041 0.000464 -0.000120 -0.000075
Al -1.588872 -0.942903 -0.176528 -0.000350 -0.000251 0.000288
N 1.591372 0.849334 4.317256 0.000272 -0.000305 0.000151
N 1.559197 0.921915 -5.860240 0.000229 0.000007 -0.000262
N 1.514420 0.848468 -0.783432 0.000199 -0.000022 -0.000472
N -0.024591 3.649691 4.306488 0.000305 0.000409 -0.000607
N -0.065002 3.584997 -5.860428 -0.000044 -0.000221 -0.000222
N -0.029789 3.602573 -0.769912 -0.000151 -0.000292 -0.000012
N 3.133337 -1.862448 4.325915 0.000059 -0.000139 -0.000363
N 3.142441 -1.914104 -5.885711 0.000209 0.000109 -0.000177
N 3.097796 -1.890221 -0.701578 0.000078 -0.000114 -0.000324
N -4.760928 0.877418 4.349273 0.000442 0.000318 -0.000913
N -4.760543 0.922957 -5.866881 0.000397 0.000316 -0.000134
N -4.718017 0.900503 -0.799317 -0.000107 0.000090 -0.002156
N -6.399821 3.584120 4.382061 0.000450 -0.000008 -0.000681
N -6.300122 3.582594 -5.856169 0.000128 0.000067 -0.000203
N -6.373979 3.623546 -0.789866 -0.000216 -0.000161 -0.000687
N -3.180384 -1.865079 4.394008 -0.000101 -0.000029 0.000064
N -3.129271 -1.837081 -5.888217 -0.000350 -0.000374 -0.000478
N -3.135682 -1.881315 -0.772060 0.000156 -0.000017 -0.000534
N -1.643446 0.848973 4.352374 -0.001620 0.002384 0.000038
N -1.606707 0.872235 -5.837420 0.000226 -0.000156 -0.000083
N -1.601640 0.879002 -0.767151 0.000228 -0.000201 0.000163
N -3.142652 3.579725 4.316742 0.000623 -0.000467 -0.000397
N -3.181860 3.607451 -5.782552 -0.000175 -0.000216 -0.000016
N -3.139022 3.588095 -0.787112 0.000566 -0.000718 -0.000356
N -0.024602 -1.800488 4.318181 0.000110 -0.000789 -0.000719
N -0.062725 -1.883247 -5.797577 -0.000398 -0.000069 0.000188
N -0.019002 -1.817345 -0.786114 0.000184 0.000098 -0.000584
N 0.029548 1.797713 1.766469 -0.002693 0.002915 -0.001304
N -0.027681 1.783718 6.932456 -0.000276 0.000236 0.000130
N -0.024441 1.782592 -3.312596 -0.000061 0.000202 -0.000064
N 3.138375 -3.691469 1.786582 -0.000117 -0.000229 0.000108
N 3.176817 -3.664380 6.840738 -0.000087 0.000242 -0.000389
N 3.146212 -3.732689 -3.319536 0.000044 0.000275 -0.000426
N 1.556637 -0.952736 1.782494 -0.000342 -0.000900 -0.000023
N 1.596432 -0.923902 6.854264 0.000142 0.000439 0.001233
N 1.525176 -0.928697 -3.269492 -0.000059 0.000534 -0.000007
N 3.116065 1.719762 1.832959 0.008809 0.002617 -0.002777
N 3.129885 1.784123 6.871198 -0.000042 -0.000069 -0.000052
N 3.133457 1.782209 -3.313193 -0.000002 -0.000284 0.000101
N 6.249499 -3.707283 1.735355 0.000600 0.000081 -0.000451
N 6.286306 -3.685865 6.890855 0.000142 -0.000019 0.000091
N 6.294582 -3.684685 -3.253962 -0.000019 -0.000058 -0.000171
N 4.678482 -0.924993 1.838308 0.000570 0.001593 0.001085
N 4.711446 -0.942229 6.869104 -0.000247 -0.000065 0.000019
N 4.759445 -0.930117 -3.267743 -0.000033 -0.000522 -0.000274
N -3.224610 1.809461 1.759442 -0.000546 -0.001362 -0.000707
N -3.185628 1.743569 6.864628 0.000080 -0.000129 -0.000242
N -3.176932 1.781275 -3.312351 -0.000102 -0.000257 0.000099
N 0.011507 -3.678359 1.828696 0.001513 0.003981 0.003609
N -0.061717 -3.702246 6.894925 -0.000056 -0.000127 -0.000385
N -0.019514 -3.686675 -3.292745 0.000066 -0.000075 0.000130
N -1.558455 -0.977856 1.737550 -0.000314 -0.000215 0.000198
N -1.639391 -0.916702 6.855609 -0.000595 -0.000037 0.000089
N -1.602314 -0.944788 -3.298281 -0.000363 0.000031 -0.000360
