108
Energy=-2.816989e+06 Lattice="9.635370e+00 0.000000e+00 0.000000e+00 -4.831108e+00 8.326321e+00 0.000000e+00 -2.388475e-01 2.302477e-01 1.556000e+01" Stress="-2.632363e-02 3.212082e-04 -8.409878e-03 3.309835e-04 -2.757798e-02 8.206526e-03 -8.426061e-03 8.214189e-03 -3.247563e-02" Properties=species:S:1:pos:R:3:forces:R:3 Config_type=AlGaN_super3_52_2_5.xyz
Al 1.476366e+00 9.932762e-01 2.477372e+00 4.375788e-03 -6.267844e-03 -4.523606e-03
Ga 1.450294e+00 1.018518e+00 7.631369e+00 6.661528e-04 -6.009497e-03 3.424530e-04
Ga 1.673959e+00 8.039583e-01 -2.735799e+00 6.585337e-04 -5.993104e-03 2.233985e-03
Ga -1.237711e-01 3.753654e+00 2.436266e+00 2.431987e-05 -3.158821e-03 3.415178e-03
Ga -1.501295e-01 3.783071e+00 7.630802e+00 -7.941713e-05 -6.967337e-04 1.376668e-03
Ga 7.393024e-02 3.577168e+00 -2.754460e+00 -8.509546e-05 -7.183313e-04 -7.546276e-04
Ga 3.094210e+00 -1.786543e+00 2.447687e+00 1.737756e-03 -2.027047e-03 8.454897e-04
Ga 3.079012e+00 -1.773709e+00 7.631423e+00 5.142444e-05 -2.529562e-04 1.290717e-03
Ga 3.306927e+00 -1.988910e+00 -2.743416e+00 -6.752795e-04 8.471239e-04 5.917635e-04
Ga -4.971115e+00 1.007514e+00 2.449138e+00 3.210762e-03 -6.617613e-03 1.131237e-04
Ga -4.984769e+00 1.022150e+00 7.634025e+00 1.180618e-03 -5.869803e-03 2.530751e-04
Ga -4.758494e+00 8.033393e-01 -2.740249e+00 2.169888e-04 -5.556164e-03 -1.388055e-04
Ga -6.573808e+00 3.768381e+00 2.448752e+00 2.632727e-03 -2.054199e-03 9.649489e-04
Ga -6.585655e+00 3.787318e+00 7.633080e+00 1.343437e-04 -2.078748e-04 1.448512e-03
Ga -6.363240e+00 3.575910e+00 -2.741709e+00 -4.413549e-04 -3.182820e-04 8.288637e-04
Ga -3.341521e+00 -1.786423e+00 2.446080e+00 1.773640e-03 -9.448413e-04 1.672780e-03
Ga -3.355985e+00 -1.770448e+00 7.630472e+00 3.562687e-04 7.666928e-05 1.443527e-03
Al -3.131420e+00 -1.986771e+00 -2.752759e+00 -2.075083e-04 7.216008e-04 8.410192e-04
Ga -1.757523e+00 1.002976e+00 2.446713e+00 8.000096e-03 -3.044777e-03 -2.674422e-04
Ga -1.785493e+00 1.025242e+00 7.633979e+00 6.623918e-03 -3.769351e-03 -1.013463e-03
Ga -1.569096e+00 8.057546e-01 -2.747073e+00 6.784101e-03 -3.660040e-03 -1.946818e-03
Ga -3.369978e+00 3.774308e+00 2.448864e+00 7.321696e-03 7.374428e-04 2.226883e-04
Ga -3.387268e+00 3.790614e+00 7.632602e+00 5.596927e-03 1.788023e-03 9.703617e-05
Ga -3.163581e+00 3.574939e+00 -2.743278e+00 5.290661e-03 2.201581e-03 -1.143518e-04
Ga -1.415371e-01 -1.777191e+00 2.450553e+00 8.292021e-03 1.064015e-03 -4.504923e-04
Ga -1.576641e-01 -1.767073e+00 7.633728e+00 5.563091e-03 2.185571e-03 1.565206e-04
Ga 6.143358e-02 -1.983503e+00 -2.740903e+00 5.636078e-03 3.269400e-03 -4.518964e-04
Ga -1.356949e-01 1.927613e+00 5.031987e+00 -4.980754e-03 -2.667010e-03 2.461872e-04
Ga 8.559658e-02 1.713606e+00 -5.334869e+00 -5.201482e-03 -2.664511e-03 8.270064e-05
Ga 4.237264e-02 1.755809e+00 -1.742732e-01 -2.105482e-03 -6.084198e-03 1.345659e-02
Ga 3.091410e+00 -3.628777e+00 5.039243e+00 -4.234134e-03 -2.854051e-03 -2.630734e-06
Ga 3.313565e+00 -3.843213e+00 -5.336005e+00 -5.098149e-03 -2.314940e-03 -7.379252e-06
Ga 3.295975e+00 -3.823635e+00 -1.522670e-01 -1.193885e-02 3.366988e-03 1.896904e-03
Ga 1.489916e+00 -8.628835e-01 5.039971e+00 -5.846291e-03 3.188895e-03 -1.017805e-03
Ga 1.713368e+00 -1.078050e+00 -5.331289e+00 -5.969174e-03 3.319669e-03 -7.524000e-04
Ga 1.693873e+00 -1.059845e+00 -1.303740e-01 -1.132094e-02 1.059939e-02 8.124530e-04
Ga 3.058068e+00 1.931902e+00 5.036198e+00 2.899480e-04 -7.937452e-04 1.356011e-03
Ga 3.282210e+00 1.716668e+00 -5.334105e+00 2.258813e-04 -6.623786e-04 1.504163e-03
Ga 3.263389e+00 1.733931e+00 -1.353797e-01 -6.956913e-03 2.746191e-03 3.495295e-03
Ga 6.287917e+00 -3.624748e+00 5.039473e+00 -1.625302e-05 -6.083758e-04 1.379576e-03
Ga 6.513067e+00 -3.837338e+00 -5.332019e+00 2.353448e-04 -8.992312e-04 1.409981e-03
Ga 6.494416e+00 -3.818952e+00 -1.641089e-01 -3.847773e-03 4.604638e-03 4.382676e-03
Ga 4.687561e+00 -8.608298e-01 5.040926e+00 -4.521120e-04 5.399988e-03 8.401882e-05
Ga 4.914396e+00 -1.078167e+00 -5.328723e+00 -1.114624e-03 5.738718e-03 4.669897e-04
Ga 4.901463e+00 -1.064932e+00 -1.598192e-01 -6.191956e-03 1.052279e-02 3.066129e-03
Ga -3.374779e+00 1.936299e+00 5.037625e+00 1.079033e-03 -7.944711e-04 1.111299e-03
Ga -3.152067e+00 1.721016e+00 -5.337948e+00 4.957855e-04 -3.203793e-04 1.172855e-03
Ga -3.171651e+00 1.737241e+00 -1.514096e-01 -5.703464e-03 4.463854e-03 2.384357e-03
Ga -1.466317e-01 -3.621176e+00 5.038868e+00 8.007304e-04 -2.150178e-04 1.099619e-03
Ga 7.803248e-02 -3.837259e+00 -5.334954e+00 6.212323e-04 7.677351e-05 1.331368e-03
Ga 6.277427e-02 -3.822405e+00 -1.501977e-01 -5.028279e-03 5.231758e-03 3.405458e-03
Ga -1.748226e+00 -8.572960e-01 5.041123e+00 -2.448357e-04 5.720996e-03 1.784453e-04
Ga -1.525983e+00 -1.074731e+00 -5.331007e+00 2.439853e-04 6.077729e-03 3.317317e-04
Ga -1.544293e+00 -1.058327e+00 -1.585978e-01 -5.326312e-03 1.042145e-02 1.943169e-03
N 1.463397e+00 1.007001e+00 4.396122e+00 7.214697e-04 -5.858279e-03 -7.738449e-03
N 1.683452e+00 7.942570e-01 -5.961934e+00 3.365529e-04 -5.575429e-03 -6.028567e-04
N 1.659076e+00 8.169180e-01 -7.616401e-01 -1.651507e-03 -3.908948e-03 -4.345339e-03
N -1.390439e-01 3.775794e+00 4.408817e+00 -6.649781e-04 -3.458739e-05 -1.389226e-03
N 8.380632e-02 3.560912e+00 -5.960588e+00 -4.286028e-04 1.555883e-04 -1.303190e-03
N 6.002486e-02 3.588801e+00 -7.958552e-01 -1.114434e-03 1.782003e-03 2.197789e-03
N 3.089065e+00 -1.784014e+00 4.412088e+00 -3.686927e-04 4.926790e-05 -8.214207e-04
N 3.312874e+00 -1.997291e+00 -5.960587e+00 -5.783993e-04 7.029680e-04 -1.598804e-03
N 3.292503e+00 -1.979009e+00 -7.787726e-01 -2.122168e-03 2.199115e-03 -6.437578e-04
N -4.973658e+00 1.012991e+00 4.413293e+00 9.314330e-04 -5.880143e-03 2.939547e-04
N -4.751467e+00 7.959411e-01 -5.959342e+00 3.711486e-04 -5.625818e-03 -2.065945e-04
N -4.770553e+00 8.129779e-01 -7.760858e-01 -8.839743e-04 -3.600990e-03 2.468839e-04
N -6.576963e+00 3.780336e+00 4.414055e+00 1.808100e-04 -1.372524e-04 -9.834406e-04
N -6.352614e+00 3.563949e+00 -5.959068e+00 -4.628776e-04 2.173936e-04 -1.404595e-03
N -6.368593e+00 3.577753e+00 -7.762642e-01 -1.202930e-03 1.451200e-03 -4.908441e-04
N -3.347394e+00 -1.779848e+00 4.412109e+00 1.251543e-04 2.566689e-04 -1.414585e-03
N -3.122960e+00 -1.995313e+00 -5.964575e+00 -4.213018e-04 6.699179e-04 -1.385473e-03
N -3.136825e+00 -1.980333e+00 -8.233249e-01 -1.856627e-03 2.471713e-03 -8.641950e-03
N -1.776365e+00 1.013535e+00 4.412711e+00 6.048450e-03 -3.409593e-03 1.068646e-03
N -1.552534e+00 7.997282e-01 -5.960149e+00 6.097609e-03 -3.525722e-03 1.136889e-03
N -1.577968e+00 8.201248e-01 -7.863979e-01 5.410186e-03 -2.426054e-03 2.474427e-03
N -3.376645e+00 3.782379e+00 4.412742e+00 5.247224e-03 2.175491e-03 2.045560e-04
N -3.153657e+00 3.567134e+00 -5.962748e+00 5.056842e-03 2.413313e-03 -1.166752e-04
N -3.170071e+00 3.582880e+00 -7.814936e-01 4.327767e-03 3.743607e-03 3.494274e-04
N -1.500687e-01 -1.775924e+00 4.413780e+00 5.628505e-03 2.311624e-03 2.750090e-04
N 7.479685e-02 -1.991303e+00 -5.959567e+00 5.080023e-03 2.827924e-03 -2.506969e-04
N 6.020083e-02 -1.974755e+00 -7.766432e-01 4.428842e-03 4.027192e-03 7.716660e-04
N -7.219217e-02 1.874618e+00 1.860121e+00 -3.465892e-03 -2.324211e-03 -1.019267e-02
N -1.443172e-01 1.934851e+00 7.001569e+00 -5.683375e-03 -2.246427e-03 -3.004062e-04
N 7.820095e-02 1.721042e+00 -3.368992e+00 -6.143262e-03 -2.111953e-03 1.180069e-04
N 3.101394e+00 -3.641867e+00 1.812038e+00 2.219887e-04 -7.151486e-03 -6.917991e-04
N 3.083943e+00 -3.623365e+00 7.005580e+00 -5.653200e-03 -1.796978e-03 1.816153e-05
N 3.305326e+00 -3.837070e+00 -3.373418e+00 -5.918309e-03 -1.727301e-03 1.538326e-04
N 1.501754e+00 -8.374599e-01 1.843572e+00 -1.848904e-03 2.000202e-03 -2.427191e-05
N 1.482882e+00 -8.569595e-01 7.004827e+00 -6.514440e-03 3.636108e-03 1.088374e-03
N 1.706927e+00 -1.072403e+00 -3.366965e+00 -6.790216e-03 3.704632e-03 1.073441e-03
N 3.041827e+00 1.906048e+00 1.841617e+00 -5.809677e-04 -7.970359e-03 -1.716348e-03
N 3.052493e+00 1.938658e+00 7.004464e+00 -1.503342e-05 -4.838608e-05 -1.566921e-03
N 3.276807e+00 1.723744e+00 -3.366539e+00 -6.773503e-05 4.217255e-05 -1.788892e-03
N 6.299253e+00 -3.633745e+00 1.808471e+00 3.835825e-03 -4.440889e-03 -4.592568e-03
N 6.281774e+00 -3.619900e+00 7.006162e+00 -1.139031e-05 2.824792e-04 -1.325614e-03
N 6.507238e+00 -3.807508e+00 -3.362733e+00 -1.852074e-05 8.507080e-03 2.135684e-03
N 4.697093e+00 -8.693132e-01 1.813199e+00 4.207888e-03 3.921206e-04 -3.056744e-03
N 4.681197e+00 -8.538933e-01 7.005636e+00 -1.080258e-03 5.985987e-03 -5.380426e-05
N 4.929154e+00 -1.083731e+00 -3.359594e+00 6.196967e-03 1.861570e-03 2.968604e-03
N -3.361577e+00 1.926543e+00 1.812554e+00 5.016968e-03 -5.712754e-03 -1.861011e-03
N -3.381579e+00 1.941952e+00 7.005327e+00 3.820407e-05 -1.749404e-06 -1.468741e-03
N -3.159740e+00 1.727435e+00 -3.372555e+00 -1.496113e-04 1.774764e-04 -1.723799e-03
N -1.375530e-01 -3.630763e+00 1.819598e+00 4.410626e-03 -4.655614e-03 -3.597564e-03
N -1.530775e-01 -3.616346e+00 7.005682e+00 1.118669e-04 3.913303e-04 -1.289858e-03
N 7.174664e-02 -3.832719e+00 -3.368877e+00 -2.038790e-04 6.948906e-04 -1.564341e-03
N -1.740227e+00 -8.699712e-01 1.809209e+00 3.315977e-03 6.422998e-04 -2.600271e-03
N -1.753367e+00 -8.508697e-01 7.006074e+00 -7.542813e-04 5.977285e-03 -1.223737e-04
N -1.553366e+00 -1.082028e+00 -3.361989e+00 -7.745977e-03 2.094641e-03 3.005929e-03
