108
Energy=-1.901480e+06 Lattice="9.573441e+00 0.000000e+00 0.000000e+00 -4.787559e+00 8.289893e+00 0.000000e+00 9.230570e-04 -1.885487e-03 1.549583e+01" Stress="4.442302e-05 -5.810860e-05 -3.297617e-05 -5.521429e-05 -1.825740e-05 7.008784e-07 -3.335240e-05 -1.039374e-05 -2.247855e-05" Properties=species:S:1:pos:R:3:forces:R:3 Config_type=AlGaN_super3_32_0_11.xyz
Al 1.571588e+00 8.777237e-01 2.444591e+00 -5.506732e-06 -1.932846e-06 1.736174e-04
Al 1.573629e+00 9.023165e-01 7.592912e+00 3.170085e-05 3.416695e-06 1.725798e-04
Al 1.572636e+00 8.940532e-01 -2.739113e+00 5.317367e-05 -1.456005e-05 1.296972e-04
Al -2.892030e-02 3.638276e+00 2.430916e+00 -2.449354e-05 -4.785657e-05 1.789530e-04
Al -9.758409e-03 3.633205e+00 7.596982e+00 -2.208182e-07 7.975789e-06 1.296716e-04
Al -1.051484e-02 3.635350e+00 -2.723397e+00 -1.458369e-05 6.412798e-06 1.705004e-04
Al 3.162823e+00 -1.881958e+00 2.420567e+00 -3.217621e-05 -3.435226e-05 1.389119e-04
Ga 3.179776e+00 -1.881515e+00 7.612389e+00 -4.113306e-05 -1.621608e-05 1.471604e-04
Ga 3.167038e+00 -1.880618e+00 -2.724544e+00 -1.932267e-05 1.771721e-05 1.491403e-04
Al -4.817057e+00 8.810448e-01 2.441544e+00 2.434771e-05 1.035064e-05 1.801968e-04
Ga -4.826557e+00 8.832512e-01 7.608248e+00 -1.113009e-05 3.287049e-05 9.130274e-05
Ga -4.824763e+00 8.880207e-01 -2.742775e+00 1.664985e-05 -9.811663e-06 1.198027e-04
Ga -6.414507e+00 3.631058e+00 2.450319e+00 4.412851e-06 2.084499e-05 1.604104e-04
Al -6.422945e+00 3.628624e+00 7.597435e+00 -3.563919e-06 1.340322e-05 1.254484e-04
Al -6.416547e+00 3.635848e+00 -2.744261e+00 4.953578e-06 -2.303134e-05 1.290039e-04
Ga -3.209561e+00 -1.877314e+00 2.447712e+00 1.476889e-05 -3.263872e-05 1.129284e-04
Al -3.200596e+00 -1.878504e+00 7.602009e+00 1.980512e-05 -3.461940e-05 9.624357e-05
Ga -3.201898e+00 -1.889956e+00 -2.748051e+00 -2.832269e-05 3.173891e-06 1.651502e-04
Al -1.612805e+00 8.783821e-01 2.434408e+00 -1.933374e-06 -1.669720e-05 1.974733e-04
Al -1.606001e+00 8.679062e-01 7.594485e+00 1.167583e-05 -3.314388e-05 1.199150e-04
Ga -1.599671e+00 8.781253e-01 -2.724172e+00 3.300693e-05 -6.738860e-05 1.135137e-04
Ga -3.200719e+00 3.642233e+00 2.411136e+00 -3.362656e-05 -4.238931e-05 1.173453e-04
Ga -3.208688e+00 3.639961e+00 7.598835e+00 -1.194997e-05 1.707377e-05 4.370976e-05
Ga -3.212398e+00 3.648124e+00 -2.697609e+00 -1.946232e-05 -4.454343e-05 1.103103e-04
Al -1.923857e-02 -1.861564e+00 2.455263e+00 -1.623566e-05 -5.986979e-05 1.232443e-04
Ga -4.396611e-02 -1.866823e+00 7.599287e+00 5.418959e-05 -1.089566e-04 1.244098e-04
Al -2.842155e-02 -1.874092e+00 -2.748617e+00 -9.616334e-06 -7.678422e-05 1.335036e-04
Ga -1.985571e-02 1.792929e+00 5.013875e+00 -9.617527e-05 1.207235e-04 2.169849e-04
Ga -1.357234e-02 1.795169e+00 -5.324572e+00 -1.461193e-04 1.241154e-04 1.791516e-04
Ga -2.926368e-02 1.813333e+00 -1.318109e-01 -4.280039e-05 4.369203e-05 -9.464144e-06
Ga 3.178819e+00 -3.722287e+00 5.008966e+00 -1.233631e-04 1.288054e-04 1.456036e-04
Ga 3.182832e+00 -3.723969e+00 -5.301886e+00 -1.374007e-04 7.318983e-05 1.215915e-04
Al 3.178728e+00 -3.732876e+00 -1.360784e-01 -5.761267e-05 5.086687e-05 -5.674571e-05
Ga 1.571431e+00 -9.498241e-01 5.002555e+00 -1.254984e-04 6.946571e-05 1.408280e-04
Ga 1.575586e+00 -9.412114e-01 -5.307125e+00 -1.372315e-04 6.423527e-05 8.495177e-05
Ga 1.566049e+00 -9.623055e-01 -1.347935e-01 -1.120499e-04 5.238822e-05 3.480329e-05
Al 3.162696e+00 1.796505e+00 5.016817e+00 -5.493089e-05 2.213739e-06 1.837473e-04
Al 3.160474e+00 1.799897e+00 -5.314229e+00 -3.772193e-05 2.095594e-05 1.746025e-04
Ga 3.170531e+00 1.800247e+00 -1.448723e-01 -5.807051e-05 2.131491e-05 7.318146e-05
Ga 6.361706e+00 -3.726675e+00 5.047228e+00 -7.805649e-05 5.492482e-05 1.108560e-04
Ga 6.364164e+00 -3.722259e+00 -5.332479e+00 -4.489374e-05 6.338094e-05 1.641710e-04
Ga 6.348000e+00 -3.732634e+00 -1.559455e-01 -1.075276e-05 -1.229048e-06 2.487380e-05
Ga 4.765123e+00 -9.525157e-01 5.008366e+00 -1.544881e-04 -4.518471e-06 1.302125e-04
Al 4.776000e+00 -9.547010e-01 -5.325585e+00 -5.365242e-05 -2.358331e-05 8.817579e-05
Ga 4.761675e+00 -9.531550e-01 -1.203883e-01 -1.021960e-04 -6.872772e-06 -3.423965e-05
Ga -3.216283e+00 1.783507e+00 5.012515e+00 -1.071445e-04 2.820307e-05 2.105524e-04
Ga -3.215878e+00 1.783267e+00 -5.325768e+00 -8.538425e-05 3.154458e-05 1.099886e-04
Al -3.212286e+00 1.800471e+00 -1.223928e-01 -8.672391e-05 1.483070e-05 -2.914717e-06
Ga -3.594782e-02 -3.719135e+00 5.019541e+00 -2.519935e-05 5.865916e-05 6.031574e-05
Ga -4.115940e-02 -3.726931e+00 -5.301988e+00 -5.531958e-05 -1.720532e-05 1.607185e-04
Ga -2.213083e-02 -3.718295e+00 -1.528868e-01 -5.965870e-05 -4.135043e-06 -1.678981e-05
Al -1.617617e+00 -9.524452e-01 5.018202e+00 -8.641029e-05 -2.258061e-05 1.718184e-04
Al -1.628744e+00 -9.560434e-01 -5.324221e+00 -1.051829e-04 8.368962e-06 1.488760e-04
Ga -1.609946e+00 -9.541479e-01 -1.318160e-01 -1.284538e-04 -2.155853e-05 2.620923e-05
N 1.612523e+00 9.086705e-01 4.358854e+00 1.524137e-04 -3.449349e-05 -1.553553e-04
N 1.617488e+00 9.085690e-01 -5.984035e+00 1.485281e-04 -5.374380e-05 -1.397116e-04
N 1.569268e+00 8.834615e-01 -8.200606e-01 1.435460e-04 1.808717e-07 -1.351762e-04
N -1.779644e-02 3.643062e+00 4.343926e+00 1.299514e-04 -7.670260e-05 -1.389897e-04
N -2.382422e-02 3.641178e+00 -5.994660e+00 1.025372e-04 -6.123879e-05 -1.238624e-04
N -6.616398e-02 3.663790e+00 -8.068575e-01 8.302208e-05 -2.930818e-05 -1.381822e-04
N 3.166775e+00 -1.883760e+00 4.334463e+00 1.401324e-04 -6.752995e-05 -1.010149e-04
N 3.207938e+00 -1.857631e+00 -5.909146e+00 1.084111e-04 -5.209235e-05 -7.890122e-05
N 3.168508e+00 -1.926491e+00 -7.415707e-01 1.249499e-04 -6.149021e-05 -1.201699e-04
N -4.855212e+00 9.094776e-01 4.361981e+00 1.398476e-04 2.833756e-05 -1.729605e-04
N -4.861082e+00 8.609324e-01 -5.903846e+00 1.003489e-04 2.780542e-05 -1.184626e-04
N -4.768736e+00 9.059194e-01 -7.607728e-01 1.321255e-04 -2.935498e-07 -1.937480e-04
N -6.412332e+00 3.595644e+00 4.421418e+00 6.474874e-05 -1.309477e-05 -1.135510e-04
N -6.404680e+00 3.589490e+00 -5.977233e+00 5.755766e-05 -3.273044e-05 -1.554302e-04
N -6.407573e+00 3.640083e+00 -8.274741e-01 4.425205e-05 -1.208039e-05 -1.459353e-04
N -3.169938e+00 -1.863802e+00 4.420920e+00 9.572990e-05 -1.927084e-05 -1.048718e-04
N -3.208980e+00 -1.831788e+00 -5.960397e+00 4.692950e-05 -2.571644e-05 -1.247983e-04
N -3.213381e+00 -1.875154e+00 -7.709937e-01 8.216678e-05 -5.051288e-05 -1.576561e-04
N -1.618253e+00 8.346651e-01 4.354411e+00 1.611149e-04 -4.025436e-05 -1.801092e-04
N -1.612743e+00 8.315775e-01 -5.980541e+00 1.598829e-04 -5.278048e-05 -1.218761e-04
N -1.658780e+00 9.060603e-01 -7.462112e-01 1.117003e-04 -3.012485e-05 -1.700373e-04
N -3.214961e+00 3.642532e+00 4.387438e+00 6.667188e-05 -1.210464e-04 -1.371424e-04
N -3.215706e+00 3.649145e+00 -5.929013e+00 8.292272e-05 -9.157939e-05 -1.172766e-04
N -3.171824e+00 3.618475e+00 -7.056155e-01 4.452366e-05 -6.665868e-05 -1.450092e-04
N -6.651349e-02 -1.854722e+00 4.373645e+00 8.865635e-05 -1.407076e-04 -6.289209e-05
N -6.416857e-02 -1.855561e+00 -5.919334e+00 1.045554e-04 -1.245482e-04 -1.179836e-04
N -2.549802e-02 -1.874682e+00 -8.348698e-01 9.076924e-05 -1.035865e-04 -1.026617e-04
N -2.005649e-02 1.800970e+00 1.864024e+00 -2.984090e-05 9.249124e-05 -3.266839e-05
N -2.375493e-02 1.798845e+00 7.014320e+00 -2.078915e-05 6.458667e-05 -1.911675e-04
N 1.981379e-02 1.826636e+00 -3.333683e+00 -1.275590e-05 6.359465e-05 -1.548780e-04
N 3.218861e+00 -3.701969e+00 1.786838e+00 2.821793e-05 9.590177e-05 1.691240e-05
N 3.216105e+00 -3.746586e+00 6.983941e+00 3.471456e-05 4.253150e-05 -1.482939e-04
N 3.213428e+00 -3.752377e+00 -3.329074e+00 4.421664e-05 4.731287e-05 -1.251744e-04
N 1.566741e+00 -9.583080e-01 1.863709e+00 -1.534288e-05 4.819784e-05 -7.432133e-05
N 1.575164e+00 -9.121388e-01 6.988346e+00 -4.863444e-05 4.078225e-05 -1.666372e-04
N 1.534704e+00 -9.304087e-01 -3.321340e+00 -3.762775e-05 4.838112e-05 -1.311021e-04
N 3.164263e+00 1.752614e+00 1.834398e+00 -1.294281e-05 2.535621e-05 -9.370994e-05
N 3.125379e+00 1.822486e+00 6.942171e+00 -7.683288e-06 9.535264e-06 -1.382773e-04
N 3.122459e+00 1.826343e+00 -3.384902e+00 -2.352151e-05 4.086745e-05 -1.209444e-04
N 6.319464e+00 -3.750359e+00 1.821523e+00 -4.623159e-06 6.597145e-05 -5.028097e-05
N 6.359683e+00 -3.721782e+00 7.041118e+00 1.343415e-05 1.589175e-05 -1.407838e-04
N 6.358438e+00 -3.773944e+00 -3.339627e+00 2.167190e-05 -7.938060e-06 -1.840155e-04
N 4.725365e+00 -9.353757e-01 1.859482e+00 -3.066287e-05 1.797725e-06 1.174816e-05
N 4.806618e+00 -9.826708e-01 6.986587e+00 -6.948334e-06 -2.642825e-05 -1.514494e-04
N 4.767289e+00 -9.620170e-01 -3.411476e+00 -4.840431e-05 -1.551949e-05 -1.179265e-04
N -3.216152e+00 1.745645e+00 1.803832e+00 -1.828148e-05 2.397073e-05 4.813887e-06
N -3.174566e+00 1.769931e+00 6.994061e+00 -2.237277e-05 1.587591e-05 -9.632677e-05
N -3.207544e+00 1.803337e+00 -3.358035e+00 -3.572624e-05 5.364526e-05 -1.114777e-04
N -3.084846e-02 -3.668669e+00 1.830108e+00 -2.410428e-05 5.377530e-05 5.547486e-05
N -6.764340e-02 -3.745694e+00 6.997590e+00 -3.589970e-05 1.352543e-05 -1.108312e-04
N -6.335609e-02 -3.704863e+00 -3.311443e+00 -1.806440e-05 4.841395e-05 -1.401749e-04
N -1.571767e+00 -9.386059e-01 1.843807e+00 -5.687683e-05 1.265072e-05 -5.950559e-05
N -1.659842e+00 -9.343733e-01 6.943210e+00 -5.865979e-05 3.013622e-05 -1.328319e-04
N -1.578842e+00 -9.775977e-01 -3.405458e+00 -6.340408e-05 1.310395e-06 -1.386092e-04
