108
Energy=-1.306398e+06 Lattice="9.487049e+00 0.000000e+00 0.000000e+00 -4.748719e+00 8.210922e+00 0.000000e+00 2.409151e-03 4.736583e-04 1.531162e+01" Stress="-5.667843e-03 3.836928e-05 -5.512671e-04 3.829460e-05 -6.909964e-03 4.200404e-05 -5.810982e-04 3.701940e-05 -4.661747e-03" Properties=species:S:1:pos:R:3:forces:R:3 Config_type=AlGaN_super3_19_1_4.xyz
Al 1.558361e+00 8.699209e-01 2.406117e+00 -2.345365e-03 1.669631e-03 -1.378985e-02
Al 1.552027e+00 8.628272e-01 7.519518e+00 8.234978e-04 6.256065e-03 4.191559e-03
Al 1.536589e+00 8.642404e-01 -2.726296e+00 -1.130523e-03 2.620749e-03 1.167229e-02
Al -4.554158e-02 3.597653e+00 2.420539e+00 8.004580e-04 -2.119756e-03 -1.438862e-02
Al -2.859982e-02 3.594017e+00 7.532584e+00 -2.323993e-03 -1.080364e-03 4.117948e-03
Al -2.569170e-02 3.589913e+00 -2.729757e+00 6.239373e-03 -8.647049e-04 7.302781e-03
Al 3.086784e+00 -1.898639e+00 2.447049e+00 2.587540e-02 9.924252e-03 -2.291580e-02
Al 3.152435e+00 -1.875448e+00 7.523234e+00 2.143954e-03 1.442529e-03 3.022518e-03
Ga 3.148416e+00 -1.879943e+00 -2.741742e+00 1.313968e-03 2.049948e-03 8.605866e-03
Al -4.770541e+00 8.721076e-01 2.402354e+00 7.727267e-03 9.196046e-03 -1.293355e-03
Al -4.788824e+00 8.566753e-01 7.498179e+00 5.474568e-03 4.380884e-03 1.179332e-03
Ga -4.771655e+00 8.723292e-01 -2.692965e+00 -1.990712e-03 -1.410183e-03 3.425686e-03
Al -6.401844e+00 3.579433e+00 2.457621e+00 1.712079e-02 2.652842e-03 -1.805315e-02
Ga -6.356662e+00 3.598652e+00 7.514759e+00 2.892521e-03 8.110147e-04 1.563327e-04
Al -6.370647e+00 3.615177e+00 -2.713930e+00 -1.711592e-04 1.750921e-03 4.865255e-03
Al -3.143662e+00 -1.848199e+00 2.443367e+00 -1.311109e-02 -1.911349e-03 -3.364098e-03
Ga -3.203417e+00 -1.861474e+00 7.504851e+00 2.640376e-03 3.076710e-04 2.544333e-03
Al -3.169930e+00 -1.872597e+00 -2.700704e+00 -6.281767e-04 -3.616422e-04 -1.169659e-02
Al -1.602137e+00 8.774305e-01 2.423925e+00 -8.784764e-03 3.053233e-03 -1.172467e-02
Ga -1.605146e+00 9.001715e-01 7.484669e+00 3.325100e-04 1.045108e-03 3.375266e-03
Al -1.593145e+00 8.756741e-01 -2.705571e+00 2.939239e-03 1.236595e-04 6.562898e-03
Al -3.185036e+00 3.600264e+00 2.404242e+00 3.407715e-03 -1.345457e-02 1.266135e-03
Al -3.182201e+00 3.617993e+00 7.489456e+00 -3.302854e-04 -3.836419e-03 3.540466e-03
Ga -3.167376e+00 3.608392e+00 -2.689297e+00 -3.636733e-03 2.045161e-03 2.695477e-03
Ga -3.232728e-02 -1.855001e+00 2.392222e+00 -1.457901e-03 -2.482189e-03 -1.742366e-03
Ga 1.140044e-02 -1.844995e+00 7.498471e+00 -4.158192e-03 -4.094594e-03 2.581535e-03
Al -2.356381e-02 -1.834199e+00 -2.708286e+00 5.935415e-04 -4.853702e-03 6.220485e-03
Al -4.086509e-02 1.784574e+00 4.951494e+00 1.807816e-03 -2.528551e-03 5.114295e-03
Al -2.973135e-02 1.786686e+00 -5.257157e+00 6.683372e-03 4.789401e-03 6.506974e-03
Al -4.339708e-02 1.766056e+00 -1.238981e-01 2.038053e-03 2.553282e-03 -1.395798e-02
Ga 3.153365e+00 -3.714775e+00 4.953560e+00 -1.717817e-03 1.564717e-03 3.719414e-03
Al 3.164722e+00 -3.685514e+00 -5.260418e+00 -7.398482e-04 -1.766124e-05 -1.213078e-02
Al 3.139283e+00 -3.709459e+00 -1.249793e-01 8.074653e-03 5.498185e-03 6.684576e-04
Ga 1.577060e+00 -9.384467e-01 4.960833e+00 -5.205571e-04 -1.791416e-03 3.574581e-03
Al 1.566087e+00 -9.474076e-01 -5.268833e+00 5.752153e-03 -5.522461e-05 4.988458e-03
Al 1.561510e+00 -9.444320e-01 -1.606937e-01 2.641037e-03 1.836269e-03 -6.715386e-03
Ga 3.134141e+00 1.776462e+00 4.948242e+00 1.855935e-03 6.074993e-04 3.983661e-03
Ga 3.105371e+00 1.766942e+00 -5.263406e+00 2.148645e-03 5.401281e-04 3.338424e-03
Al 3.120905e+00 1.780229e+00 -1.390006e-01 -4.228179e-03 5.411181e-04 -8.503293e-04
Ga 6.306855e+00 -3.689813e+00 4.944047e+00 -1.418377e-03 2.022851e-03 1.230206e-03
Al 6.282698e+00 -3.688334e+00 -5.246110e+00 -1.223619e-03 7.724806e-04 5.553557e-03
Ga 6.301420e+00 -3.685198e+00 -1.257033e-01 -2.194860e-03 -2.412803e-04 -3.945606e-03
Al 4.738576e+00 -9.322114e-01 4.958674e+00 4.594899e-04 -3.076175e-03 -1.430388e-03
Al 4.720262e+00 -9.595014e-01 -5.276741e+00 -1.995375e-03 -1.871702e-03 5.731370e-03
Ga 4.744168e+00 -9.418754e-01 -9.433887e-02 -1.681590e-03 -3.712316e-03 -6.221453e-03
Al -3.197651e+00 1.784104e+00 4.953155e+00 -2.065832e-03 1.964134e-03 -2.387239e-04
Ga -3.179174e+00 1.783193e+00 -5.283568e+00 -3.733743e-03 3.620728e-03 3.212694e-03
Al -3.205381e+00 1.806387e+00 -1.841692e-01 1.333631e-02 -1.247359e-02 1.957937e-02
Al -1.334692e-02 -3.684654e+00 4.958851e+00 1.792100e-03 4.823193e-04 -1.555245e-03
Ga -1.104940e-02 -3.670899e+00 -5.250676e+00 1.669508e-03 -3.565467e-03 3.335805e-03
Ga -9.677035e-03 -3.683726e+00 -1.076154e-01 -3.343037e-03 -5.763584e-05 -1.001738e-02
Al -1.600414e+00 -9.244021e-01 4.958073e+00 -2.237631e-03 -1.952123e-03 6.413593e-04
Ga -1.594858e+00 -9.391751e-01 -5.235793e+00 -2.945871e-03 -2.639235e-03 4.854877e-03
Al -1.594980e+00 -9.165671e-01 -1.858956e-01 -2.824936e-03 -6.229268e-04 -3.772181e-03
N 1.493294e+00 8.960985e-01 4.296301e+00 5.503134e-03 1.119584e-05 1.869275e-03
N 1.495992e+00 8.385058e-01 -5.880190e+00 9.367813e-04 3.443535e-03 -2.807078e-03
N 1.544303e+00 8.630968e-01 -7.682287e-01 1.553129e-03 3.485821e-03 -9.350564e-04
N -1.761639e-02 3.535871e+00 4.283923e+00 -2.200131e-03 6.708112e-03 1.096225e-02
N -1.770095e-02 3.606730e+00 -5.857457e+00 -4.422200e-04 -2.565606e-03 -2.561842e-03
N -6.635791e-02 3.582797e+00 -7.798260e-01 -1.695107e-04 4.404571e-05 2.503339e-04
N 3.200925e+00 -1.844694e+00 4.308092e+00 -5.108884e-03 -2.095989e-03 9.063462e-03
N 3.148500e+00 -1.862812e+00 -5.862241e+00 -1.698027e-03 -5.747102e-04 -1.458819e-03
N 3.112920e+00 -1.891155e+00 -7.336021e-01 1.688053e-03 -2.343190e-03 -1.237487e-03
N -4.735924e+00 8.434368e-01 4.338999e+00 1.070812e-04 6.051208e-03 -3.943413e-03
N -4.778008e+00 8.181115e-01 -5.904063e+00 1.430537e-03 4.193464e-03 -2.714205e-03
N -4.769506e+00 9.237902e-01 -6.991860e-01 -5.937347e-03 -6.065482e-04 -8.660519e-03
N -6.297251e+00 3.641363e+00 4.313631e+00 -4.404065e-03 -4.666961e-03 1.190600e-02
N -6.394299e+00 3.639374e+00 -5.840801e+00 1.766219e-03 -4.805217e-04 -2.998622e-04
N -6.355088e+00 3.569701e+00 -7.915150e-01 2.555258e-03 1.604318e-04 1.834993e-03
N -3.174969e+00 -1.808447e+00 4.355956e+00 3.330492e-03 -9.582516e-04 -8.556056e-04
N -3.218718e+00 -1.881132e+00 -5.831204e+00 3.007799e-03 -9.339217e-04 -2.853283e-03
N -3.137357e+00 -1.830905e+00 -8.413804e-01 -1.794239e-03 -3.509517e-03 1.808737e-02
N -1.611029e+00 8.903741e-01 4.367484e+00 -5.692160e-05 -2.620407e-03 -6.646121e-03
N -1.553989e+00 9.003129e-01 -5.856423e+00 -4.742302e-03 -1.380991e-03 -5.970572e-03
N -1.616565e+00 8.903311e-01 -7.773840e-01 -1.844871e-04 1.102051e-03 -6.430451e-04
N -3.229414e+00 3.595895e+00 4.338329e+00 2.974390e-03 -2.648420e-03 -2.507213e-03
N -3.139989e+00 3.644536e+00 -5.914084e+00 -3.097334e-03 -1.939886e-03 6.711108e-05
N -3.129586e+00 3.582100e+00 -6.963180e-01 -7.257902e-03 9.324268e-03 -1.223195e-02
N -5.216328e-02 -1.864955e+00 4.393407e+00 -5.669932e-04 -1.558200e-03 -5.453717e-03
N 2.346955e-02 -1.824329e+00 -5.847166e+00 -3.353511e-03 -3.653730e-03 -4.561278e-03
N -1.134460e-02 -1.802259e+00 -7.761247e-01 -1.291502e-03 -5.137363e-03 7.673774e-04
N -2.796855e-02 1.777928e+00 1.770021e+00 4.836893e-04 -1.844110e-03 1.115536e-02
N 2.883369e-02 1.808671e+00 6.889533e+00 -1.335442e-03 5.627295e-04 -9.829133e-03
N -2.456262e-02 1.772113e+00 -3.327552e+00 -6.498768e-04 2.355087e-03 -1.934065e-03
N 3.132018e+00 -3.707306e+00 1.807279e+00 2.744800e-03 5.594728e-03 2.851521e-03
N 3.151061e+00 -3.706382e+00 6.954831e+00 2.051981e-03 5.387867e-03 -6.112578e-03
N 3.187139e+00 -3.734741e+00 -3.395642e+00 -6.310005e-04 3.644788e-03 1.077214e-02
N 1.607354e+00 -9.362576e-01 1.731104e+00 -3.713655e-03 1.074809e-03 1.844170e-02
N 1.623902e+00 -9.139695e-01 6.942549e+00 1.748192e-03 -6.018221e-03 -7.429893e-03
N 1.526536e+00 -9.329253e-01 -3.346456e+00 1.265690e-03 -3.856676e-04 -2.060737e-03
N 3.125856e+00 1.785544e+00 1.799749e+00 -1.430567e-03 -1.995192e-03 3.153249e-03
N 3.129403e+00 1.731551e+00 6.940587e+00 -1.874120e-03 1.548142e-03 -6.008000e-03
N 3.084071e+00 1.804675e+00 -3.285508e+00 2.799362e-03 -1.474289e-03 -2.252242e-03
N 6.291872e+00 -3.692857e+00 1.888253e+00 1.150884e-04 4.755134e-03 -5.545129e-03
N 6.247374e+00 -3.725582e+00 6.917171e+00 3.595732e-03 4.052357e-03 -6.445574e-03
N 6.299029e+00 -3.691511e+00 -3.320458e+00 -1.482820e-03 4.283991e-04 4.307385e-05
N 4.803446e+00 -9.093988e-01 1.857456e+00 -2.511115e-02 -2.208166e-02 5.664639e-03
N 4.683696e+00 -9.241078e-01 6.884518e+00 -3.073609e-03 -5.719278e-03 -6.830766e-03
N 4.771140e+00 -9.686318e-01 -3.367805e+00 -1.461253e-03 -9.653559e-04 2.036764e-03
N -3.183155e+00 1.784160e+00 1.769860e+00 1.418014e-03 1.195242e-03 9.026172e-03
N -3.235577e+00 1.810924e+00 6.880508e+00 -2.193586e-03 -5.320781e-04 -3.290186e-03
N -3.148490e+00 1.762650e+00 -3.315553e+00 -1.064432e-03 1.965162e-04 1.580455e-03
N 1.697341e-03 -3.765579e+00 1.847198e+00 -1.871183e-02 1.035832e-02 2.405780e-03
N 2.169876e-02 -3.706321e+00 6.870871e+00 -3.074816e-03 1.285526e-03 -4.291428e-03
N -5.170966e-02 -3.662666e+00 -3.277049e+00 8.545444e-05 5.701111e-04 3.037521e-03
N -1.673278e+00 -9.298439e-01 1.721520e+00 1.642882e-02 2.584840e-03 1.426535e-02
N -1.594279e+00 -9.377987e-01 6.855739e+00 -2.433721e-03 -3.716110e-03 -2.028260e-03
N -1.593612e+00 -9.370048e-01 -3.257502e+00 -2.686530e-03 -2.760588e-03 -2.398569e-03
