108
Energy=-1.626827e+06 Lattice="9.530346e+00 0.000000e+00 0.000000e+00 -4.769142e+00 8.252618e+00 0.000000e+00 -1.875060e-03 -7.785097e-04 1.539596e+01" Stress="-3.355380e-03 -2.351967e-04 3.856701e-05 -2.395417e-04 -3.495810e-03 3.801702e-05 2.183673e-05 2.990265e-05 -4.021332e-03" Properties=species:S:1:pos:R:3:forces:R:3 Config_type=AlGaN_super3_26_1_19.xyz
Al 1.568835e+00 8.725856e-01 2.421510e+00 -3.080264e-04 -1.656255e-04 8.773823e-04
Al 1.574713e+00 8.867454e-01 7.542135e+00 4.171752e-04 -8.959799e-04 3.582781e-04
Al 1.571066e+00 8.731137e-01 -2.714355e+00 5.167974e-05 -3.871838e-05 2.487951e-05
Al -2.703592e-02 3.629912e+00 2.441979e+00 -6.452372e-04 -6.839490e-04 2.854656e-04
Al -9.265987e-03 3.636270e+00 7.518009e+00 -9.918420e-04 2.525360e-03 1.558452e-03
Al -5.481830e-03 3.626480e+00 -2.710045e+00 -1.366680e-04 -1.290960e-05 -6.829268e-05
Al 3.153179e+00 -1.866316e+00 2.430432e+00 -5.550040e-04 -9.826107e-04 -1.835502e-06
Al 3.161219e+00 -1.880088e+00 7.521046e+00 -1.599422e-05 -3.076402e-04 3.321562e-04
Ga 3.145528e+00 -1.865514e+00 -2.699219e+00 -9.220198e-05 4.437890e-05 4.011451e-05
Al -4.790108e+00 8.759665e-01 2.441410e+00 -6.883781e-04 2.126606e-04 4.778291e-04
Ga -4.818926e+00 8.689048e-01 7.528133e+00 2.018689e-04 8.752612e-05 1.470116e-04
Al -4.801410e+00 8.846396e-01 -2.709845e+00 1.049125e-04 -3.663852e-05 -8.288343e-06
Ga -6.380240e+00 3.623142e+00 2.432684e+00 1.700777e-04 -1.000628e-04 1.843417e-04
Al -6.393128e+00 3.628470e+00 7.526153e+00 -8.437668e-04 -7.078322e-04 6.018815e-04
Ga -6.394427e+00 3.622151e+00 -2.714768e+00 -4.738488e-05 6.376531e-05 3.771626e-06
Ga -3.217162e+00 -1.878888e+00 2.439546e+00 7.995163e-05 8.480566e-05 1.360540e-04
Al -3.205565e+00 -1.896225e+00 7.536717e+00 1.644109e-03 7.378826e-04 5.264647e-04
Ga -3.192421e+00 -1.888045e+00 -2.723813e+00 -1.154161e-04 6.690765e-05 -7.276595e-05
Al -1.615643e+00 8.972200e-01 2.409971e+00 2.656630e-04 3.500027e-05 1.241788e-04
Ga -1.597548e+00 8.670137e-01 7.563874e+00 -2.348868e-04 -4.617297e-04 4.180163e-04
Ga -1.607825e+00 8.758744e-01 -2.709256e+00 1.857178e-04 -1.314837e-04 1.167167e-05
Al -3.199420e+00 3.625748e+00 2.421705e+00 2.424764e-04 5.392403e-04 2.679450e-04
Ga -3.197224e+00 3.654513e+00 7.524228e+00 1.816794e-04 -2.760275e-05 1.280792e-04
Ga -3.204735e+00 3.626505e+00 -2.685297e+00 4.912690e-05 -1.265578e-04 3.071840e-05
Ga -1.559285e-04 -1.872795e+00 2.424833e+00 6.478210e-05 -7.449827e-05 5.914704e-05
Al -2.554255e-02 -1.875048e+00 7.533498e+00 -4.526996e-04 -6.728223e-04 1.283303e-03
Al -1.565498e-02 -1.862343e+00 -2.701087e+00 3.437480e-05 -7.843073e-05 -5.556451e-05
Ga -1.117953e-02 1.808922e+00 4.978109e+00 -1.272805e-04 -9.933376e-05 -4.188072e-04
Ga -7.982517e-04 1.806531e+00 -5.281104e+00 -2.779286e-05 2.451138e-04 1.634657e-04
Ga -1.293848e-02 1.800105e+00 -1.325380e-01 -5.954745e-06 1.799876e-04 -6.171170e-05
Al 3.164504e+00 -3.694599e+00 4.958990e+00 -8.360547e-04 -7.133123e-04 -1.840242e-04
Ga 3.178626e+00 -3.707148e+00 -5.284565e+00 3.901073e-05 1.525962e-04 -1.614827e-04
Ga 3.158776e+00 -3.714251e+00 -1.140308e-01 -1.879147e-05 1.429144e-04 6.609592e-05
Ga 1.586509e+00 -9.596568e-01 4.998416e+00 -2.164917e-04 2.405728e-04 -7.460917e-05
Ga 1.560077e+00 -9.487941e-01 -5.302304e+00 -1.812287e-04 -4.619312e-05 -9.142231e-05
Al 1.561253e+00 -9.576541e-01 -1.362635e-01 -2.720188e-05 5.602424e-05 -5.023181e-05
Al 3.148364e+00 1.799016e+00 4.975594e+00 8.046706e-04 2.776527e-04 -7.514776e-04
Al 3.142263e+00 1.802616e+00 -5.283406e+00 5.990807e-05 -5.341853e-06 3.383840e-05
Ga 3.157502e+00 1.793559e+00 -1.356824e-01 9.560788e-05 -4.536174e-05 -9.588789e-05
Al 6.328525e+00 -3.711608e+00 5.007124e+00 4.254300e-04 9.191343e-05 -4.911054e-05
Al 6.337725e+00 -3.713778e+00 -5.321037e+00 2.292588e-04 5.715172e-04 -5.350571e-04
Al 6.333272e+00 -3.714768e+00 -1.332118e-01 3.300444e-06 -5.217191e-05 -1.361030e-04
Al 4.733816e+00 -9.684476e-01 4.983080e+00 -2.269960e-04 1.597973e-04 2.693541e-04
Ga 4.753946e+00 -9.585381e-01 -5.294378e+00 -1.498606e-04 -1.645993e-04 6.943065e-06
Ga 4.743137e+00 -9.455195e-01 -1.300021e-01 -1.061759e-04 -2.615492e-05 -2.422095e-04
Ga -3.214853e+00 1.803046e+00 4.959247e+00 4.783869e-05 9.668055e-05 3.239377e-05
Ga -3.213524e+00 1.789781e+00 -5.277847e+00 5.852537e-05 4.294054e-06 8.376244e-05
Al -3.217386e+00 1.799182e+00 -1.132284e-01 8.736226e-05 -1.321972e-06 -9.458886e-05
Al -2.722771e-02 -3.715149e+00 4.995670e+00 -2.325169e-04 -6.571712e-04 -1.357655e-06
Ga -4.691502e-02 -3.698112e+00 -5.292925e+00 1.039820e-04 7.343366e-05 5.159970e-05
Al -1.971672e-02 -3.702117e+00 -1.428724e-01 6.883091e-05 -4.546719e-05 5.367030e-05
Ga -1.620787e+00 -9.671196e-01 4.991978e+00 -1.727898e-04 3.845507e-06 1.213044e-04
Al -1.607761e+00 -9.771600e-01 -5.290780e+00 -6.298762e-05 -1.290204e-04 -1.832632e-04
Ga -1.599956e+00 -9.671421e-01 -1.364142e-01 -1.010762e-04 -1.209793e-05 -2.399633e-05
N 1.604564e+00 8.942219e-01 4.333303e+00 -4.291481e-05 -5.369407e-05 -1.009924e-03
N 1.610607e+00 9.049078e-01 -5.942186e+00 1.209342e-04 1.035304e-04 -5.343558e-04
N 1.567836e+00 8.296890e-01 -7.961619e-01 1.124126e-04 -8.070142e-05 5.107950e-05
N -1.744030e-02 3.678721e+00 4.357809e+00 2.755685e-04 1.898380e-04 -7.532876e-04
N 1.494249e-02 3.652706e+00 -5.961522e+00 1.971612e-04 -2.073158e-04 -1.153002e-03
N 1.965240e-02 3.653913e+00 -7.953285e-01 7.537127e-05 2.135512e-05 -1.168265e-05
N 3.191419e+00 -1.891426e+00 4.348104e+00 4.190535e-04 9.389269e-05 -5.685837e-04
N 3.158690e+00 -1.875855e+00 -5.963037e+00 -7.831577e-05 2.361665e-05 -1.831467e-04
N 3.115032e+00 -1.854260e+00 -7.300415e-01 -2.268984e-05 7.767012e-05 2.776974e-05
N -4.833456e+00 8.483630e-01 4.361471e+00 -7.657870e-04 2.317172e-04 -6.879618e-04
N -4.839526e+00 9.019584e-01 -5.899799e+00 8.069785e-05 1.095403e-04 -1.341370e-04
N -4.749162e+00 9.053432e-01 -7.952622e-01 1.089375e-04 4.430003e-05 6.736486e-05
N -6.382524e+00 3.634850e+00 4.418856e+00 1.147724e-05 -3.564115e-04 5.975666e-04
N -6.417096e+00 3.597099e+00 -5.936349e+00 -4.051899e-04 2.686152e-04 -6.320419e-06
N -6.381402e+00 3.674841e+00 -7.287677e-01 -5.549247e-05 1.054710e-04 1.218612e-04
N -3.242645e+00 -1.905485e+00 4.411373e+00 -1.700318e-04 -1.264533e-04 1.521575e-05
N -3.156815e+00 -1.897141e+00 -5.929158e+00 -3.219497e-05 -8.575521e-04 -1.645999e-04
N -3.197873e+00 -1.924439e+00 -7.465101e-01 2.184543e-05 -3.644543e-07 5.980632e-05
N -1.610668e+00 8.784685e-01 4.315563e+00 2.956656e-04 -1.873222e-05 -2.396535e-04
N -1.607645e+00 8.326879e-01 -5.860040e+00 2.049722e-04 -1.068493e-04 -1.381053e-04
N -1.656467e+00 9.050805e-01 -7.295710e-01 7.774908e-05 -1.022017e-04 4.196519e-05
N -3.210342e+00 3.681640e+00 4.347468e+00 8.764041e-04 7.660409e-04 -6.745723e-05
N -3.200782e+00 3.637683e+00 -5.905456e+00 -1.857550e-05 -1.949815e-04 -1.174293e-04
N -3.238997e+00 3.603256e+00 -7.065178e-01 -1.088185e-04 -1.486842e-04 8.797129e-05
N -1.594585e-02 -1.920140e+00 4.391558e+00 1.527633e-04 -1.224759e-04 -4.639122e-05
N -6.040290e-02 -1.850145e+00 -5.951042e+00 2.625206e-05 -6.530051e-05 -9.833159e-04
N 2.276389e-02 -1.894537e+00 -7.750655e-01 4.835425e-05 -9.654875e-05 4.070110e-05
N -1.737758e-02 1.799851e+00 1.857642e+00 2.591318e-04 5.373488e-04 4.306457e-04
N 1.666248e-02 1.817630e+00 6.957591e+00 2.420590e-04 -1.074916e-03 -4.195814e-04
N 2.354651e-02 1.819387e+00 -3.295214e+00 -8.019642e-06 8.648603e-05 1.470052e-04
N 3.160162e+00 -3.709499e+00 1.870777e+00 -1.679700e-05 5.273093e-04 6.636424e-04
N 3.201217e+00 -3.684408e+00 6.882527e+00 3.482728e-04 -1.572744e-04 -4.115570e-04
N 3.200133e+00 -3.733462e+00 -3.307359e+00 3.815813e-05 6.117995e-05 8.472914e-05
N 1.607554e+00 -9.306400e-01 1.784947e+00 3.413283e-04 3.705202e-04 2.635188e-04
N 1.567734e+00 -9.548730e-01 6.981404e+00 2.060397e-04 7.439277e-04 3.034373e-05
N 1.524871e+00 -9.338101e-01 -3.318017e+00 -2.173590e-04 1.624107e-04 5.994822e-05
N 3.154448e+00 1.747757e+00 1.839126e+00 6.554397e-04 -4.728625e-04 3.231916e-04
N 3.106577e+00 1.818318e+00 6.887717e+00 -1.535565e-04 5.200180e-04 1.542702e-04
N 3.148997e+00 1.749129e+00 -3.352048e+00 3.403650e-05 -9.297862e-05 -3.862017e-05
N 6.288912e+00 -3.734924e+00 1.775116e+00 -5.344145e-05 5.426944e-06 8.142813e-05
N 6.333875e+00 -3.710813e+00 6.924840e+00 -8.428306e-05 1.316801e-04 1.189509e-05
N 6.291099e+00 -3.734712e+00 -3.401776e+00 1.940390e-04 -7.527937e-05 -2.608006e-04
N 4.702368e+00 -9.281951e-01 1.843588e+00 -9.304176e-05 3.997310e-04 3.592052e-04
N 4.744488e+00 -1.006005e+00 6.906437e+00 -1.704576e-04 -1.575206e-04 -6.224821e-04
N 4.744059e+00 -9.117332e-01 -3.317567e+00 -6.770683e-05 3.392719e-05 3.385499e-05
N -3.211619e+00 1.794980e+00 1.820969e+00 -1.292479e-04 -1.351404e-04 -1.181050e-04
N -3.200091e+00 1.792915e+00 6.922141e+00 2.472295e-05 -7.837081e-05 -8.629084e-05
N -3.244384e+00 1.774114e+00 -3.312562e+00 -1.690449e-05 -5.291831e-05 -2.801225e-05
N 1.547117e-02 -3.729353e+00 1.769154e+00 1.149043e-04 -1.384765e-04 -1.297916e-04
N -6.731362e-02 -3.687046e+00 6.913278e+00 2.739772e-04 6.876994e-04 -4.454379e-04
N -2.535631e-02 -3.657611e+00 -3.313729e+00 7.447960e-05 4.081468e-05 2.239468e-05
N -1.610453e+00 -9.147926e-01 1.832857e+00 -1.479609e-04 1.492704e-05 2.845452e-05
N -1.614082e+00 -1.001234e+00 6.960405e+00 -1.076879e-03 -5.176274e-04 1.259345e-04
N -1.565334e+00 -9.852351e-01 -3.366258e+00 -7.315871e-05 -5.859415e-05 3.078757e-05
