108
Energy=-2.130356e+06 Lattice="9.591923e+00 0.000000e+00 0.000000e+00 -4.810570e+00 8.273355e+00 0.000000e+00 -3.758275e-02 5.849431e-02 1.555919e+01" Stress="-9.454580e-03 6.591279e-04 -2.026109e-03 6.435817e-04 -1.316749e-02 1.362322e-03 -2.034961e-03 1.351347e-03 -6.012591e-03" Properties=species:S:1:pos:R:3:forces:R:3 Config_type=AlGaN_super3_37_1_4.xyz
Al 1.338193e+00 7.215625e-01 2.718587e+00 2.697639e-02 3.017607e-02 -1.367477e-01
Al 1.559228e+00 9.259860e-01 7.617907e+00 1.089397e-03 -1.670925e-03 7.172288e-03
Ga 1.584040e+00 8.634151e-01 -2.747645e+00 3.857526e-03 -2.530458e-03 6.427133e-03
Al -3.061995e-02 3.628348e+00 2.463362e+00 2.744085e-03 -1.574717e-04 -5.623866e-03
Al -3.665013e-02 3.661836e+00 7.627649e+00 -2.582162e-04 7.078328e-04 3.139838e-03
Ga 3.700423e-03 3.609605e+00 -2.736944e+00 5.973066e-04 7.604560e-04 3.306212e-03
Ga 3.171817e+00 -1.844917e+00 2.438598e+00 2.569161e-03 -2.425038e-03 -2.497427e-03
Ga 3.176973e+00 -1.843892e+00 7.636685e+00 -6.334605e-04 -1.832308e-03 2.898381e-03
Ga 3.208639e+00 -1.904239e+00 -2.751807e+00 1.820299e-03 1.502204e-03 2.675015e-03
Al -4.848683e+00 9.302401e-01 2.476811e+00 -1.315257e-02 2.375918e-03 -9.550610e-03
Ga -4.866083e+00 9.211926e-01 7.628742e+00 2.285653e-03 -1.239088e-03 3.358475e-03
Ga -4.816274e+00 8.670745e-01 -2.765799e+00 -6.872600e-04 -3.990879e-03 3.759821e-03
Al -6.442883e+00 3.654784e+00 2.471928e+00 -1.564771e-03 -1.371513e-02 -9.350472e-03
Ga -6.453599e+00 3.658736e+00 7.632947e+00 2.006024e-04 1.047310e-03 2.826998e-03
Al -6.405156e+00 3.627314e+00 -2.779460e+00 6.405704e-04 -1.568518e-03 4.245803e-03
Ga -3.230102e+00 -1.862921e+00 2.463179e+00 -2.822384e-03 -4.427930e-03 -3.292179e-03
Ga -3.235047e+00 -1.846076e+00 7.629857e+00 2.004365e-03 -7.643533e-04 3.152581e-03
Al -3.185135e+00 -1.905849e+00 -2.765699e+00 -1.660373e-03 7.336085e-04 1.508472e-03
Ga -1.696163e+00 9.195806e-01 2.471537e+00 1.840011e-04 -1.368756e-03 -5.148283e-03
Ga -1.655918e+00 9.296677e-01 7.614754e+00 3.245130e-03 -2.450897e-03 1.321670e-03
Ga -1.617356e+00 8.661205e-01 -2.737912e+00 3.102113e-03 -2.463811e-03 1.351069e-03
Ga -3.263797e+00 3.662012e+00 2.471944e+00 2.172924e-03 2.241134e-03 -5.034088e-03
Ga -3.256623e+00 3.677799e+00 7.631569e+00 3.785480e-03 4.308511e-04 1.957577e-03
Ga -3.232104e+00 3.630775e+00 -2.754195e+00 2.226698e-03 1.158435e-03 1.872337e-03
Ga -4.918771e-02 -1.832532e+00 2.444323e+00 1.806923e-03 -1.219631e-02 -5.838827e-03
Ga -4.395520e-02 -1.833485e+00 7.627156e+00 2.695323e-03 6.295441e-04 3.108443e-03
Al -9.775337e-03 -1.903462e+00 -2.765653e+00 2.750251e-03 -7.892474e-04 2.651380e-03
Ga -2.893524e-02 1.823289e+00 5.031662e+00 -1.479100e-02 4.833451e-03 1.042865e-02
Ga 8.341980e-03 1.773646e+00 -5.361900e+00 -3.089794e-03 -1.210653e-03 4.277615e-03
Al 2.292314e-03 1.761798e+00 -1.288822e-01 7.979074e-04 -2.546468e-04 9.420758e-03
Ga 3.178727e+00 -3.699941e+00 5.046533e+00 -4.509381e-03 -9.651308e-04 1.019535e-03
Ga 3.214399e+00 -3.742462e+00 -5.342633e+00 -2.985428e-03 -2.061955e-03 2.126139e-03
Ga 3.207209e+00 -3.741399e+00 -1.289847e-01 -1.929590e-03 -4.471037e-04 -2.418600e-03
Ga 1.579106e+00 -9.132372e-01 5.038890e+00 -2.593965e-03 -1.219675e-02 1.422339e-02
Ga 1.622260e+00 -9.912173e-01 -5.342029e+00 -5.037290e-03 3.600496e-03 1.403236e-03
Al 1.600229e+00 -9.789628e-01 -1.814228e-01 -3.424869e-03 7.697518e-03 4.197442e-03
Al 3.148875e+00 1.831872e+00 5.017807e+00 9.558267e-03 4.691097e-03 8.326123e-04
Al 3.187693e+00 1.776631e+00 -5.348233e+00 -1.315065e-03 -1.815469e-04 4.521368e-03
Ga 3.180484e+00 1.783630e+00 -1.480913e-01 -3.434822e-03 1.770463e-04 1.715582e-02
Ga 6.365475e+00 -3.695292e+00 5.040806e+00 1.854752e-03 1.067492e-03 1.302771e-03
Ga 6.405740e+00 -3.741381e+00 -5.336949e+00 -6.506617e-04 -6.698624e-04 2.864381e-03
Ga 6.406393e+00 -3.741233e+00 -1.646179e-01 4.090837e-04 -1.040390e-03 8.124151e-03
Ga 4.773151e+00 -9.183489e-01 5.037855e+00 6.916729e-04 4.242286e-03 -6.502451e-04
Al 4.804216e+00 -9.824138e-01 -5.335436e+00 -7.847834e-04 2.238972e-03 2.857136e-03
Ga 4.803204e+00 -9.820223e-01 -1.527470e-01 -1.263279e-03 6.166254e-03 3.779048e-03
Al -3.264691e+00 1.832074e+00 5.044131e+00 -2.042393e-03 9.965995e-05 1.590130e-03
Ga -3.231023e+00 1.781212e+00 -5.343651e+00 4.024335e-04 -8.022520e-05 2.501238e-03
Ga -3.214278e+00 1.787515e+00 -1.421862e-01 -3.946079e-03 -7.870413e-04 1.960069e-03
Ga -4.494153e-02 -3.684116e+00 5.036094e+00 -5.560094e-04 -1.710850e-03 3.881549e-04
Al -8.206944e-03 -3.740239e+00 -5.338534e+00 -3.945497e-04 1.317470e-04 3.693358e-03
Ga -7.240861e-03 -3.723749e+00 -1.669890e-01 -4.114334e-03 -1.112726e-03 7.018179e-03
Al -1.639340e+00 -9.203854e-01 5.044631e+00 -3.525741e-03 9.256535e-04 2.371741e-03
Ga -1.600169e+00 -9.925283e-01 -5.328642e+00 -7.337286e-04 3.868818e-03 2.553419e-03
Ga -1.587647e+00 -9.812553e-01 -1.701967e-01 -3.468876e-03 4.062634e-03 -1.196254e-03
N 1.588284e+00 9.392937e-01 4.363150e+00 8.404081e-03 1.103556e-03 8.247354e-02
N 1.621373e+00 8.778000e-01 -5.997516e+00 6.858254e-03 -8.599498e-04 -7.781789e-03
N 1.562560e+00 8.470762e-01 -7.531977e-01 -6.547208e-03 -3.890143e-03 -2.868854e-03
N -4.227683e-02 3.661013e+00 4.382842e+00 9.679713e-04 -1.252538e-03 -5.983141e-03
N -1.636221e-03 3.613174e+00 -6.001357e+00 -2.875796e-04 8.162331e-04 -9.972264e-03
N -5.710961e-03 3.578932e+00 -7.564493e-01 -1.606563e-03 -7.480393e-03 2.965570e-03
N 3.167746e+00 -1.848396e+00 4.414044e+00 -1.466932e-03 1.316876e-03 -7.612900e-04
N 3.240188e+00 -1.888359e+00 -5.948205e+00 4.947584e-03 3.096875e-03 -1.557796e-03
N 3.180129e+00 -1.884764e+00 -7.701661e-01 -6.623754e-03 2.279024e-03 3.035481e-03
N -4.851371e+00 9.572532e-01 4.410177e+00 6.841856e-04 9.639210e-04 3.349201e-04
N -4.844591e+00 8.448586e-01 -5.943948e+00 -4.236863e-03 -5.022376e-03 6.791678e-04
N -4.815041e+00 8.690030e-01 -7.947478e-01 3.275474e-03 -3.269293e-03 -3.921179e-03
N -6.443429e+00 3.636399e+00 4.400565e+00 -1.563176e-03 -4.588543e-03 -2.075480e-03
N -6.379601e+00 3.597623e+00 -5.944382e+00 5.776791e-03 -2.979249e-03 1.549430e-03
N -6.405103e+00 3.618236e+00 -8.430836e-01 6.685733e-05 2.826439e-03 -9.245419e-03
N -3.200485e+00 -1.833818e+00 4.433367e+00 5.560822e-03 2.602779e-03 2.531571e-03
N -3.220650e+00 -1.884819e+00 -5.953112e+00 -5.520267e-03 3.183614e-03 -7.968379e-04
N -3.195871e+00 -1.898126e+00 -8.366756e-01 -3.309367e-04 2.845310e-04 -3.334695e-03
N -1.699245e+00 9.034241e-01 4.450220e+00 4.294380e-03 -4.331217e-03 5.903811e-03
N -1.626631e+00 8.658597e-01 -5.972134e+00 3.992868e-03 -2.145759e-03 -2.031572e-03
N -1.590509e+00 8.930025e-01 -7.618546e-01 8.200317e-03 1.886823e-03 2.285316e-03
N -3.256371e+00 3.642655e+00 4.438819e+00 4.172858e-03 -4.436766e-03 2.722604e-03
N -3.250444e+00 3.638010e+00 -5.952532e+00 -1.415549e-03 4.448431e-03 -5.678772e-05
N -3.222839e+00 3.627656e+00 -7.855685e-01 4.235332e-03 1.634794e-03 1.399128e-03
N -6.952760e-02 -1.815558e+00 4.424694e+00 1.143595e-04 8.326793e-03 1.370555e-03
N -9.324764e-03 -1.930106e+00 -5.956403e+00 4.425734e-03 -4.936925e-03 1.164589e-05
N 2.189859e-02 -1.879034e+00 -8.257776e-01 8.504675e-03 3.708100e-03 -3.326917e-03
N -4.546955e-02 1.789816e+00 1.879331e+00 6.665666e-03 5.349664e-04 -5.223042e-03
N -3.704774e-03 1.845367e+00 7.019374e+00 2.366884e-03 1.251357e-03 -5.326139e-04
N -1.156728e-03 1.773752e+00 -3.384642e+00 -4.396014e-03 -3.654200e-04 -4.411463e-03
N 3.211713e+00 -3.723214e+00 1.843520e+00 8.833453e-04 -3.833330e-03 4.391464e-03
N 3.205134e+00 -3.705456e+00 7.022574e+00 1.943102e-03 -3.313344e-03 5.656828e-04
N 3.214038e+00 -3.749064e+00 -3.372764e+00 -2.334480e-03 -1.032823e-03 -1.650130e-03
N 1.578758e+00 -9.101059e-01 1.772111e+00 -1.028336e-02 -2.448257e-03 8.035854e-03
N 1.581999e+00 -8.935279e-01 7.020643e+00 -4.303811e-03 7.125830e-03 -2.158078e-03
N 1.585315e+00 -1.008032e+00 -3.368123e+00 -8.735544e-03 -6.148759e-04 7.742765e-04
N 3.203221e+00 1.854421e+00 1.831238e+00 -1.136316e-02 -8.744381e-03 1.745673e-02
N 3.119027e+00 1.817010e+00 6.969451e+00 -6.997785e-03 -3.853259e-03 -1.146014e-02
N 3.180132e+00 1.807824e+00 -3.407860e+00 -9.713579e-04 6.171900e-03 -7.456367e-03
N 6.367138e+00 -3.741123e+00 1.861072e+00 -1.082698e-03 -2.299540e-03 -2.316631e-03
N 6.334341e+00 -3.704064e+00 7.020373e+00 -5.113183e-03 -2.657937e-03 -7.469070e-04
N 6.424609e+00 -3.727263e+00 -3.357449e+00 4.121222e-03 3.457963e-03 1.485120e-03
N 4.775133e+00 -8.957495e-01 1.845054e+00 1.195047e-03 3.571940e-03 -2.336943e-04
N 4.766988e+00 -9.266005e-01 7.002749e+00 -1.198138e-03 2.135405e-03 -2.520673e-03
N 4.832026e+00 -1.003948e+00 -3.403265e+00 4.565014e-03 -1.172213e-03 -5.430267e-03
N -3.294597e+00 1.815886e+00 1.838783e+00 1.560098e-03 -3.618935e-03 1.102082e-03
N -3.261782e+00 1.837657e+00 6.974814e+00 -1.142082e-04 -2.201467e-04 -8.321087e-03
N -3.213629e+00 1.784597e+00 -3.377052e+00 1.490741e-03 -3.111265e-04 -2.527709e-03
N -7.247053e-02 -3.698016e+00 1.846478e+00 -1.292738e-03 1.447970e-03 -2.569839e-03
N -4.410932e-02 -3.680450e+00 7.001735e+00 -5.126153e-04 6.276497e-04 -1.971531e-03
N -2.846034e-02 -3.719268e+00 -3.396808e+00 -5.450569e-03 3.775504e-03 -4.930674e-03
N -1.649580e+00 -9.346426e-01 1.799732e+00 1.870867e-03 1.617614e-03 2.393529e-03
N -1.635861e+00 -9.284942e-01 6.971840e+00 -9.046082e-04 2.760028e-03 -8.562861e-03
N -1.593025e+00 -1.014064e+00 -3.351067e+00 -1.589061e-03 -2.534663e-03 3.275008e-03
