108
Energy=-1397949.306443 Lattice="9.510488 0.000000 0.000000 -4.758443 8.235019 0.000000 0.005397 -0.003291 15.351156" Stress="0.000001 -0.000002 0.000001 -0.000002 -0.000001 -0.000001 0.000001 -0.000001 0.000000" Properties=species:S:1:pos:R:3:forces:R:3
Al 1.565266 0.889994 2.420437 0.000098 -0.000050 0.000052
Al 1.571094 0.872577 7.499762 -0.000065 -0.000055 0.000048
Al 1.556579 0.878964 -2.696782 0.000083 0.000064 -0.000074
Al -0.019727 3.610867 2.413822 -0.000011 0.000014 -0.000003
Al -0.024677 3.619659 7.489390 -0.000154 -0.000094 -0.000046
Al -0.026916 3.612455 -2.674840 -0.000014 0.000048 0.000129
Al 3.153721 -1.869608 2.421563 -0.000056 0.000307 0.000047
Ga 3.135964 -1.877952 7.525195 -0.000021 -0.000010 0.000025
Ga 3.137801 -1.876646 -2.713269 -0.000129 0.000050 0.000011
Al -4.793166 0.878768 2.394255 -0.000039 -0.000168 -0.000205
Al -4.785785 0.886071 7.526239 -0.000099 0.000245 0.000057
Ga -4.791024 0.884140 -2.681670 0.000093 0.000006 -0.000028
Al -6.378293 3.601243 2.408660 0.000294 -0.000052 0.000146
Ga -6.366271 3.607566 7.524135 -0.000034 0.000011 0.000059
Ga -6.367720 3.615301 -2.702363 0.000048 0.000009 -0.000038
Ga -3.200892 -1.879380 2.415700 -0.000074 0.000091 0.000077
Al -3.181178 -1.877066 7.491399 -0.000032 -0.000038 -0.000042
Ga -3.195363 -1.880821 -2.667004 -0.000062 0.000065 0.000077
Al -1.596471 0.887939 2.421831 0.000010 0.000085 -0.000025
Ga -1.600118 0.875728 7.514746 0.000063 -0.000003 -0.000027
Ga -1.599655 0.890759 -2.698853 0.000182 -0.000093 -0.000002
Ga -3.185043 3.618984 2.394262 -0.000115 -0.000048 0.000003
Al -3.181702 3.623634 7.537615 -0.000000 -0.000094 -0.000070
Ga -3.191594 3.629329 -2.694112 0.000042 -0.000089 0.000037
Ga -0.014522 -1.864403 2.433971 -0.000033 -0.000058 0.000100
Al -0.011567 -1.861503 7.515738 -0.000008 0.000070 -0.000096
Al -0.009485 -1.870444 -2.710559 -0.000005 0.000019 0.000044
Al -0.006456 1.793661 4.951656 -0.000031 -0.000005 -0.000046
Ga -0.009098 1.801406 -5.272531 -0.000023 0.000109 -0.000025
Al -0.017764 1.807926 -0.129135 -0.000015 0.000020 0.000054
Al 3.163216 -3.701570 4.961242 0.000039 -0.000072 0.000110
Al 3.137667 -3.713320 -5.275736 0.000023 0.000046 -0.000137
Al 3.165071 -3.706981 -0.130764 0.000007 0.000114 -0.000046
Al 1.564162 -0.939436 4.961786 0.000005 0.000024 -0.000090
Al 1.554555 -0.948849 -5.271068 -0.000088 -0.000122 0.000064
Ga 1.573023 -0.950264 -0.137881 -0.000049 0.000041 0.000235
Al 3.130386 1.785206 4.949012 0.000043 0.000112 -0.000144
Al 3.146240 1.780442 -5.275337 -0.000005 0.000013 -0.000058
Al 3.141691 1.795837 -0.120599 0.000218 0.000143 -0.000057
Al 6.312166 -3.715817 4.958811 0.000130 -0.000034 -0.000125
Ga 6.306298 -3.706597 -5.273891 -0.000071 0.000030 0.000143
Al 6.309250 -3.721876 -0.126414 0.000081 -0.000100 0.000096
Ga 4.726035 -0.952712 4.969430 -0.000083 -0.000005 -0.000043
Ga 4.727471 -0.939423 -5.293490 -0.000009 -0.000019 0.000006
Al 4.723595 -0.954310 -0.111448 -0.000073 0.000060 -0.000119
Ga -3.191203 1.788787 4.964825 -0.000070 -0.000089 0.000132
Al -3.214470 1.814364 -5.289191 0.000074 -0.000031 -0.000014
Al -3.197130 1.792874 -0.114350 -0.000046 -0.000238 0.000044
Ga -0.025849 -3.697030 4.984262 -0.000057 -0.000069 0.000100
Al -0.002374 -3.695504 -5.290048 0.000019 0.000003 -0.000047
Al -0.027790 -3.711390 -0.137781 -0.000077 0.000056 0.000176
Al -1.594539 -0.950909 4.974790 -0.000022 -0.000077 0.000053
Ga -1.595961 -0.964112 -5.270219 -0.000089 0.000002 0.000056
Ga -1.606425 -0.952046 -0.137231 -0.000011 0.000041 0.000122
N 1.562052 0.878115 4.342097 0.000067 -0.000044 -0.000008
N 1.602698 0.851779 -5.923779 0.000026 0.000125 -0.000118
N 1.562928 0.926176 -0.771411 -0.000098 -0.000060 -0.000067
N -0.024739 3.619094 4.341020 0.000020 -0.000003 -0.000025
N -0.069889 3.644355 -5.950270 -0.000017 0.000062 0.000019
N -0.027042 3.617640 -0.750665 0.000016 0.000035 0.000033
N 3.107878 -1.895260 4.344203 0.000015 -0.000019 -0.000089
N 3.097472 -1.896426 -5.844698 -0.000022 -0.000072 0.000073
N 3.189231 -1.897443 -0.732483 -0.000029 -0.000084 -0.000027
N -4.820724 0.901014 4.304128 -0.000036 -0.000011 -0.000043
N -4.787109 0.932320 -5.911888 0.000032 -0.000011 -0.000026
N -4.782166 0.878233 -0.690436 0.000105 0.000039 -0.000000
N -6.403900 3.595376 4.335439 -0.000110 -0.000012 0.000064
N -6.327799 3.594983 -5.846452 0.000020 0.000025 0.000043
N -6.365238 3.615479 -0.711400 -0.000031 -0.000018 0.000030
N -3.149694 -1.895503 4.392868 -0.000031 0.000069 -0.000008
N -3.188055 -1.872419 -5.952674 0.000026 -0.000021 -0.000093
N -3.238876 -1.898908 -0.690429 0.000074 0.000012 -0.000002
N -1.562911 0.855810 4.345842 0.000033 -0.000034 0.000016
N -1.647806 0.902381 -5.863354 0.000109 -0.000054 -0.000048
N -1.608953 0.932262 -0.719731 0.000096 0.000002 -0.000042
N -3.153752 3.646850 4.357776 -0.000005 0.000113 -0.000088
N -3.190955 3.626695 -5.889927 0.000027 0.000022 0.000021
N -3.192433 3.619847 -0.695786 0.000058 0.000072 -0.000060
N -0.017555 -1.825406 4.397766 -0.000051 -0.000022 0.000037
N 0.022232 -1.884804 -5.914944 0.000041 0.000015 0.000088
N -0.015228 -1.920265 -0.794612 0.000066 -0.000044 -0.000068
N -0.019087 1.791680 1.803433 0.000038 0.000018 0.000001
N 0.025968 1.811504 6.874428 0.000007 0.000090 0.000092
N 0.023070 1.820212 -3.290488 0.000010 0.000154 -0.000033
N 3.201207 -3.673432 1.783649 0.000099 -0.000255 -0.000064
N 3.149646 -3.747877 6.877436 -0.000054 -0.000005 -0.000018
N 3.194550 -3.734591 -3.356364 0.000000 0.000043 0.000006
N 1.605818 -0.926244 1.838218 0.000071 0.000025 0.000011
N 1.528119 -0.928014 6.877994 -0.000059 -0.000090 0.000124
N 1.518300 -0.922259 -3.338763 -0.000030 0.000063 -0.000040
N 3.139047 1.789450 1.798704 -0.000085 0.000003 -0.000077
N 3.149253 1.740594 6.868185 0.000161 -0.000038 0.000123
N 3.102505 1.761347 -3.358033 -0.000034 -0.000028 0.000060
N 6.316193 -3.756364 1.789651 -0.000206 0.000093 -0.000137
N 6.283193 -3.686211 6.876239 0.000090 0.000021 0.000023
N 6.270496 -3.724441 -3.299309 -0.000018 -0.000040 -0.000042
N 4.689298 -0.933741 1.801349 -0.000035 -0.000006 0.000106
N 4.769394 -0.927044 6.948225 -0.000021 -0.000041 -0.000017
N 4.738256 -0.949536 -3.325951 -0.000083 -0.000086 -0.000027
N -3.189894 1.738804 1.797667 -0.000027 -0.000085 -0.000041
N -3.234625 1.815750 6.940635 0.000034 0.000039 -0.000009
N -3.204195 1.795465 -3.374632 0.000033 0.000027 -0.000029
N -0.068495 -3.719362 1.774143 -0.000008 -0.000019 -0.000152
N 0.022577 -3.679981 6.957266 0.000039 -0.000062 -0.000039
N -0.018508 -3.653072 -3.365900 0.000035 0.000009 -0.000018
N -1.603109 -0.907216 1.824959 0.000019 0.000013 -0.000096
N -1.598142 -0.998998 6.889678 -0.000044 -0.000009 0.000021
N -1.571306 -0.979467 -3.290763 -0.000116 -0.000103 -0.000034
