108
Energy=-1.993026e+06 Lattice="9.486932e+00 0.000000e+00 0.000000e+00 -4.746691e+00 8.212367e+00 0.000000e+00 9.731479e-04 9.873872e-05 1.530532e+01" Stress="-5.354805e-02 6.033527e-03 7.710369e-06 6.020099e-03 -4.747432e-02 -2.122203e-04 1.505675e-05 -2.100816e-04 -4.818016e-02" Properties=species:S:1:pos:R:3:forces:R:3 Config_type=AlGaN_super3_34_1_1.xyz
Al 1.566391e+00 8.974695e-01 2.462786e+00 -1.401744e-03 -1.331741e-02 -6.980791e-03
Al 1.566005e+00 9.004360e-01 7.513474e+00 -1.385515e-03 -1.291780e-02 -2.945405e-03
Ga 1.563817e+00 8.998456e-01 -2.748718e+00 -3.926435e-04 -1.606663e-02 -2.480267e-03
Al -6.829754e-03 3.611168e+00 2.469223e+00 -2.207690e-03 -1.406024e-03 -5.324055e-03
Al -2.809829e-03 3.614443e+00 7.511909e+00 -2.756954e-03 -1.364964e-03 -2.527362e-03
Ga -3.705137e-03 3.613778e+00 -2.753481e+00 -2.011209e-03 -9.961095e-04 -3.009299e-04
Al 3.176721e+00 -1.884623e+00 2.472706e+00 -2.946324e-03 -2.086112e-04 -7.228369e-03
Ga 3.177172e+00 -1.882524e+00 7.511127e+00 -2.277665e-03 1.043612e-03 -3.145147e-03
Ga 3.174461e+00 -1.882577e+00 -2.750497e+00 -2.186272e-03 2.614903e-03 -9.479437e-04
Ga -4.788702e+00 8.981754e-01 2.471861e+00 1.501872e-03 -1.466083e-02 -8.500989e-03
Al -4.788434e+00 8.999691e-01 7.511259e+00 1.701904e-03 -1.230134e-02 -2.898101e-03
Al -4.788640e+00 9.008270e-01 -2.753537e+00 4.459695e-04 -1.233468e-02 -1.782148e-03
Ga -6.354313e+00 3.612025e+00 2.470991e+00 -7.210572e-04 6.348725e-04 -5.957223e-03
Ga -6.356240e+00 3.613060e+00 7.514687e+00 -9.685675e-04 -1.493939e-04 -5.187024e-04
Al -6.355106e+00 3.615416e+00 -2.753460e+00 -1.760811e-04 -7.796834e-04 -3.760809e-04
Ga -3.179820e+00 -1.883836e+00 2.476391e+00 5.590918e-04 2.067120e-03 -7.591191e-03
Al -3.177411e+00 -1.881865e+00 7.512518e+00 -9.419758e-04 2.587525e-03 -2.389525e-03
Al -3.176555e+00 -1.882303e+00 -2.754894e+00 -9.640933e-04 2.771153e-03 -1.371394e-03
Ga -1.649907e+00 9.036862e-01 2.475596e+00 1.448008e-02 -8.858587e-03 -1.181717e-02
Ga -1.653322e+00 9.016538e-01 7.513277e+00 1.483638e-02 -8.077339e-03 -7.139303e-03
Ga -1.654222e+00 9.006247e-01 -2.753410e+00 1.451573e-02 -8.429876e-03 -5.239149e-03
Al -3.219082e+00 3.615558e+00 2.477700e+00 1.207936e-02 4.489859e-03 -7.498329e-03
Ga -3.219979e+00 3.614948e+00 7.511766e+00 1.424848e-02 6.631870e-03 -4.063291e-03
Ga -3.223711e+00 3.616176e+00 -2.752624e+00 1.302362e-02 6.865554e-03 -2.405867e-03
Ga -3.816681e-02 -1.883463e+00 2.470098e+00 1.275766e-02 9.597157e-03 -9.890453e-03
Ga -4.184592e-02 -1.880916e+00 7.513665e+00 1.349364e-02 9.890674e-03 -4.574819e-03
Al -4.329585e-02 -1.882775e+00 -2.751966e+00 1.131127e-02 7.240979e-03 -2.113679e-03
Ga -2.724105e-03 1.805849e+00 4.994397e+00 -1.346728e-02 -9.347401e-03 -3.721725e-03
Ga -2.368060e-03 1.804008e+00 -5.275093e+00 -1.296419e-02 -9.750972e-03 -4.225617e-03
Ga -6.293452e-03 1.805558e+00 -2.174595e-01 -1.302192e-02 -9.556387e-03 3.174282e-02
Al 3.176609e+00 -3.693546e+00 4.993604e+00 -1.162534e-02 -4.536643e-03 -4.175275e-03
Ga 3.175231e+00 -3.693913e+00 -5.274244e+00 -1.353987e-02 -7.041650e-03 -3.187982e-03
Al 3.175139e+00 -3.694686e+00 -2.404544e-01 -1.142508e-02 -4.918356e-03 3.112769e-02
Ga 1.609907e+00 -9.785730e-01 4.992449e+00 -1.423388e-02 7.872177e-03 -6.433842e-03
Ga 1.607623e+00 -9.790765e-01 -5.272077e+00 -1.421922e-02 9.079119e-03 -5.489158e-03
Ga 1.605642e+00 -9.815354e-01 -2.142605e-01 -1.388432e-02 8.459119e-03 2.927064e-02
Ga 3.132483e+00 1.802326e+00 4.993339e+00 6.056525e-04 -2.643267e-03 -8.307384e-04
Al 3.131511e+00 1.804281e+00 -5.274571e+00 9.629581e-05 -3.339800e-03 -8.927548e-04
Ga 3.132662e+00 1.806873e+00 -2.196431e-01 7.380600e-04 -3.368671e-03 3.450007e-02
Ga 6.308448e+00 -3.691316e+00 4.996825e+00 1.171294e-04 -3.272435e-04 -1.013194e-03
Ga 6.310303e+00 -3.693440e+00 -5.274294e+00 -4.470938e-05 -1.031915e-04 3.863631e-05
Al 6.308577e+00 -3.692305e+00 -2.446010e-01 2.359939e-04 -2.127978e-04 3.229706e-02
Al 4.743857e+00 -9.780052e-01 4.995171e+00 -2.124256e-03 1.193165e-02 -1.902289e-03
Ga 4.742210e+00 -9.774799e-01 -5.273791e+00 -8.540433e-04 1.541419e-02 -2.733293e-03
Ga 4.745951e+00 -9.801896e-01 -2.214913e-01 -1.363250e-03 1.509317e-02 3.292361e-02
Al -3.219713e+00 1.805210e+00 4.993606e+00 2.254867e-03 -7.091841e-04 -3.123590e-03
Ga -3.222830e+00 1.805481e+00 -5.274282e+00 2.297389e-03 -1.844907e-03 -1.725705e-03
Al -3.219337e+00 1.806238e+00 -2.443400e-01 2.238876e-03 -1.464772e-03 3.092924e-02
Ga -3.930241e-02 -3.692960e+00 4.993923e+00 3.037857e-03 4.865393e-04 -1.667407e-03
Ga -4.248259e-02 -3.692422e+00 -5.271420e+00 2.539533e-03 7.457221e-04 1.460364e-04
Ga -4.370787e-02 -3.690766e+00 -2.230256e-01 3.130348e-03 8.856279e-04 3.539377e-02
Ga -1.609932e+00 -9.767780e-01 4.995559e+00 1.564883e-03 1.648437e-02 -4.590672e-03
Ga -1.609562e+00 -9.785823e-01 -5.273072e+00 1.068896e-03 1.668947e-02 -3.349366e-03
Al -1.611199e+00 -9.782789e-01 -2.459418e-01 1.119335e-03 1.353317e-02 2.984095e-02
N 1.564065e+00 9.003508e-01 4.387371e+00 -1.497052e-03 -1.524784e-02 -1.819784e-02
N 1.567168e+00 9.016341e-01 -5.873643e+00 1.614127e-02 -5.781058e-03 -9.786828e-03
N 1.562985e+00 9.002139e-01 -8.197821e-01 -9.890397e-04 -1.587182e-02 4.537785e-03
N -7.661437e-03 3.617546e+00 4.398021e+00 -1.822496e-02 8.410025e-03 -1.583268e-02
N -4.395035e-03 3.614228e+00 -5.875812e+00 -2.130528e-03 3.009811e-04 -2.034285e-02
N -5.076280e-03 3.616285e+00 -8.309839e-01 -1.967452e-03 1.945332e-02 1.726527e-02
N 3.179396e+00 -1.884029e+00 4.395027e+00 1.500285e-02 -8.100412e-03 -7.129455e-03
N 3.174684e+00 -1.883546e+00 -5.871492e+00 -2.709769e-03 1.447319e-03 1.024222e-04
N 3.174483e+00 -1.886144e+00 -8.245867e-01 -2.416048e-03 -1.778307e-02 9.258469e-03
N -4.784829e+00 8.973167e-01 4.397501e+00 1.845242e-02 -2.224057e-02 1.701941e-02
N -4.792145e+00 9.025268e-01 -5.875291e+00 -1.658869e-02 -5.499302e-03 -9.438746e-03
N -4.785936e+00 9.023609e-01 -8.321455e-01 1.719230e-02 -5.562772e-03 -7.524288e-03
N -6.354724e+00 3.613764e+00 4.396113e+00 -1.048061e-03 7.687043e-04 1.020170e-03
N -6.355927e+00 3.610594e+00 -5.869189e+00 -1.304255e-04 -1.951700e-02 8.716276e-03
N -6.358822e+00 3.616381e+00 -8.323955e-01 -1.737948e-02 9.934738e-03 -1.095548e-02
N -3.181173e+00 -1.879787e+00 4.399437e+00 -1.758090e-02 1.166053e-02 7.748331e-03
N -3.177369e+00 -1.882564e+00 -5.875598e+00 -1.039791e-03 1.617401e-03 -1.995129e-02
N -3.175213e+00 -1.884545e+00 -8.372382e-01 1.570250e-02 -8.338412e-03 -3.975338e-03
N -1.654143e+00 9.050959e-01 4.399311e+00 -1.735739e-03 9.464488e-04 1.463269e-02
N -1.654073e+00 9.014745e-01 -5.870973e+00 1.490137e-02 -8.422558e-03 8.357603e-03
N -1.655836e+00 9.004397e-01 -8.319788e-01 -1.427671e-03 -1.509864e-02 2.247561e-02
N -3.217389e+00 3.613928e+00 4.396470e+00 2.768780e-02 -4.822591e-03 -4.084329e-03
N -3.221453e+00 3.615888e+00 -5.871242e+00 1.381463e-02 7.710558e-03 4.076397e-03
N -3.219682e+00 3.615500e+00 -8.308724e-01 2.817626e-02 -4.199935e-03 1.966116e-02
N -4.028507e-02 -1.882281e+00 4.394923e+00 1.274952e-02 9.223145e-03 3.760578e-03
N -4.242344e-02 -1.881928e+00 -5.870605e+00 1.371160e-02 8.487222e-03 4.542317e-03
N -4.545264e-02 -1.880455e+00 -8.319701e-01 -3.346584e-03 1.810365e-02 -7.793603e-03
N 4.249846e-03 1.797108e+00 1.855052e+00 2.969302e-03 3.924652e-03 -1.210776e-02
N 1.613424e-03 1.805892e+00 6.917996e+00 3.973268e-03 7.789345e-04 1.805768e-02
N -3.215366e-03 1.803606e+00 -3.351652e+00 -1.394943e-02 -8.954490e-03 3.434631e-03
N 3.174686e+00 -3.695159e+00 1.888615e+00 -1.103227e-02 -5.260020e-03 -2.612381e-02
N 3.179518e+00 -3.695504e+00 6.911728e+00 3.115342e-03 -1.687266e-02 -9.828133e-03
N 3.174830e+00 -3.693750e+00 -3.351764e+00 -1.406063e-02 -7.649481e-03 4.465607e-03
N 1.614541e+00 -9.798652e-01 1.866198e+00 1.661154e-03 1.530086e-02 -1.221161e-02
N 1.608793e+00 -9.745783e-01 6.915856e+00 -1.545799e-02 2.485922e-02 1.307775e-02
N 1.603832e+00 -9.812749e-01 -3.348296e+00 -2.985449e-02 2.895131e-04 1.272617e-02
N 3.129776e+00 1.801211e+00 1.864239e+00 -1.557930e-02 -1.147059e-02 -2.601989e-02
N 3.131596e+00 1.800202e+00 6.917083e+00 1.056176e-03 -2.106749e-02 1.467707e-02
N 3.134252e+00 1.806013e+00 -3.352591e+00 1.768450e-02 8.760048e-03 -7.077535e-03
N 6.306170e+00 -3.696475e+00 1.885550e+00 -1.663609e-02 -1.048621e-02 -4.396722e-02
N 6.307360e+00 -3.690961e+00 6.919316e+00 -1.574163e-02 9.831435e-03 1.505981e-02
N 6.312960e+00 -3.691098e+00 -3.350299e+00 1.763004e-02 9.989917e-03 1.537627e-02
N 4.739837e+00 -9.832861e-01 1.866261e+00 -1.800653e-02 6.554177e-03 -2.222905e-02
N 4.746542e+00 -9.761134e-01 6.914004e+00 1.649747e-02 2.219221e-02 -4.297383e-03
N 4.745331e+00 -9.760146e-01 -3.349302e+00 1.663673e-02 2.169635e-02 1.671777e-02
N -3.218671e+00 1.809128e+00 1.883819e+00 1.752274e-03 1.819068e-02 -4.336953e-02
N -3.223370e+00 1.803859e+00 6.912268e+00 -1.488904e-02 -1.139599e-02 -1.415202e-02
N -3.224850e+00 1.803817e+00 -3.351108e+00 -1.371606e-02 -1.101851e-02 7.448549e-03
N -3.570155e-02 -3.695976e+00 1.867808e+00 1.839604e-02 -9.895124e-03 -2.624880e-02
N -4.091324e-02 -3.692258e+00 6.915751e+00 1.480965e-03 2.363012e-04 6.739788e-04
N -4.533344e-02 -3.689958e+00 -3.347963e+00 -1.524584e-02 1.026852e-02 1.436846e-02
N -1.609783e+00 -9.787825e-01 1.882050e+00 9.559526e-04 1.590836e-02 -4.671783e-02
N -1.611921e+00 -9.796227e-01 6.917393e+00 -1.587598e-02 5.607341e-03 1.061484e-02
N -1.609393e+00 -9.819867e-01 -3.349451e+00 1.020694e-03 -3.971081e-03 1.834999e-02
