108
Energy=-5.739908e+05 Lattice="9.414368e+00 0.000000e+00 0.000000e+00 -4.716733e+00 8.147811e+00 0.000000e+00 -2.199457e-03 -1.948591e-03 1.510483e+01" Stress="3.776383e-04 -6.659812e-04 -6.311782e-05 -6.731340e-04 -6.841175e-04 -7.999395e-05 -6.312957e-05 -7.989327e-05 1.027163e-03" Properties=species:S:1:pos:R:3:forces:R:3 Config_type=AlGaN_super3_3_1_11.xyz
Al 1.541916e+00 8.650100e-01 2.372089e+00 2.763776e-04 -8.443745e-04 -1.078444e-05
Al 1.542277e+00 8.718248e-01 7.384699e+00 3.777397e-04 -1.820474e-04 -3.947664e-04
Al 1.551398e+00 8.814487e-01 -2.653341e+00 1.896050e-05 1.953200e-03 1.129812e-03
Al -2.859182e-02 3.579870e+00 2.366188e+00 -9.965842e-05 8.907920e-05 4.154293e-04
Al -3.271535e-02 3.576393e+00 7.387002e+00 -7.550550e-06 1.026741e-04 2.330865e-04
Al -3.042114e-02 3.579136e+00 -2.651219e+00 -7.628696e-05 -1.317520e-04 1.361598e-04
Al 3.116749e+00 -1.852653e+00 2.374702e+00 -2.891249e-04 3.720793e-04 -4.716788e-04
Al 3.125304e+00 -1.855493e+00 7.384996e+00 -9.590840e-05 -4.496320e-05 -3.390997e-04
Al 3.136029e+00 -1.854987e+00 -2.652003e+00 6.414727e-04 1.840851e-04 2.472198e-05
Al -4.734909e+00 8.655990e-01 2.370052e+00 2.652260e-04 -2.704060e-04 2.087941e-04
Al -4.735253e+00 8.651623e-01 7.396282e+00 2.553016e-04 2.628535e-05 -2.267384e-05
Al -4.732003e+00 8.671521e-01 -2.667270e+00 3.925632e-04 2.850344e-04 -1.222356e-04
Al -6.308728e+00 3.579585e+00 2.373264e+00 -1.823368e-04 4.790481e-05 6.389058e-05
Al -6.299994e+00 3.578057e+00 7.384216e+00 -3.871161e-06 5.200108e-05 -2.032352e-04
Al -6.298136e+00 3.572930e+00 -2.650025e+00 -2.102110e-05 -1.357539e-05 2.559466e-04
Al -3.163126e+00 -1.853025e+00 2.374696e+00 1.224740e-04 3.131752e-04 -3.393910e-04
Al -3.158959e+00 -1.844625e+00 7.384568e+00 -2.282596e-05 2.269109e-05 -2.719047e-04
Al -3.164359e+00 -1.839837e+00 -2.650923e+00 -6.694510e-05 2.302927e-07 1.050541e-04
Al -1.600886e+00 8.691086e-01 2.370632e+00 6.564855e-04 -3.998150e-04 7.644143e-04
Al -1.595672e+00 8.683322e-01 7.393620e+00 3.739306e-04 -3.346678e-04 -1.860142e-04
Al -1.597790e+00 8.764542e-01 -2.666062e+00 3.717758e-04 1.027853e-04 1.150327e-04
Al -3.168367e+00 3.578782e+00 2.372963e+00 3.478196e-04 -1.324386e-04 4.169055e-04
Al -3.166254e+00 3.583738e+00 7.393822e+00 3.202665e-05 -1.360516e-04 -5.974564e-05
Al -3.159858e+00 3.577981e+00 -2.665380e+00 6.233833e-05 -3.321124e-04 1.499095e-04
Al -2.294043e-02 -1.849844e+00 2.369778e+00 6.685661e-04 4.800176e-04 3.189884e-04
Al -2.612043e-02 -1.851901e+00 7.389032e+00 3.711381e-04 -4.785303e-04 -1.890526e-03
Ga -2.665407e-02 -1.851132e+00 -2.642314e+00 -8.419903e-05 -5.018180e-04 -1.288765e-03
Al -2.800469e-02 1.769321e+00 4.876024e+00 -3.800646e-04 3.248687e-05 3.578564e-04
Al -3.194172e-02 1.771210e+00 -5.186610e+00 -1.835001e-04 2.257497e-04 2.004507e-04
Al -2.471334e-02 1.769865e+00 -1.419037e-01 5.772932e-04 7.688453e-04 -1.917146e-04
Al 3.119244e+00 -3.664702e+00 4.878487e+00 -3.607070e-04 2.738846e-04 -3.827722e-06
Al 3.118790e+00 -3.668208e+00 -5.187370e+00 -3.416077e-04 2.161446e-04 -3.905067e-05
Al 3.121980e+00 -3.660576e+00 -1.395285e-01 1.187514e-04 1.079821e-04 -4.440748e-04
Al 1.548541e+00 -9.473410e-01 4.884951e+00 -6.200990e-04 9.989928e-05 -3.870209e-04
Ga 1.558185e+00 -9.435087e-01 -5.190588e+00 -7.310743e-04 2.777185e-04 -7.625929e-04
Al 1.553746e+00 -9.432049e-01 -1.452156e-01 2.412055e-03 1.578939e-03 4.461031e-03
Al 3.111325e+00 1.769283e+00 4.878500e+00 -9.315340e-06 -1.109538e-04 2.478748e-05
Al 3.120606e+00 1.773148e+00 -5.188418e+00 4.346539e-05 5.065001e-05 3.900860e-04
Al 3.118608e+00 1.772097e+00 -1.374191e-01 -9.113521e-04 -1.226945e-04 -1.149483e-03
Al 6.255004e+00 -3.662371e+00 4.884727e+00 8.602519e-05 -1.638731e-05 -1.966142e-04
Ga 6.260660e+00 -3.658607e+00 -5.183498e+00 -5.525343e-05 -2.044705e-04 -2.620841e-04
Al 6.263404e+00 -3.657230e+00 -1.441315e-01 -6.755441e-04 -3.874471e-04 -1.336977e-03
Al 4.685739e+00 -9.441764e-01 4.879360e+00 -4.048268e-04 5.245259e-06 -2.530103e-04
Al 4.693434e+00 -9.369976e-01 -5.187245e+00 -2.958434e-04 1.179740e-04 1.817545e-04
Al 4.691138e+00 -9.399435e-01 -1.406579e-01 -6.659692e-04 -7.048809e-04 2.760095e-04
Al -3.167301e+00 1.771300e+00 4.884561e+00 -1.922987e-04 3.553781e-06 2.883555e-04
Al -3.163304e+00 1.774242e+00 -5.191789e+00 -2.146749e-04 2.243250e-04 -2.284991e-04
Al -3.160144e+00 1.773898e+00 -1.471601e-01 -8.510960e-04 -1.273203e-04 -7.228215e-04
Al -1.965739e-02 -3.660678e+00 4.877868e+00 -2.673495e-06 1.206036e-04 4.324531e-06
Al -1.340985e-02 -3.669037e+00 -5.196134e+00 2.318223e-04 -1.528265e-03 -1.055827e-04
Al -1.202880e-02 -3.666019e+00 -1.232883e-01 -1.012993e-03 -1.451003e-03 -7.148695e-04
Al -1.590840e+00 -9.431399e-01 4.877805e+00 -2.536531e-04 6.738211e-06 -2.558256e-04
Al -1.596253e+00 -9.321606e-01 -5.194800e+00 7.412551e-04 -7.462714e-04 -1.145097e-03
Al -1.588555e+00 -9.361174e-01 -1.308196e-01 -3.378236e-03 2.792620e-04 2.229830e-03
N 1.541447e+00 8.639330e-01 4.287451e+00 3.601456e-04 1.316620e-04 -6.171620e-06
N 1.543536e+00 9.180956e-01 -5.808593e+00 3.775243e-04 -7.318529e-05 2.637513e-04
N 1.546868e+00 8.707675e-01 -7.355564e-01 1.532931e-04 1.048904e-04 -5.452087e-04
N -2.796683e-02 3.580944e+00 4.283537e+00 1.249986e-04 -1.165373e-04 -3.558870e-04
N -6.661263e-02 3.558129e+00 -5.804674e+00 2.426042e-04 1.357667e-04 4.945240e-05
N -2.740689e-02 3.581705e+00 -7.341725e-01 1.207310e-04 -6.781573e-05 -5.148838e-04
N 3.116338e+00 -1.852150e+00 4.288550e+00 3.773098e-04 -5.121876e-05 3.040987e-04
N 3.165633e+00 -1.875235e+00 -5.807852e+00 3.762015e-04 -3.218863e-04 1.582725e-04
N 3.124040e+00 -1.850873e+00 -7.375443e-01 2.030882e-04 -1.553245e-04 1.997658e-04
N -4.734360e+00 8.661103e-01 4.284110e+00 4.203735e-04 1.616974e-04 -1.805300e-04
N -4.733545e+00 8.670742e-01 -5.785993e+00 5.433748e-04 1.552440e-04 8.327329e-05
N -4.730165e+00 8.678388e-01 -7.461346e-01 3.269720e-04 2.617191e-04 -7.321485e-05
N -6.307628e+00 3.581001e+00 4.287759e+00 -4.506002e-05 1.211166e-04 -5.788625e-05
N -6.262828e+00 3.558239e+00 -5.811064e+00 -2.232429e-04 2.246453e-04 7.352222e-05
N -6.295416e+00 3.582517e+00 -7.331002e-01 2.785048e-04 -6.068753e-06 -2.991348e-04
N -3.161115e+00 -1.852669e+00 4.288241e+00 1.424920e-04 5.882974e-05 2.650835e-04
N -3.158753e+00 -1.801041e+00 -5.810668e+00 3.770014e-04 -2.104394e-04 1.145694e-04
N -3.153437e+00 -1.842238e+00 -7.357058e-01 8.425753e-05 1.016217e-04 3.501671e-05
N -1.600978e+00 8.689632e-01 4.285319e+00 5.486183e-04 -8.477657e-05 -2.049124e-04
N -1.594153e+00 8.719537e-01 -5.791091e+00 4.205466e-04 -3.998382e-04 1.371710e-04
N -1.591770e+00 8.688328e-01 -7.453145e-01 3.638852e-05 -3.742646e-04 -2.982521e-04
N -3.167916e+00 3.580432e+00 4.286415e+00 9.195075e-05 -3.077390e-04 -2.009301e-04
N -3.162928e+00 3.585391e+00 -5.791282e+00 2.938461e-04 -7.099976e-04 1.786484e-04
N -3.162679e+00 3.586263e+00 -7.440340e-01 -3.673941e-04 -1.985530e-04 -3.002429e-04
N -2.214171e-02 -1.848662e+00 4.285885e+00 2.300169e-04 -3.180239e-04 3.572872e-04
N -5.717002e-02 -1.878767e+00 -5.808183e+00 -1.652703e-03 3.121773e-03 2.710500e-03
N -2.332779e-02 -1.849053e+00 -6.710881e-01 4.574810e-04 -1.066264e-03 -1.096429e-03
N -2.671779e-02 1.767919e+00 1.773601e+00 -6.402228e-04 2.670920e-04 7.463287e-04
N -2.797720e-02 1.768325e+00 6.789334e+00 -2.449220e-04 2.551007e-04 -6.265980e-05
N -2.211139e-02 1.770929e+00 -3.261906e+00 -1.626577e-04 4.287140e-04 -2.950342e-04
N 3.116330e+00 -3.663938e+00 1.775561e+00 2.756525e-04 2.270413e-04 5.671878e-04
N 3.118783e+00 -3.665023e+00 6.790831e+00 -4.180854e-05 1.936393e-04 -7.262135e-05
N 3.123116e+00 -3.660886e+00 -3.263372e+00 -2.028028e-05 1.950148e-04 -1.583565e-05
N 1.551814e+00 -9.452572e-01 1.783958e+00 -5.968193e-04 -1.375488e-04 -2.541945e-03
N 1.550187e+00 -9.473649e-01 6.804651e+00 -3.362117e-04 3.214477e-04 2.079502e-05
N 1.593788e+00 -9.160763e-01 -3.218750e+00 -3.052411e-04 -2.150995e-03 -6.190796e-04
N 3.110337e+00 1.769534e+00 1.775621e+00 3.182277e-04 2.944056e-04 8.520944e-04
N 3.114210e+00 1.768766e+00 6.790269e+00 -4.919485e-05 -1.136218e-04 7.471465e-05
N 3.114730e+00 1.773796e+00 -3.265635e+00 -1.924486e-05 -5.149279e-05 1.597703e-05
N 6.255267e+00 -3.661675e+00 1.770844e+00 5.254888e-04 4.408312e-05 1.047667e-03
N 6.256244e+00 -3.661640e+00 6.802613e+00 3.342699e-05 -1.534982e-04 -5.210050e-06
N 6.261263e+00 -3.658194e+00 -3.202600e+00 8.235797e-05 -1.743046e-04 2.255193e-04
N 4.684130e+00 -9.462803e-01 1.777915e+00 1.615898e-04 1.404768e-04 -3.638385e-04
N 4.687122e+00 -9.420050e-01 6.790668e+00 -2.666043e-04 2.480243e-05 9.046438e-05
N 4.689074e+00 -9.434378e-01 -3.265251e+00 -1.071335e-04 -1.844918e-04 1.114475e-04
N -3.168233e+00 1.770485e+00 1.768682e+00 3.738801e-04 3.532977e-04 4.029734e-04
N -3.166083e+00 1.771271e+00 6.802519e+00 -1.966947e-04 2.330218e-05 5.236138e-05
N -3.162481e+00 1.773309e+00 -3.268880e+00 -3.000938e-04 5.214969e-05 4.220613e-04
N -2.172001e-02 -3.667264e+00 1.786377e+00 4.748050e-04 5.135253e-04 4.115227e-04
N -1.709420e-02 -3.661182e+00 6.791263e+00 -2.734761e-05 -1.391792e-04 -8.489126e-05
N -1.644085e-02 -3.705374e+00 -3.282436e+00 -1.002913e-04 2.211778e-04 3.197708e-04
N -1.597556e+00 -9.431508e-01 1.787974e+00 5.198986e-04 2.353786e-04 -1.362352e-03
N -1.589115e+00 -9.416800e-01 6.791572e+00 -3.481472e-04 1.566979e-04 2.201562e-04
N -1.628347e+00 -9.186226e-01 -3.281975e+00 -2.560859e-04 -1.782466e-04 9.303289e-05
