108
Energy=-802868.096600 Lattice="9.439937 0.000000 0.000000 -4.722532 8.171261 0.000000 0.002432 0.000030 15.175858" Stress="0.000002 -0.000001 0.000001 -0.000001 -0.000002 -0.000000 0.000001 -0.000000 0.000005" Properties=species:S:1:pos:R:3:forces:R:3
Al 1.556951 0.877459 2.373763 -0.000321 -0.000022 0.000025
Al 1.557191 0.877578 7.443764 -0.000071 0.000081 0.000010
Al 1.550243 0.871358 -2.685240 0.000290 -0.000054 0.000330
Al -0.007040 3.583465 2.384944 -0.000396 0.000223 0.000017
Al -0.013798 3.586109 7.447667 0.000132 0.000004 -0.000180
Al -0.012209 3.589413 -2.693322 0.000068 0.000002 0.000222
Al 3.129632 -1.845895 2.395507 -0.000022 0.000248 0.000751
Al 3.131893 -1.849489 7.442878 -0.000012 -0.000138 -0.000041
Al 3.121508 -1.852013 -2.690087 -0.000167 -0.000227 -0.000005
Al -4.740654 0.874787 2.394013 -0.000373 0.000014 -0.000263
Al -4.744485 0.873126 7.423918 0.000230 0.000227 -0.000218
Al -4.749865 0.876316 -2.678315 -0.000506 -0.000311 0.000057
Al -6.320017 3.586290 2.379469 -0.000265 0.000182 -0.000045
Al -6.321521 3.583679 7.440124 0.000031 0.000038 0.000079
Al -6.329965 3.589899 -2.681137 0.000085 -0.000027 0.000033
Al -3.174659 -1.863388 2.379030 0.000023 0.000137 -0.000120
Al -3.177421 -1.862201 7.445266 -0.000003 0.000087 0.000139
Al -3.159500 -1.862690 -2.680177 -0.000110 0.000081 -0.000168
Al -1.596805 0.882933 2.367516 0.000014 0.000304 0.000067
Al -1.598278 0.885996 7.452216 -0.000000 -0.000059 0.000162
Al -1.597491 0.864605 -2.683274 0.000292 -0.000122 -0.000045
Al -3.176406 3.577220 2.379954 0.000208 0.000137 0.000318
Al -3.171893 3.580561 7.455788 0.000136 -0.000062 0.000003
Ga -3.174371 3.588338 -2.685921 0.000437 0.000106 -0.000455
Ga -0.012207 -1.855262 2.375463 -0.000185 -0.000002 -0.000035
Ga -0.012677 -1.855886 7.454516 0.000190 -0.000030 -0.000049
Al -0.028285 -1.845338 -2.682740 0.000332 -0.000275 -0.000031
Al -0.011976 1.773635 4.912745 -0.000257 -0.000251 0.000083
Al -0.024297 1.774296 -5.207512 -0.000066 0.000334 0.000138
Al -0.020627 1.768797 -0.160916 0.000179 -0.000067 0.000309
Ga 3.125869 -3.676255 4.915110 -0.000254 0.000132 -0.000488
Al 3.125326 -3.678338 -5.222547 -0.000023 0.000162 -0.000309
Ga 3.128612 -3.676511 -0.130353 -0.000123 0.000073 0.000624
Al 1.566694 -0.929193 4.917236 0.000214 0.000297 -0.000094
Al 1.547611 -0.941808 -5.194638 -0.000042 0.000260 0.000110
Al 1.542358 -0.935616 -0.163084 -0.000236 0.000174 -0.000790
Al 3.120824 1.778839 4.906336 -0.000114 0.000021 -0.000094
Al 3.116616 1.784717 -5.213014 0.000076 -0.000017 0.000185
Al 3.114743 1.786908 -0.149020 0.000289 0.000027 0.000216
Al 6.280245 -3.679740 4.914082 0.000044 -0.000373 0.000017
Al 6.276408 -3.681282 -5.207823 0.000072 0.000085 -0.000096
Al 6.283817 -3.680434 -0.153732 0.000055 0.000041 0.000290
Al 4.697843 -0.941089 4.912972 0.000210 -0.000143 -0.000139
Ga 4.698115 -0.944446 -5.201340 -0.000167 0.000453 0.000053
Ga 4.700116 -0.936968 -0.149734 0.000031 0.000038 0.000035
Al -3.175288 1.777380 4.914114 -0.000153 0.000131 -0.000031
Al -3.170617 1.777826 -5.218081 -0.000136 0.000040 -0.000121
Al -3.173568 1.770679 -0.140970 -0.000010 -0.000271 0.000432
Al -0.025999 -3.691125 4.916523 -0.000042 0.000550 -0.000235
Al -0.031121 -3.674796 -5.202803 0.000180 -0.000059 -0.000160
Al -0.039192 -3.670764 -0.155709 -0.000151 0.000170 0.000409
Ga -1.600603 -0.938919 4.914145 -0.000449 0.000473 0.000014
Al -1.593548 -0.941308 -5.198148 -0.000076 -0.000023 -0.000133
Al -1.592593 -0.943596 -0.158548 -0.000004 0.000211 -0.000275
N 1.550269 0.871747 4.298180 0.000225 -0.000018 -0.000323
N 1.547983 0.869259 -5.809049 0.000187 -0.000099 -0.000203
N 1.550223 0.873555 -0.763150 0.000209 -0.000041 0.000040
N 0.023995 3.564505 4.297531 0.000244 0.000024 -0.000107
N -0.018294 3.587858 -5.810617 -0.000046 -0.000271 0.000207
N 0.016125 3.568141 -0.773898 0.000286 0.000369 -0.000552
N 3.125672 -1.807439 4.303918 -0.000021 0.000204 -0.000475
N 3.081785 -1.872495 -5.822834 -0.000156 -0.000046 -0.000202
N 3.082438 -1.836567 -0.789484 -0.000012 -0.000079 0.000388
N -4.743294 0.871689 4.317021 0.000369 0.000034 0.000220
N -4.749631 0.916856 -5.839206 0.000198 0.000027 -0.000029
N -4.749443 0.924865 -0.768603 0.000454 -0.000072 0.000150
N -6.317993 3.592953 4.301609 0.000131 -0.000227 0.000045
N -6.320111 3.591413 -5.817488 -0.000041 0.000009 -0.000127
N -6.321125 3.591261 -0.762390 -0.000051 -0.000284 0.000089
N -3.205556 -1.885500 4.292293 -0.000779 0.000760 -0.000007
N -3.130225 -1.881099 -5.819443 0.000365 -0.000126 0.000032
N -3.128390 -1.881850 -0.769028 0.000390 -0.000237 0.000194
N -1.595897 0.923557 4.282919 0.000756 -0.000192 0.000115
N -1.597740 0.873221 -5.806995 0.000488 -0.000236 -0.000015
N -1.601606 0.872776 -0.758743 0.000173 -0.000055 0.000091
N -3.214460 3.566167 4.291225 0.000281 -0.000310 -0.000295
N -3.177754 3.592537 -5.801341 -0.000012 -0.000309 0.000112
N -3.211132 3.569724 -0.718371 0.000187 -0.000128 0.000233
N 0.025761 -1.876203 4.350963 -0.000391 -0.001087 -0.000017
N -0.019604 -1.853373 -5.748733 -0.000426 -0.000047 0.000305
N -0.024558 -1.852250 -0.754411 0.000232 -0.000281 0.000095
N -0.018067 1.775983 1.762573 -0.000177 -0.000245 -0.000222
N -0.020023 1.773354 6.838308 -0.000107 0.000220 -0.000027
N -0.024814 1.772965 -3.286358 -0.000310 0.000083 0.000031
N 3.130244 -3.669930 1.853012 0.000247 -0.000692 -0.000802
N 3.126996 -3.676612 6.896665 -0.000087 0.000420 0.000310
N 3.167885 -3.652009 -3.308605 -0.000087 0.000294 0.000223
N 1.598619 -0.920400 1.746727 -0.000292 0.000314 0.000845
N 1.596505 -0.917194 6.822851 0.000112 -0.000034 0.000906
N 1.551443 -0.943858 -3.279201 -0.000478 0.000284 -0.000250
N 3.127294 1.777832 1.777443 -0.000051 -0.000183 -0.000103
N 3.120699 1.778888 6.827976 -0.000115 -0.000250 -0.000092
N 3.120567 1.778373 -3.290874 -0.000125 -0.000134 -0.000176
N 6.276108 -3.673635 1.768381 -0.000113 -0.000028 -0.000351
N 6.274579 -3.673304 6.835208 -0.000032 -0.000014 0.000011
N 6.273019 -3.672735 -3.291800 -0.000118 0.000057 0.000077
N 4.697525 -0.943940 1.828914 0.000805 0.000286 -0.000422
N 4.701633 -0.948065 6.838259 -0.000095 -0.000141 -0.000038
N 4.700847 -0.944832 -3.224923 0.000173 -0.000046 0.000020
N -3.171611 1.770979 1.774912 -0.000172 -0.000106 -0.000255
N -3.166330 1.778011 6.835215 0.000175 -0.000064 -0.000074
N -3.173918 1.725676 -3.310253 0.000772 -0.000113 0.000038
N -0.023446 -3.717852 1.757175 -0.000650 -0.000177 -0.000901
N -0.019755 -3.722149 6.828320 -0.000224 -0.000095 0.000276
N -0.068089 -3.649185 -3.294107 -0.000417 0.000325 0.000248
N -1.634700 -0.922146 1.760329 -0.000383 -0.000208 0.000189
N -1.635688 -0.918295 6.880712 -0.000275 -0.000155 0.000062
N -1.597692 -0.943511 -3.279584 -0.000300 0.000113 0.000007
