108
Energy=-2176132.793430 Lattice="9.607906 0.000000 0.000000 -4.803488 8.320696 0.000000 -0.001073 0.000553 15.572391" Stress="0.000000 0.000000 0.000000 0.000000 0.000000 -0.000000 -0.000000 0.000000 -0.000000" Properties=species:S:1:pos:R:3:forces:R:3
Al 1.580614 0.888128 2.415015 -0.000018 0.000003 0.000072
Al 1.569266 0.896325 7.652437 -0.000016 -0.000011 0.000063
Al 1.580208 0.878562 -2.728533 -0.000011 -0.000008 0.000031
Al -0.018098 3.649044 2.445451 -0.000016 -0.000020 0.000126
Al -0.014906 3.649541 7.649960 0.000003 0.000004 0.000070
Ga -0.025435 3.641460 -2.749752 -0.000003 0.000004 0.000026
Ga 3.180720 -1.875800 2.428962 -0.000033 0.000015 0.000063
Ga 3.193686 -1.884879 7.632497 -0.000007 0.000016 0.000051
Ga 3.165863 -1.876793 -2.719693 0.000009 -0.000014 0.000031
Ga -4.831221 0.883433 2.430859 -0.000018 0.000005 0.000026
Ga -4.826516 0.874063 7.621130 -0.000014 0.000001 0.000002
Al -4.833581 0.892123 -2.709374 -0.000014 -0.000002 0.000040
Ga -6.444159 3.640417 2.430663 0.000017 -0.000013 0.000015
Ga -6.444601 3.654295 7.645700 0.000003 -0.000013 0.000017
Ga -6.417666 3.643738 -2.729554 -0.000021 0.000011 0.000008
Ga -3.242419 -1.890370 2.444653 0.000014 -0.000014 0.000006
Al -3.239913 -1.891007 7.629501 -0.000008 -0.000008 0.000071
Ga -3.224792 -1.880931 -2.724618 0.000001 -0.000006 0.000026
Ga -1.621184 0.901717 2.441794 -0.000033 -0.000026 0.000031
Ga -1.615823 0.893745 7.645051 -0.000004 -0.000009 0.000016
Ga -1.616438 0.892608 -2.742812 -0.000015 -0.000010 0.000002
Ga -3.216605 3.644778 2.442427 -0.000012 0.000018 0.000059
Ga -3.217537 3.650092 7.635198 0.000009 0.000027 0.000006
Al -3.231774 3.653863 -2.724246 -0.000019 0.000020 0.000074
Ga -0.009829 -1.873547 2.435708 0.000016 -0.000006 0.000059
Ga -0.026124 -1.881248 7.643757 -0.000003 -0.000009 0.000036
Al -0.007815 -1.883209 -2.726981 -0.000007 0.000003 0.000087
Ga -0.016904 1.812576 5.035920 -0.000005 -0.000028 0.000034
Al -0.010062 1.808638 -5.341872 0.000004 0.000001 0.000058
Ga -0.007536 1.799629 -0.137562 -0.000007 -0.000006 0.000044
Ga 3.189574 -3.742869 5.037736 -0.000027 0.000017 0.000051
Ga 3.184926 -3.750278 -5.331428 -0.000027 0.000001 0.000021
Ga 3.173538 -3.736206 -0.145958 0.000011 -0.000036 0.000073
Ga 1.589942 -0.947438 5.043152 0.000006 -0.000008 0.000039
Ga 1.570871 -0.944541 -5.318061 -0.000001 -0.000025 0.000022
Al 1.585998 -0.946376 -0.163421 0.000048 -0.000002 -0.000028
Ga 3.181396 1.790664 5.037262 0.000018 -0.000002 0.000041
Ga 3.166839 1.794581 -5.318581 0.000007 0.000004 0.000018
Al 3.184533 1.781122 -0.162701 0.000007 -0.000010 -0.000017
Ga 6.364540 -3.732074 5.055067 0.000033 0.000009 0.000040
Ga 6.371404 -3.739077 -5.354086 0.000008 0.000014 0.000007
Ga 6.377535 -3.739724 -0.137217 0.000010 0.000003 0.000020
Al 4.788059 -0.956794 5.044695 -0.000001 0.000014 0.000060
Ga 4.786868 -0.959823 -5.324010 -0.000005 0.000033 0.000017
Al 4.771146 -0.940216 -0.159261 0.000001 -0.000012 -0.000035
Al -3.230374 1.799185 5.040642 0.000010 -0.000007 0.000079
Ga -3.226087 1.808947 -5.308474 0.000016 0.000011 0.000056
Al -3.244341 1.805011 -0.174895 -0.000007 -0.000005 -0.000014
Ga -0.019005 -3.746912 5.035928 0.000002 -0.000001 0.000042
Ga -0.016404 -3.736087 -5.301041 -0.000012 -0.000018 0.000068
Ga -0.011850 -3.741130 -0.167081 -0.000017 -0.000006 0.000003
Ga -1.643212 -0.955526 5.050018 0.000026 -0.000011 0.000038
Ga -1.625592 -0.962447 -5.329972 -0.000006 0.000010 0.000034
Ga -1.622397 -0.957311 -0.156126 0.000008 -0.000001 -0.000048
N 1.579958 0.884553 4.332572 0.000009 0.000001 -0.000046
N 1.538373 0.908501 -5.999944 0.000001 0.000016 -0.000032
N 1.616536 0.863720 -0.802597 -0.000027 0.000009 -0.000034
N -0.020537 3.655839 4.356271 -0.000001 -0.000004 -0.000055
N -0.025552 3.605980 -5.997146 0.000004 -0.000020 -0.000030
N -0.023788 3.651879 -0.784048 -0.000007 0.000008 -0.000069
N 3.222353 -1.860500 4.422938 0.000029 -0.000000 -0.000061
N 3.178861 -1.885649 -5.955868 0.000018 -0.000006 -0.000017
N 3.178271 -1.840901 -0.733910 -0.000023 0.000015 0.000007
N -4.784931 0.859362 4.430867 0.000016 0.000010 -0.000070
N -4.825510 0.886453 -5.974606 0.000005 -0.000012 -0.000012
N -4.829212 0.885617 -0.779613 0.000005 0.000021 -0.000016
N -6.436288 3.653036 4.412058 0.000002 0.000001 -0.000043
N -6.421006 3.653171 -5.946795 -0.000010 0.000009 -0.000025
N -6.430696 3.604873 -0.749710 0.000006 -0.000006 -0.000003
N -3.271249 -1.866022 4.423689 -0.000019 0.000002 -0.000039
N -3.229944 -1.883004 -6.021494 0.000001 -0.000015 -0.000029
N -3.269442 -1.865589 -0.752305 -0.000008 0.000001 -0.000004
N -1.663821 0.912871 4.427644 -0.000015 0.000007 -0.000042
N -1.586022 0.913263 -5.935173 -0.000008 -0.000010 -0.000043
N -1.658041 0.915450 -0.763291 -0.000006 -0.000009 0.000009
N -3.222233 3.604591 4.424651 -0.000008 -0.000034 -0.000059
N -3.228277 3.653421 -5.963430 -0.000001 -0.000005 -0.000037
N -3.220865 3.610887 -0.810569 0.000006 -0.000003 -0.000061
N -0.020391 -1.881726 4.414115 -0.000010 -0.000005 -0.000031
N -0.020458 -1.890933 -5.956844 0.000011 0.000011 -0.000040
N 0.022634 -1.860565 -0.807154 -0.000013 -0.000015 -0.000023
N 0.020486 1.832631 1.846754 0.000043 0.000037 -0.000068
N 0.022831 1.834533 7.030230 0.000019 0.000027 -0.000038
N 0.028545 1.780566 -3.414396 0.000019 0.000012 -0.000045
N 3.219807 -3.761263 1.836700 0.000033 0.000014 -0.000096
N 3.227307 -3.764906 7.024711 0.000021 -0.000024 -0.000034
N 3.136669 -3.759588 -3.346082 0.000003 -0.000009 -0.000053
N 1.577600 -0.912486 1.762457 -0.000013 0.000003 -0.000033
N 1.579791 -0.908146 7.027545 -0.000005 0.000005 -0.000044
N 1.537649 -0.934552 -3.332000 -0.000005 0.000007 -0.000054
N 3.141613 1.777628 1.764074 -0.000022 -0.000011 -0.000006
N 3.132797 1.780628 7.021075 -0.000017 -0.000005 -0.000020
N 3.178346 1.751907 -3.327613 0.000026 -0.000011 -0.000023
N 6.337417 -3.759971 1.835814 -0.000037 0.000009 -0.000030
N 6.334280 -3.716116 7.049304 -0.000018 0.000021 -0.000047
N 6.383694 -3.735319 -3.377061 -0.000001 -0.000001 -0.000018
N 4.780254 -0.957900 1.750582 0.000020 -0.000007 0.000003
N 4.821309 -0.987871 6.964235 0.000021 -0.000012 -0.000056
N 4.781001 -0.912263 -3.342062 0.000011 0.000001 -0.000029
N -3.230313 1.807736 1.742661 0.000031 0.000013 -0.000001
N -3.223443 1.805597 6.953970 -0.000027 0.000016 -0.000026
N -3.273722 1.831327 -3.321216 -0.000004 0.000009 -0.000048
N -0.021138 -3.737357 1.811103 0.000001 0.000020 -0.000013
N -0.025333 -3.739642 7.008015 -0.000005 0.000004 -0.000039
N 0.020161 -3.711374 -3.311233 0.000026 0.000003 -0.000069
N -1.626525 -0.961833 1.817775 0.000012 0.000029 0.000037
N -1.669123 -0.984332 7.033183 -0.000021 -0.000009 -0.000039
N -1.582288 -0.990356 -3.344878 0.000029 -0.000008 -0.000044
