108
Energy=-1.352174e+06 Lattice="9.505504e+00 0.000000e+00 0.000000e+00 -4.755440e+00 8.230794e+00 0.000000e+00 2.500736e-03 -9.863153e-05 1.533900e+01" Stress="1.689070e-04 -1.789476e-05 7.337479e-05 -1.757871e-05 4.518887e-05 6.076462e-05 9.500831e-05 6.774471e-05 3.317952e-04" Properties=species:S:1:pos:R:3:forces:R:3 Config_type=AlGaN_super3_20_2_19.xyz
Al 1.582129e+00 8.802629e-01 2.408784e+00 -5.910796e-05 -9.494927e-05 1.461352e-04
Al 1.577238e+00 8.717240e-01 7.530248e+00 -4.857071e-05 9.705461e-05 2.003576e-04
Al 1.556921e+00 8.691152e-01 -2.711301e+00 1.867227e-05 3.259303e-05 5.332004e-05
Al -2.705448e-02 3.624863e+00 2.416113e+00 7.860118e-06 2.370934e-06 1.338406e-04
Al -1.271709e-02 3.631909e+00 7.540632e+00 -1.763316e-04 6.053401e-04 3.431191e-04
Al -3.680453e-02 3.613775e+00 -2.725980e+00 -1.191982e-04 -1.736680e-04 7.463619e-05
Al 3.157656e+00 -1.865396e+00 2.380157e+00 1.788242e-04 -8.836985e-04 1.517994e-03
Al 3.147253e+00 -1.868228e+00 7.565967e+00 -2.084370e-04 -7.906931e-05 8.873208e-05
Ga 3.142097e+00 -1.872011e+00 -2.730022e+00 1.944561e-04 4.792331e-05 5.164258e-04
Al -4.795690e+00 8.695611e-01 2.387577e+00 7.935785e-04 1.052102e-03 -6.673783e-04
Al -4.788942e+00 8.747922e-01 7.532058e+00 7.466231e-05 6.492430e-07 8.002228e-06
Al -4.776215e+00 8.725525e-01 -2.693425e+00 -4.782349e-05 1.666800e-04 1.594946e-04
Ga -6.361134e+00 3.597247e+00 2.423036e+00 2.022580e-04 1.779271e-04 4.397928e-04
Al -6.358944e+00 3.622054e+00 7.516680e+00 -1.187605e-05 -1.237679e-04 1.243772e-04
Ga -6.352752e+00 3.613920e+00 -2.717222e+00 -7.122819e-05 -4.358097e-05 3.837317e-04
Ga -3.201634e+00 -1.860652e+00 2.412964e+00 2.992458e-04 -2.978282e-04 4.220143e-04
Al -3.189360e+00 -1.879358e+00 7.538728e+00 2.780178e-04 1.423817e-05 1.795963e-04
Ga -3.189559e+00 -1.856350e+00 -2.723769e+00 -6.461286e-05 -1.580009e-04 6.783868e-04
Ga -1.611600e+00 8.774357e-01 2.400911e+00 3.595649e-04 -2.107003e-04 -2.656177e-04
Ga -1.607197e+00 8.689741e-01 7.538845e+00 1.176957e-04 -1.353803e-04 1.433344e-04
Al -1.606849e+00 8.732858e-01 -2.707486e+00 -1.308338e-04 7.824496e-05 1.855811e-04
Ga -3.188271e+00 3.624929e+00 2.386233e+00 3.846113e-04 -3.852519e-04 3.344996e-04
Al -3.200610e+00 3.634694e+00 7.543215e+00 1.691883e-05 -2.950538e-05 -7.010367e-05
Al -3.187365e+00 3.621331e+00 -2.706716e+00 1.841937e-05 2.227350e-05 1.972101e-04
Ga -2.110878e-02 -1.866425e+00 2.417184e+00 2.118308e-04 -1.295526e-04 7.620072e-04
Al -2.025664e-02 -1.878004e+00 7.539984e+00 9.465374e-05 -2.032775e-04 2.674358e-04
Al -2.020839e-02 -1.863807e+00 -2.731497e+00 -1.515505e-04 -2.521759e-04 8.861993e-05
Ga -2.619209e-03 1.795837e+00 4.975160e+00 -4.425921e-04 4.572115e-04 1.561722e-04
Ga -1.472446e-02 1.792957e+00 -5.244869e+00 -2.876461e-04 8.562293e-05 -4.984876e-05
Ga -2.703728e-02 1.793719e+00 -1.638380e-01 -3.567237e-04 1.180914e-05 2.567831e-04
Ga 3.152575e+00 -3.692361e+00 4.991333e+00 -1.383713e-04 3.489137e-04 4.485357e-04
Al 3.144388e+00 -3.690559e+00 -5.272579e+00 7.035448e-05 -2.973238e-05 -1.850030e-04
Al 3.145325e+00 -3.702382e+00 -1.610478e-01 -2.071168e-04 1.596856e-04 -2.578279e-04
Ga 1.564657e+00 -9.560667e-01 4.982270e+00 -1.896736e-04 3.399065e-04 1.514479e-04
Al 1.553959e+00 -9.675219e-01 -5.269310e+00 -8.589736e-05 -5.108646e-06 -2.122705e-04
Ga 1.562384e+00 -9.609974e-01 -1.576237e-01 -5.880881e-04 2.900613e-04 5.723807e-04
Al 3.149136e+00 1.797468e+00 4.986481e+00 -1.980624e-05 5.416922e-04 5.421700e-05
Ga 3.146395e+00 1.784840e+00 -5.269589e+00 3.393974e-05 1.103009e-04 5.419632e-04
Al 3.161153e+00 1.778976e+00 -1.588772e-01 -1.670237e-05 4.672448e-05 -3.510753e-04
Al 6.329251e+00 -3.697930e+00 4.993836e+00 -6.748311e-04 -3.456446e-04 5.276421e-05
Al 6.314712e+00 -3.685810e+00 -5.281643e+00 -5.439924e-05 -1.125962e-04 -4.516717e-04
Ga 6.311348e+00 -3.694762e+00 -1.536537e-01 1.295415e-04 1.065716e-05 8.310735e-04
Ga 4.733697e+00 -9.509340e-01 4.984994e+00 -1.734354e-04 1.112271e-04 1.555080e-04
Al 4.732156e+00 -9.624510e-01 -5.282888e+00 -4.854307e-05 4.144784e-05 -1.663198e-04
Al 4.731641e+00 -9.390780e-01 -1.460039e-01 7.105116e-07 1.380199e-04 -5.498865e-04
Ga -3.214369e+00 1.793688e+00 4.982335e+00 1.964858e-04 1.483521e-04 1.518629e-04
Ga -3.203242e+00 1.795626e+00 -5.241438e+00 -1.447431e-04 1.736475e-04 5.275087e-04
Al -3.205802e+00 1.788064e+00 -1.860998e-01 -9.050163e-05 8.375675e-05 -7.182537e-06
Al -3.788284e-02 -3.695256e+00 5.006596e+00 1.582033e-04 -1.158660e-04 6.285363e-04
Al -1.933727e-02 -3.681264e+00 -5.274016e+00 1.456115e-04 -1.387058e-04 -2.271731e-04
Al -1.436486e-02 -3.697695e+00 -1.790097e-01 -9.564267e-05 3.828394e-05 -4.700604e-04
Al -1.606789e+00 -9.742256e-01 5.002258e+00 -6.202870e-05 1.550507e-04 5.959417e-04
Al -1.603327e+00 -9.763855e-01 -5.260752e+00 3.539353e-05 -1.499769e-04 -1.281268e-05
Al -1.608788e+00 -9.528832e-01 -1.800460e-01 1.514132e-04 -1.632192e-04 -3.935142e-04
N 1.611968e+00 8.989798e-01 4.326098e+00 1.932411e-04 -3.063942e-04 -2.566698e-04
N 1.560391e+00 8.268538e-01 -5.904535e+00 1.540805e-05 -1.557548e-04 -3.015309e-04
N 1.601767e+00 8.952006e-01 -8.033029e-01 4.506162e-04 -1.652958e-04 -1.460843e-04
N 1.611454e-02 3.649832e+00 4.331561e+00 4.576526e-04 1.215538e-04 -1.931320e-04
N -2.322663e-02 3.664304e+00 -5.886681e+00 -2.510210e-05 2.099350e-04 6.562607e-05
N -6.578576e-02 3.645775e+00 -8.181658e-01 -1.420671e-05 6.728227e-05 -2.453336e-04
N 3.151697e+00 -1.870556e+00 4.296870e+00 9.490546e-05 -1.414340e-04 -9.608476e-04
N 3.142648e+00 -1.868913e+00 -5.853549e+00 8.203296e-05 -2.173516e-05 -2.383630e-04
N 3.190230e+00 -1.892452e+00 -7.458636e-01 3.763670e-04 -1.885262e-04 2.754993e-07
N -4.821695e+00 8.985878e-01 4.309057e+00 -6.469755e-05 -2.012124e-04 2.010086e-04
N -4.775405e+00 8.321698e-01 -5.909779e+00 5.405515e-05 -2.847604e-04 -1.870392e-04
N -4.780716e+00 8.685798e-01 -7.736750e-01 7.895678e-05 -1.391335e-04 -1.604806e-04
N -6.357444e+00 3.618654e+00 4.423085e+00 2.930545e-04 -5.637347e-04 -2.113941e-04
N -6.358980e+00 3.664514e+00 -5.896010e+00 -4.859008e-05 3.276683e-04 -5.373383e-06
N -6.322378e+00 3.593580e+00 -7.410349e-01 1.750150e-04 -1.246394e-04 6.401869e-05
N -3.149658e+00 -1.890312e+00 4.398234e+00 9.271792e-05 1.609725e-04 -4.745277e-04
N -3.187043e+00 -1.869279e+00 -5.874396e+00 2.386069e-05 1.356285e-04 -2.467823e-04
N -3.197227e+00 -1.821131e+00 -7.446836e-01 -1.185528e-04 2.892777e-04 -2.350223e-04
N -1.611894e+00 8.265604e-01 4.386358e+00 3.702072e-04 -6.007174e-04 -1.559336e-04
N -1.610347e+00 8.276940e-01 -5.835850e+00 1.009837e-04 -6.269777e-05 -2.228570e-04
N -1.648543e+00 8.518944e-01 -7.885826e-01 2.981312e-04 2.939508e-06 -1.066242e-04
N -3.236112e+00 3.651690e+00 4.368825e+00 -2.058500e-04 3.665679e-05 -5.607046e-04
N -3.196470e+00 3.665531e+00 -5.884182e+00 -1.535211e-04 8.901955e-05 3.804886e-05
N -3.189278e+00 3.625602e+00 -7.755488e-01 1.808018e-04 -1.628655e-04 -1.246708e-04
N -6.413452e-02 -1.893872e+00 4.400539e+00 4.531665e-05 -2.158011e-04 -6.059199e-04
N -2.611052e-02 -1.869731e+00 -5.877107e+00 1.668998e-04 8.763047e-05 -1.366430e-04
N -6.186714e-02 -1.891447e+00 -8.094835e-01 -2.159880e-05 1.171271e-04 -1.915938e-05
N 2.131123e-02 1.814715e+00 1.826703e+00 -1.367735e-04 1.041954e-04 -1.888676e-04
N 2.297334e-02 1.818084e+00 6.954128e+00 1.105139e-04 -3.434841e-04 -4.047284e-05
N -2.180201e-02 1.787213e+00 -3.264237e+00 7.610495e-06 1.998005e-04 2.146062e-04
N 3.192978e+00 -3.679370e+00 1.762016e+00 -2.974523e-05 3.350072e-04 2.999783e-06
N 3.149966e+00 -3.692938e+00 6.977851e+00 8.863978e-05 -8.776746e-05 -1.573700e-04
N 3.142530e+00 -3.748066e+00 -3.356761e+00 2.871430e-05 -1.966063e-04 6.021683e-05
N 1.599223e+00 -9.311853e-01 1.827460e+00 -6.881450e-04 5.134551e-04 -1.012403e-03
N 1.567659e+00 -9.593168e-01 6.971424e+00 7.636829e-05 -3.662169e-05 -1.124651e-04
N 1.520010e+00 -9.310478e-01 -3.348531e+00 -7.647951e-05 1.735852e-04 1.820506e-04
N 3.144886e+00 1.743694e+00 1.758991e+00 -6.507189e-05 -5.385742e-05 1.076710e-04
N 3.147446e+00 1.788106e+00 6.914619e+00 -4.566242e-05 3.110022e-06 -3.162001e-04
N 3.146722e+00 1.738963e+00 -3.297179e+00 8.612604e-05 -2.566617e-04 -1.604199e-04
N 6.279142e+00 -3.721426e+00 1.817486e+00 -1.845644e-04 -1.121712e-04 -8.168318e-04
N 6.314985e+00 -3.697279e+00 6.921512e+00 -8.096259e-05 8.718293e-05 -4.379190e-04
N 6.276547e+00 -3.720884e+00 -3.366379e+00 -1.251600e-04 -9.910648e-05 2.080388e-06
N 4.693977e+00 -9.271857e-01 1.771782e+00 7.617495e-05 -2.259140e-05 -1.651096e-04
N 4.727584e+00 -9.571885e-01 6.974012e+00 1.086531e-04 -9.255587e-05 -2.863390e-05
N 4.730069e+00 -9.026353e-01 -3.373484e+00 -1.286731e-04 1.712776e-04 -3.416499e-05
N -3.234940e+00 1.767476e+00 1.739133e+00 -9.508130e-04 -4.470419e-04 4.428877e-04
N -3.236340e+00 1.817778e+00 6.958159e+00 -7.098476e-05 9.244475e-05 -1.590731e-04
N -3.199028e+00 1.792320e+00 -3.254855e+00 1.688692e-04 -1.498962e-04 1.642845e-04
N -2.686212e-02 -3.693937e+00 1.728436e+00 -1.479675e-04 1.010719e-04 -1.258942e-04
N -1.896049e-02 -3.695622e+00 6.928046e+00 -5.413693e-05 1.406120e-04 -3.169966e-04
N 2.283460e-02 -3.675210e+00 -3.351442e+00 1.908025e-04 2.302997e-04 1.168700e-04
N -1.602917e+00 -9.552688e-01 1.726143e+00 -1.970574e-04 1.587619e-04 -2.989519e-05
N -1.604308e+00 -1.006180e+00 6.914727e+00 -3.863554e-04 -2.502019e-05 -3.654272e-05
N -1.565241e+00 -9.326056e-01 -3.346423e+00 1.213649e-04 -2.692283e-05 3.611454e-05
