108
Energy=-2.771208e+06 Lattice="9.483218e+00 0.000000e+00 0.000000e+00 -4.742407e+00 8.211022e+00 0.000000e+00 -9.489490e-04 6.164377e-04 1.527698e+01" Stress="-1.003488e-01 7.196588e-03 -2.943120e-05 7.191663e-03 -9.259168e-02 -1.042536e-04 -3.495841e-05 -1.052726e-04 -9.956311e-02" Properties=species:S:1:pos:R:3:forces:R:3 Config_type=AlGaN_super3_51_1_1.xyz
Al 1.564858e+00 9.025249e-01 2.479048e+00 -1.631089e-03 -1.409118e-02 -1.030497e-02
Ga 1.564467e+00 9.031673e-01 7.499753e+00 -2.249748e-03 -1.797756e-02 -5.208784e-03
Ga 1.566269e+00 9.017595e-01 -2.753816e+00 -2.091753e-03 -1.816796e-02 -5.235598e-03
Ga -1.384011e-03 3.615308e+00 2.478102e+00 -2.989750e-03 -2.045430e-03 -1.007309e-02
Al -1.503430e-03 3.614723e+00 7.499573e+00 -3.023981e-03 -1.216898e-03 -1.883919e-03
Ga -5.302370e-04 3.614951e+00 -2.753746e+00 -3.098405e-03 -1.475356e-03 -2.143120e-03
Ga 3.174760e+00 -1.884647e+00 2.471496e+00 -3.549287e-03 1.667725e-03 -9.795509e-03
Ga 3.175216e+00 -1.884899e+00 7.499659e+00 -3.110615e-03 1.582341e-03 -2.717049e-03
Ga 3.176068e+00 -1.885420e+00 -2.750392e+00 -3.304941e-03 1.931466e-03 -2.213242e-03
Ga -4.787507e+00 9.033126e-01 2.471999e+00 4.485673e-04 -1.645433e-02 -1.051160e-02
Ga -4.787220e+00 9.032369e-01 7.499853e+00 7.895204e-04 -1.686754e-02 -3.769416e-03
Ga -4.786229e+00 9.025097e-01 -2.750330e+00 7.928586e-04 -1.672500e-02 -3.371739e-03
Ga -6.353170e+00 3.614698e+00 2.472337e+00 -4.274472e-04 -3.493206e-04 -7.178846e-03
Ga -6.353014e+00 3.614869e+00 7.499447e+00 -4.109322e-04 2.709769e-04 -9.019054e-04
Ga -6.352073e+00 3.614144e+00 -2.750519e+00 -1.764217e-04 6.197738e-05 -2.537003e-04
Ga -3.176495e+00 -1.884641e+00 2.471655e+00 -2.777668e-04 3.090489e-03 -8.512908e-03
Ga -3.176707e+00 -1.884638e+00 7.499771e+00 -4.905472e-04 3.068807e-03 -1.662466e-03
Ga -3.175624e+00 -1.885145e+00 -2.750343e+00 -3.711093e-04 3.394934e-03 -1.303678e-03
Ga -1.656321e+00 9.028243e-01 2.478312e+00 1.672589e-02 -8.677696e-03 -1.447584e-02
Ga -1.655804e+00 9.036222e-01 7.499891e+00 1.620117e-02 -9.003590e-03 -7.255503e-03
Ga -1.655650e+00 9.022369e-01 -2.753533e+00 1.611439e-02 -9.175122e-03 -7.394331e-03
Ga -3.221717e+00 3.615026e+00 2.472312e+00 1.520535e-02 7.656258e-03 -1.003938e-02
Ga -3.221593e+00 3.615085e+00 7.499507e+00 1.511003e-02 7.932981e-03 -4.131952e-03
Ga -3.220594e+00 3.614339e+00 -2.750476e+00 1.496804e-02 7.689564e-03 -3.420100e-03
Ga -4.508524e-02 -1.884343e+00 2.472119e+00 1.491115e-02 1.098078e-02 -1.115877e-02
Ga -4.499898e-02 -1.884577e+00 7.499376e+00 1.478771e-02 1.079449e-02 -5.354297e-03
Ga -4.404550e-02 -1.885001e+00 -2.750361e+00 1.478390e-02 1.090052e-02 -4.385363e-03
Ga -1.239436e-03 1.806859e+00 4.988333e+00 -1.460953e-02 -1.116839e-02 -5.830817e-03
Ga -3.274957e-04 1.806133e+00 -5.265478e+00 -1.476347e-02 -1.079153e-02 -5.431078e-03
Ga -4.106904e-04 1.805738e+00 -2.538748e-01 -1.484766e-02 -1.102086e-02 4.163597e-02
Ga 3.174923e+00 -3.692208e+00 4.987314e+00 -1.551877e-02 -7.755532e-03 -3.545423e-03
Ga 3.176045e+00 -3.693127e+00 -5.264828e+00 -1.492878e-02 -7.848171e-03 -4.211670e-03
Ga 3.176727e+00 -3.694038e+00 -2.359700e-01 -1.509240e-02 -7.611732e-03 3.896634e-02
Ga 1.609549e+00 -9.817156e-01 4.986957e+00 -1.628273e-02 8.982560e-03 -7.669913e-03
Ga 1.610398e+00 -9.820727e-01 -5.264489e+00 -1.606925e-02 9.229979e-03 -7.148596e-03
Ga 1.610122e+00 -9.812277e-01 -2.355601e-01 -1.605386e-02 9.102839e-03 3.548451e-02
Ga 3.130786e+00 1.806984e+00 4.986920e+00 3.073410e-04 -2.991231e-03 -2.157238e-03
Ga 3.131445e+00 1.806345e+00 -5.264620e+00 3.829756e-04 -3.340737e-03 -1.651463e-03
Ga 3.130326e+00 1.805933e+00 -2.364042e-01 3.560725e-04 -3.432814e-03 4.145462e-02
Ga 6.307030e+00 -3.692003e+00 4.987305e+00 8.075275e-04 -1.296504e-04 -3.962074e-04
Ga 6.307857e+00 -3.692934e+00 -5.264835e+00 1.273271e-04 -2.414749e-04 -9.310095e-04
Ga 6.307157e+00 -3.693856e+00 -2.361348e-01 2.418171e-04 -9.566119e-05 4.251286e-02
Ga 4.740865e+00 -9.809541e-01 4.986292e+00 -7.516137e-04 1.679076e-02 -3.780904e-03
Ga 4.741849e+00 -9.815876e-01 -5.263957e+00 -8.248339e-04 1.684286e-02 -3.771467e-03
Ga 4.741844e+00 -9.817482e-01 -2.339949e-01 -9.000173e-04 1.673193e-02 3.838564e-02
Ga -3.222047e+00 1.807265e+00 4.987078e+00 3.135779e-03 -1.441463e-03 -2.789708e-03
Ga -3.220639e+00 1.806612e+00 -5.264639e+00 3.179672e-03 -1.879941e-03 -2.658445e-03
Ga -3.219555e+00 1.806282e+00 -2.364256e-01 3.259502e-03 -1.864893e-03 4.027472e-02
Al -4.482640e-02 -3.692180e+00 4.985873e+00 2.990690e-03 1.284817e-03 -1.821531e-03
Ga -4.383442e-02 -3.692788e+00 -5.264188e+00 3.058329e-03 1.284429e-03 -1.514298e-03
Ga -4.381695e-02 -3.692957e+00 -2.343854e-01 3.163980e-03 1.386630e-03 4.075016e-02
Ga -1.610887e+00 -9.813375e-01 4.987098e+00 2.324889e-03 1.790625e-02 -5.192093e-03
Ga -1.609705e+00 -9.815876e-01 -5.264525e+00 2.038566e-03 1.817535e-02 -4.877751e-03
Ga -1.609402e+00 -9.807618e-01 -2.358205e-01 2.060736e-03 1.802115e-02 3.793982e-02
N 1.565204e+00 9.025280e-01 4.392275e+00 -1.172467e-03 -1.723471e-02 -1.711437e-02
N 1.565512e+00 9.023341e-01 -5.860835e+00 -1.180706e-03 -1.750392e-02 4.786833e-03
N 1.566235e+00 9.016913e-01 -8.389253e-01 -9.465159e-04 -1.725197e-02 8.273896e-03
N -1.473806e-03 3.615706e+00 4.392891e+00 -2.396809e-03 3.222250e-04 1.918913e-03
N -5.100945e-04 3.614161e+00 -5.861804e+00 -2.164425e-03 1.563513e-04 -2.186401e-02
N -5.307589e-04 3.614879e+00 -8.386649e-01 -2.182584e-03 2.776673e-04 4.880188e-03
N 3.175146e+00 -1.884746e+00 4.389648e+00 -2.630785e-03 1.633189e-03 2.099931e-04
N 3.176057e+00 -1.885391e+00 -5.860688e+00 -2.810990e-03 1.839616e-03 5.224781e-04
N 3.175877e+00 -1.885641e+00 -8.321143e-01 -2.738427e-03 1.718469e-03 3.122514e-03
N -4.787248e+00 9.030779e-01 4.389774e+00 5.488696e-04 -1.744545e-02 4.765494e-03
N -4.786254e+00 9.025814e-01 -5.860614e+00 4.308500e-04 -1.726483e-02 4.921215e-03
N -4.786247e+00 9.026781e-01 -8.323842e-01 3.700338e-04 -1.697349e-02 7.505842e-03
N -6.352326e+00 3.615303e+00 4.390221e+00 1.786663e-02 1.118004e-02 8.850486e-03
N -6.351859e+00 3.614298e+00 -5.860785e+00 -4.806982e-04 4.235374e-04 1.150142e-03
N -6.352154e+00 3.614033e+00 -8.325856e-01 -5.815724e-04 3.032776e-04 4.065168e-03
N -3.176697e+00 -1.884531e+00 4.389757e+00 -1.390767e-03 2.080540e-03 5.743851e-04
N -3.175622e+00 -1.885156e+00 -5.860624e+00 -1.125844e-03 2.157355e-03 9.166351e-04
N -3.175452e+00 -1.885401e+00 -8.321425e-01 -1.190567e-03 1.971690e-03 3.381467e-03
N -1.656657e+00 9.028779e-01 4.393054e+00 1.603674e-02 -9.442551e-03 9.660236e-03
N -1.654898e+00 9.027878e-01 -5.860787e+00 1.614908e-02 -9.472993e-03 8.905505e-03
N -1.655537e+00 9.022133e-01 -8.385950e-01 1.608332e-02 -9.219988e-03 1.208519e-02
N -3.222361e+00 3.615487e+00 4.390164e+00 -3.075044e-03 1.891722e-02 1.246503e-02
N -3.220777e+00 3.614529e+00 -5.860797e+00 1.504352e-02 8.311004e-03 4.887037e-03
N -3.220482e+00 3.614292e+00 -8.326781e-01 1.494614e-02 8.175271e-03 7.355751e-03
N -4.512238e-02 -1.885321e+00 4.389984e+00 1.425993e-02 -1.137718e-02 1.203457e-02
N -4.403971e-02 -1.885213e+00 -5.860808e+00 1.441484e-02 9.874198e-03 4.489973e-03
N -4.403033e-02 -1.885047e+00 -8.324626e-01 1.435391e-02 9.708919e-03 7.107862e-03
N -3.638629e-04 1.805766e+00 1.894575e+00 3.501956e-03 -2.061296e-02 -3.054224e-02
N -1.235699e-03 1.807625e+00 6.904459e+00 -1.430375e-02 1.131879e-02 1.210599e-02
N -2.726593e-04 1.806103e+00 -3.349338e+00 -1.442541e-02 -9.777295e-03 4.871529e-03
N 3.175571e+00 -3.693410e+00 1.876097e+00 -1.500632e-02 -7.966285e-03 -3.331833e-02
N 3.175780e+00 -3.692920e+00 6.903917e+00 3.217531e-03 -1.899293e-02 1.242721e-02
N 3.175989e+00 -3.692916e+00 -3.348067e+00 -1.525398e-02 -8.283670e-03 4.745751e-03
N 1.608882e+00 -9.791825e-01 1.876694e+00 -1.645639e-02 2.660324e-02 -2.359402e-02
N 1.609458e+00 -9.813718e-01 6.903461e+00 -1.603536e-02 9.599281e-03 8.819907e-03
N 1.610592e+00 -9.822231e-01 -3.347896e+00 -1.625575e-02 9.177904e-03 8.651672e-03
N 3.128273e+00 1.806215e+00 1.877275e+00 -1.706838e-02 -1.269618e-02 -3.051785e-02
N 3.130467e+00 1.806972e+00 6.903569e+00 1.261785e-03 -2.210040e-03 7.334566e-04
N 3.131719e+00 1.806254e+00 -3.347926e+00 1.259589e-03 -1.814937e-03 7.247945e-04
N 6.306221e+00 -3.693164e+00 1.876307e+00 5.613333e-04 3.305766e-05 -3.755033e-02
N 6.306172e+00 -3.692683e+00 6.903959e+00 -1.801173e-02 -1.113603e-02 8.763764e-03
N 6.307924e+00 -3.692701e+00 -3.347993e+00 7.296496e-04 -3.821614e-04 1.002644e-03
N 4.740814e+00 -9.809230e-01 1.874028e+00 -3.292154e-04 1.719027e-02 -3.323350e-02
N 4.740900e+00 -9.809214e-01 6.903279e+00 -4.298514e-04 1.739989e-02 4.670860e-03
N 4.741868e+00 -9.815832e-01 -3.346856e+00 -4.083820e-04 1.712156e-02 4.829961e-03
N -3.220614e+00 1.806984e+00 1.876368e+00 2.851511e-03 -2.128625e-03 -3.833007e-02
N -3.221645e+00 1.807224e+00 6.903662e+00 2.783767e-03 -1.836951e-03 4.133955e-04
N -3.220883e+00 1.806472e+00 -3.347892e+00 2.744378e-03 -1.498540e-03 2.840432e-04
N -4.489730e-02 -3.692345e+00 1.874046e+00 2.229476e-03 1.721571e-04 -3.714205e-02
N -4.483941e-02 -3.692231e+00 6.902175e+00 2.218909e-03 -2.810990e-04 -2.202486e-02
N -4.386938e-02 -3.692866e+00 -3.346916e+00 2.271994e-03 -7.855719e-05 6.201766e-04
N -1.610453e+00 -9.800888e-01 1.876007e+00 1.045283e-03 1.739959e-02 -3.399158e-02
N -1.610753e+00 -9.809751e-01 6.903596e+00 1.109134e-03 1.766426e-02 4.856388e-03
N -1.609920e+00 -9.817581e-01 -3.347800e+00 1.335474e-03 1.723099e-02 4.496892e-03
