108
Energy=-1.764153e+06 Lattice="9.556551e+00 0.000000e+00 0.000000e+00 -4.780311e+00 8.278298e+00 0.000000e+00 -4.891043e-04 -8.686464e-03 1.544852e+01" Stress="3.147897e-04 -1.250336e-04 2.401599e-05 -1.317983e-04 5.933478e-04 -2.970713e-04 2.776074e-05 -3.092613e-04 -7.736577e-04" Properties=species:S:1:pos:R:3:forces:R:3 Config_type=AlGaN_super3_29_1_49.xyz
Al 1.578120e+00 8.677896e-01 2.398994e+00 7.765193e-05 -6.491446e-05 1.141219e-04
Al 1.549598e+00 8.868096e-01 7.581346e+00 4.514038e-05 -1.965067e-05 1.575522e-04
Al 1.569261e+00 8.922707e-01 -2.700007e+00 6.395471e-05 -3.284940e-05 1.728405e-04
Al -2.028681e-02 3.651050e+00 2.426137e+00 1.171916e-04 1.742277e-04 4.102129e-04
Al -1.843389e-02 3.627038e+00 7.561856e+00 -1.174030e-04 2.089417e-04 -2.257272e-04
Al -1.361763e-02 3.636645e+00 -2.711947e+00 -5.387752e-05 4.029040e-05 8.019183e-05
Al 3.152182e+00 -1.883297e+00 2.406330e+00 9.292457e-05 5.814252e-06 -2.269358e-04
Ga 3.173196e+00 -1.890683e+00 7.564908e+00 -1.999883e-05 6.068787e-05 1.488062e-04
Ga 3.173421e+00 -1.871830e+00 -2.689660e+00 -7.201272e-05 3.942107e-05 8.779972e-05
Al -4.817880e+00 8.786567e-01 2.431114e+00 -2.652160e-05 -1.871615e-04 2.537926e-05
Ga -4.796020e+00 8.703042e-01 7.564815e+00 7.058811e-05 2.292050e-06 1.674093e-04
Al -4.811068e+00 8.750659e-01 -2.706537e+00 4.809112e-05 -2.559240e-06 4.412368e-05
Ga -6.412584e+00 3.630875e+00 2.398971e+00 -2.116388e-05 -4.193264e-05 1.347020e-04
Ga -6.417890e+00 3.638086e+00 7.577058e+00 -2.479214e-06 5.889213e-05 1.772802e-04
Ga -6.403026e+00 3.637194e+00 -2.694588e+00 -2.060334e-05 2.585725e-05 9.935901e-05
Ga -3.209731e+00 -1.894694e+00 2.438806e+00 -1.742599e-04 4.197893e-05 9.168790e-05
Al -3.199575e+00 -1.886213e+00 7.553106e+00 2.053377e-05 2.658879e-05 1.026598e-04
Al -3.210962e+00 -1.876925e+00 -2.712601e+00 -2.765189e-05 4.381854e-05 1.083862e-04
Ga -1.610064e+00 8.759674e-01 2.446805e+00 2.797391e-05 -8.791004e-06 3.762658e-04
Al -1.605955e+00 8.699061e-01 7.568014e+00 -7.463237e-05 -1.887077e-05 1.168726e-04
Ga -1.605368e+00 8.807334e-01 -2.739486e+00 9.836552e-05 -5.912367e-05 2.373976e-04
Ga -3.194510e+00 3.647109e+00 2.425597e+00 -4.006375e-05 -1.543888e-05 2.059060e-04
Ga -3.190730e+00 3.628100e+00 7.557989e+00 -3.294918e-05 1.206082e-05 3.947566e-05
Ga -3.209643e+00 3.644399e+00 -2.693824e+00 4.671556e-05 -6.130578e-05 1.937800e-04
Al -8.382823e-03 -1.869803e+00 2.419540e+00 -2.357431e-06 -2.680477e-05 1.314198e-04
Ga -4.002940e-02 -1.864902e+00 7.586071e+00 8.595729e-06 -1.052293e-04 1.242740e-04
Ga -2.945211e-02 -1.873293e+00 -2.718428e+00 2.392764e-05 -5.992626e-05 2.004994e-04
Ga -2.821796e-02 1.809013e+00 4.998946e+00 -6.934035e-05 2.066266e-04 1.036635e-04
Al -2.076680e-02 1.800761e+00 -5.311844e+00 -5.747496e-05 -6.567346e-05 6.465858e-05
Ga -1.886366e-03 1.818081e+00 -1.349118e-01 -7.465897e-05 3.290545e-05 -9.619583e-05
Al 3.179602e+00 -3.726626e+00 4.982924e+00 2.076009e-04 -6.236327e-04 -8.338874e-05
Ga 3.170589e+00 -3.731979e+00 -5.289506e+00 -9.889137e-05 7.207677e-05 6.678890e-05
Al 3.173809e+00 -3.715096e+00 -1.343387e-01 -4.490858e-05 3.112442e-07 6.148997e-05
Ga 1.564559e+00 -9.651897e-01 4.978844e+00 -1.364540e-04 4.846185e-05 2.485244e-04
Ga 1.553211e+00 -9.435119e-01 -5.290374e+00 -1.124832e-04 3.805108e-05 1.743711e-04
Al 1.571570e+00 -9.621198e-01 -1.299017e-01 -9.393800e-05 5.425640e-05 1.817997e-04
Ga 3.156934e+00 1.798199e+00 4.987053e+00 -1.359734e-05 6.082060e-06 1.435226e-04
Ga 3.147414e+00 1.803807e+00 -5.277765e+00 6.158386e-05 -1.163644e-05 1.824281e-04
Al 3.159573e+00 1.795355e+00 -1.471643e-01 -2.633788e-04 -2.193350e-04 8.156156e-05
Al 6.333235e+00 -3.716764e+00 5.009237e+00 -6.374061e-05 -1.155022e-05 -1.335409e-05
Ga 6.345900e+00 -3.707686e+00 -5.293793e+00 6.024674e-05 6.088866e-05 1.317417e-04
Al 6.340971e+00 -3.723742e+00 -1.615716e-01 -7.232010e-05 -3.650334e-05 7.763542e-06
Ga 4.763988e+00 -9.709209e-01 4.977531e+00 1.418299e-05 -3.358221e-05 1.170393e-05
Ga 4.779131e+00 -9.597063e-01 -5.282115e+00 -5.540734e-05 -6.441241e-05 1.573302e-04
Ga 4.749055e+00 -9.592659e-01 -1.324963e-01 -6.863397e-05 -3.185946e-05 4.210868e-04
Al -3.200690e+00 1.791005e+00 5.000515e+00 5.320914e-05 -4.712152e-06 1.616315e-04
Ga -3.197276e+00 1.802485e+00 -5.294131e+00 6.485752e-05 -3.604925e-06 1.738567e-04
Ga -3.226426e+00 1.809453e+00 -1.426737e-01 1.560280e-04 -6.452450e-05 -1.307618e-04
Ga -2.467888e-02 -3.713937e+00 4.976883e+00 5.034619e-05 -5.678980e-05 1.246794e-04
Al -2.651292e-02 -3.708867e+00 -5.293776e+00 3.207806e-05 -2.097879e-05 1.635266e-04
Al -2.122799e-02 -3.711158e+00 -1.231429e-01 6.313593e-05 6.088918e-06 -3.461272e-06
Al -1.619610e+00 -9.646348e-01 5.007297e+00 -7.200419e-05 -8.047583e-06 2.013675e-04
Al -1.618795e+00 -9.564450e-01 -5.309193e+00 -1.897621e-05 3.684521e-06 9.779761e-05
Ga -1.606634e+00 -9.793621e-01 -1.416307e-01 6.858032e-06 -3.908401e-06 -1.078352e-04
N 1.565496e+00 8.774924e-01 4.306864e+00 1.410747e-04 5.040292e-05 -1.986669e-04
N 1.528342e+00 9.093790e-01 -5.954269e+00 7.488387e-05 1.693061e-05 -1.937148e-04
N 1.606499e+00 8.544023e-01 -7.724824e-01 1.478413e-04 1.035448e-04 -2.716192e-05
N -1.740833e-02 3.686543e+00 4.351249e+00 -4.396010e-04 1.796518e-04 -5.732884e-05
N -2.068167e-02 3.596016e+00 -5.964822e+00 -2.541500e-05 8.187780e-05 -3.773607e-04
N -2.654402e-02 3.684238e+00 -7.926958e-01 6.955051e-06 -3.867370e-05 -3.197060e-05
N 3.156926e+00 -1.933111e+00 4.328431e+00 3.896410e-06 -5.711571e-05 3.169395e-04
N 3.165254e+00 -1.876936e+00 -5.909449e+00 5.724389e-07 -8.252483e-06 -1.014178e-04
N 3.121140e+00 -1.902420e+00 -7.108112e-01 5.875141e-05 -5.688306e-06 -3.964905e-05
N -4.763321e+00 9.055388e-01 4.346786e+00 7.079408e-05 8.984261e-05 -5.247820e-05
N -4.803719e+00 8.850204e-01 -5.917569e+00 1.102764e-05 4.681624e-05 -1.612646e-04
N -4.844974e+00 9.013398e-01 -7.974177e-01 2.313280e-05 1.504296e-05 -9.776407e-05
N -6.447285e+00 3.662526e+00 4.380188e+00 3.372152e-05 -3.258777e-05 -1.524727e-04
N -6.360144e+00 3.665233e+00 -5.893112e+00 -3.586449e-05 1.690009e-05 -2.039110e-04
N -6.390984e+00 3.640243e+00 -6.977584e-01 1.356966e-04 4.909408e-05 -8.289375e-05
N -3.160836e+00 -1.913527e+00 4.413685e+00 -2.013589e-05 7.212167e-05 -4.281263e-05
N -3.164542e+00 -1.855021e+00 -5.972385e+00 -1.838967e-05 -1.325498e-05 -1.803958e-04
N -3.207582e+00 -1.922280e+00 -7.965679e-01 1.436973e-05 4.909845e-05 -9.277141e-05
N -1.653553e+00 8.504059e-01 4.423495e+00 8.948814e-05 8.710123e-07 -2.952045e-04
N -1.572262e+00 8.588284e-01 -5.937422e+00 1.050152e-04 -2.303143e-05 -1.527149e-04
N -1.608421e+00 8.822255e-01 -7.657554e-01 6.993398e-05 -6.073634e-06 -3.165556e-04
N -3.163492e+00 3.610988e+00 4.410068e+00 2.093850e-04 3.135696e-04 5.963596e-05
N -3.248017e+00 3.667243e+00 -5.910597e+00 3.446813e-05 -3.767627e-05 -1.369813e-04
N -3.209084e+00 3.694632e+00 -7.117435e-01 -4.176563e-05 -1.066146e-05 -1.446705e-04
N -6.623586e-02 -1.852522e+00 4.335599e+00 4.955942e-05 -4.656873e-05 -1.994876e-04
N -6.625038e-02 -1.897150e+00 -5.880026e+00 3.130427e-05 -5.321528e-05 -1.207954e-04
N 2.239390e-02 -1.904599e+00 -7.371968e-01 3.018984e-05 -3.736332e-05 -1.826563e-04
N 1.789405e-02 1.829764e+00 1.846735e+00 -2.665528e-06 -1.549942e-04 9.358860e-05
N -2.378373e-02 1.797157e+00 6.990951e+00 -5.574393e-06 -1.422925e-04 1.657533e-04
N 2.697933e-02 1.829706e+00 -3.369354e+00 -4.233120e-05 6.008154e-05 -8.300847e-05
N 3.213056e+00 -3.700980e+00 1.785514e+00 -6.964659e-05 5.992676e-05 -9.526061e-05
N 3.213150e+00 -3.747337e+00 6.903275e+00 8.287386e-06 5.351741e-05 -2.017117e-04
N 3.208132e+00 -3.742195e+00 -3.314799e+00 1.992883e-05 1.607125e-05 -1.593348e-04
N 1.568747e+00 -9.608898e-01 1.801089e+00 -1.847650e-04 6.732266e-05 -1.948420e-04
N 1.568619e+00 -9.145644e-01 6.963199e+00 -1.037138e-04 4.233633e-05 -2.064321e-04
N 1.572544e+00 -9.040893e-01 -3.314863e+00 -8.243953e-05 4.906612e-05 -1.910829e-04
N 3.163831e+00 1.745500e+00 1.776374e+00 4.830170e-05 1.173322e-04 -1.251616e-04
N 3.114916e+00 1.769581e+00 6.963372e+00 5.382907e-05 -4.184424e-05 -1.614435e-04
N 3.156862e+00 1.755403e+00 -3.294536e+00 1.980870e-05 -4.791025e-05 -1.029444e-04
N 6.299142e+00 -3.740474e+00 1.749832e+00 1.967717e-04 5.607326e-05 -1.301277e-04
N 6.302206e+00 -3.701802e+00 6.934215e+00 2.274747e-05 -4.334376e-05 1.909118e-04
N 6.306934e+00 -3.690921e+00 -3.305892e+00 3.899920e-05 -3.802708e-05 -1.040327e-04
N 4.719093e+00 -9.364116e-01 1.853224e+00 5.276106e-05 3.927639e-06 -3.312242e-04
N 4.796568e+00 -9.881709e-01 6.950726e+00 -9.367100e-05 -3.850719e-05 -1.996544e-04
N 4.799860e+00 -9.356724e-01 -3.295652e+00 -6.443196e-05 -3.024076e-05 -9.045623e-05
N -3.251136e+00 1.771796e+00 1.826653e+00 -4.314943e-05 -1.610321e-05 1.267938e-04
N -3.164763e+00 1.767905e+00 6.919717e+00 -1.393161e-05 -2.692308e-06 -8.561476e-05
N -3.251209e+00 1.781552e+00 -3.316029e+00 -2.535608e-06 -9.293665e-06 -1.310963e-04
N -2.066940e-02 -3.671923e+00 1.790782e+00 -3.846022e-05 6.144802e-05 -3.149100e-05
N -2.398520e-02 -3.718042e+00 6.945225e+00 -5.241709e-05 1.052797e-06 -1.984333e-04
N -2.405610e-02 -3.720033e+00 -3.382498e+00 9.820389e-06 -1.155239e-05 -1.625797e-04
N -1.577783e+00 -9.850618e-01 1.822973e+00 -2.535276e-05 -7.349090e-05 9.995431e-05
N -1.653982e+00 -9.390426e-01 6.931538e+00 1.357209e-04 4.006608e-05 -8.345203e-05
N -1.661630e+00 -9.831348e-01 -3.385330e+00 -5.237959e-05 1.473420e-06 -1.631293e-04
