108
Energy=-2816990.095709 Lattice="9.692849 0.000000 0.000000 -4.846252 8.393411 0.000000 0.000289 -0.000263 15.746524" Stress="-0.000000 -0.000000 0.000000 -0.000000 -0.000000 -0.000000 0.000000 -0.000000 0.000000" Properties=species:S:1:pos:R:3:forces:R:3
Al 1.587672 0.900555 2.475897 -0.000035 0.000084 0.000038
Ga 1.591579 0.893254 7.721261 -0.000024 0.000032 -0.000001
Ga 1.590826 0.893582 -2.765549 -0.000014 -0.000013 0.000023
Al -0.018091 3.682069 2.476264 -0.000067 0.000033 0.000021
Ga -0.022218 3.688408 7.721287 -0.000030 0.000019 -0.000013
Ga -0.022992 3.688975 -2.765420 -0.000012 -0.000022 0.000005
Ga 3.207165 -1.906010 2.476214 -0.000056 0.000070 -0.000005
Ga 3.207485 -1.906035 7.718991 -0.000023 0.000021 0.000008
Ga 3.206283 -1.906118 -2.763101 -0.000020 0.000001 0.000002
Ga -4.878988 0.892147 2.478468 -0.000051 0.000097 0.000003
Ga -4.870854 0.892637 7.723242 -0.000004 0.000028 0.000023
Ga -4.871200 0.893657 -2.768058 0.000010 -0.000008 0.000034
Ga -6.499028 3.681984 2.476932 -0.000070 0.000056 0.000038
Ga -6.486590 3.688840 7.718895 -0.000012 0.000019 0.000019
Ga -6.486457 3.689758 -2.763043 -0.000001 -0.000015 0.000035
Ga -3.258880 -1.913757 2.478238 -0.000089 0.000100 0.000030
Ga -3.254054 -1.907121 7.723355 -0.000021 0.000023 0.000019
Ga -3.254012 -1.906744 -2.767952 -0.000001 0.000004 0.000012
Ga -1.624619 0.900308 2.477182 -0.000079 0.000079 0.000034
Ga -1.635573 0.893739 7.719097 -0.000009 0.000022 0.000009
Ga -1.635816 0.894612 -2.763023 0.000008 -0.000030 0.000028
Ga -3.244966 3.690116 2.478703 -0.000027 0.000020 0.000022
Ga -3.252105 3.690405 7.723086 -0.000022 0.000010 0.000027
Ga -3.252786 3.691423 -2.766282 -0.000007 -0.000033 0.000023
Ga -0.018751 -1.897460 2.478651 -0.000075 0.000021 -0.000017
Ga -0.021480 -1.904521 7.723187 -0.000028 0.000004 0.000012
Ga -0.021676 -1.904294 -2.766319 -0.000016 -0.000016 0.000015
Ga -0.015400 1.829153 5.075760 0.000016 -0.000013 -0.000016
Ga -0.023370 1.825260 -5.395360 0.000010 -0.000009 -0.000019
Ga -0.017415 1.828303 -0.121078 -0.000023 0.000082 0.000032
Ga 3.215363 -3.774788 5.087392 0.000013 -0.000016 0.000014
Ga 3.208205 -3.769925 -5.395221 0.000009 -0.000007 0.000029
Ga 3.212254 -3.773748 -0.131406 -0.000028 0.000017 0.000093
Ga 1.592486 -0.964349 5.087280 0.000015 -0.000055 0.000020
Ga 1.592892 -0.972390 -5.395173 0.000005 -0.000020 0.000013
Ga 1.591728 -0.967198 -0.131427 -0.000030 -0.000000 0.000066
Ga 3.200697 1.820866 5.087649 0.000024 -0.000055 0.000001
Ga 3.206703 1.826046 -5.395474 0.000014 -0.000028 0.000004
Ga 3.203333 1.821868 -0.131539 -0.000034 0.000016 0.000050
Ga 6.431433 -3.774271 5.087785 0.000023 -0.000035 0.000008
Ga 6.438778 -3.771466 -5.395458 0.000002 -0.000020 0.000024
Ga 6.433629 -3.773096 -0.131461 -0.000014 0.000020 0.000070
Ga 4.823485 -0.972691 5.099561 0.000013 -0.000045 0.000018
Ga 4.822115 -0.973189 -5.395488 -0.000005 -0.000032 0.000032
Ga 4.823551 -0.972788 -0.142847 -0.000046 0.000034 0.000098
Ga -3.254293 1.825231 5.099639 0.000020 -0.000059 -0.000004
Ga -3.253281 1.825289 -5.395189 0.000017 -0.000026 0.000004
Ga -3.254494 1.825296 -0.142454 0.000001 0.000035 0.000072
Ga -0.023123 -3.770300 5.099447 0.000022 -0.000056 0.000016
Ga -0.024016 -3.770636 -5.395078 0.000016 -0.000022 0.000014
Ga -0.022985 -3.770445 -0.142177 0.000002 0.000024 0.000086
Ga -1.638808 -0.972797 5.099681 0.000016 -0.000054 0.000016
Ga -1.638373 -0.971495 -5.395150 0.000002 -0.000028 0.000009
Ga -1.638672 -0.973000 -0.142486 -0.000016 0.000019 0.000077
N 1.592584 0.892269 4.398950 -0.000002 0.000055 0.000010
N 1.591638 0.893045 -6.040630 -0.000000 0.000018 0.000014
N 1.589564 0.894266 -0.782819 0.000049 -0.000040 0.000000
N -0.022530 3.690245 4.399362 -0.000023 0.000011 -0.000051
N -0.023097 3.689977 -6.040553 -0.000004 0.000010 -0.000007
N -0.023306 3.687745 -0.782579 0.000035 -0.000058 -0.000065
N 3.208088 -1.905367 4.457896 -0.000019 0.000036 -0.000018
N 3.207073 -1.905473 -6.041461 0.000002 0.000026 -0.000027
N 3.204425 -1.906788 -0.775741 0.000035 -0.000022 -0.000056
N -4.869569 0.892457 4.459171 -0.000011 0.000056 0.000011
N -4.870232 0.893185 -6.037930 0.000001 0.000032 -0.000022
N -4.872364 0.894471 -0.782735 0.000041 -0.000043 -0.000047
N -6.485108 3.690199 4.458408 -0.000025 0.000042 -0.000019
N -6.485441 3.690283 -6.041592 -0.000008 0.000026 -0.000006
N -6.487531 3.689142 -0.775723 0.000022 -0.000036 -0.000045
N -3.254042 -1.905318 4.459154 -0.000020 0.000063 -0.000011
N -3.254115 -1.905718 -6.037864 0.000006 0.000034 -0.000022
N -3.254114 -1.908126 -0.782678 0.000042 -0.000034 -0.000043
N -1.638243 0.892700 4.458444 -0.000021 0.000051 -0.000000
N -1.637664 0.893594 -6.041502 0.000002 0.000018 0.000001
N -1.633169 0.896234 -0.775712 0.000025 -0.000055 -0.000022
N -3.253700 3.690361 4.459532 -0.000016 0.000033 -0.000011
N -3.253517 3.691020 -6.038124 -0.000008 0.000018 -0.000012
N -3.251692 3.692262 -0.781065 0.000006 -0.000045 -0.000029
N -0.023125 -1.905084 4.459454 -0.000007 0.000066 -0.000001
N -0.022658 -1.904696 -6.038058 0.000000 0.000030 -0.000023
N -0.020786 -1.903681 -0.781128 0.000044 -0.000004 -0.000035
N 0.021086 1.850869 1.876324 0.000054 -0.000068 -0.000052
N -0.019642 1.826513 7.065203 0.000020 -0.000027 0.000020
N -0.022966 1.825257 -3.411954 0.000003 0.000011 0.000007
N 3.252426 -3.796172 1.858459 0.000029 -0.000005 -0.000055
N 3.210989 -3.772820 7.073857 0.000026 -0.000018 -0.000004
N 3.208706 -3.770151 -3.410180 0.000017 0.000010 -0.000018
N 1.592359 -0.921333 1.858355 0.000041 -0.000028 -0.000035
N 1.592659 -0.969633 7.073810 0.000005 -0.000015 -0.000011
N 1.593200 -0.972167 -3.410219 0.000000 0.000003 0.000000
N 3.164008 1.799484 1.856272 0.000039 -0.000075 -0.000025
N 3.205339 1.822802 7.073912 -0.000002 -0.000035 -0.000012
N 3.206486 1.825908 -3.410606 -0.000000 0.000001 -0.000003
N 6.394354 -3.795477 1.856325 0.000064 -0.000060 -0.000049
N 6.435968 -3.772349 7.073958 0.000013 -0.000024 0.000000
N 6.438626 -3.771855 -3.410498 -0.000004 -0.000001 -0.000014
N 4.822825 -0.972768 1.836395 0.000056 -0.000081 -0.000073
N 4.823926 -0.972918 7.082799 0.000006 -0.000032 -0.000025
N 4.822042 -0.973472 -3.409024 -0.000005 -0.000002 -0.000014
N -3.254695 1.823635 1.838700 0.000054 -0.000044 -0.000049
N -3.254055 1.824714 7.082876 0.000014 -0.000021 -0.000028
N -3.252882 1.824908 -3.408665 -0.000007 0.000016 -0.000032
N -0.024700 -3.771257 1.840925 0.000054 -0.000011 -0.000090
N -0.022783 -3.770825 7.082819 0.000021 -0.000006 -0.000027
N -0.024115 -3.770955 -3.408453 0.000005 0.000022 -0.000024
N -1.640458 -0.972204 1.838801 0.000070 -0.000063 -0.000095
N -1.638297 -0.973381 7.082938 0.000017 -0.000018 -0.000017
N -1.638223 -0.971420 -3.408659 0.000001 0.000005 -0.000013
