108
Energy=-2496553.944891 Lattice="9.476278 0.000000 0.000000 -4.738139 8.206697 0.000000 0.000000 0.000000 15.313968" Stress="-0.000480 0.000040 -0.000001 0.000040 -0.000436 -0.000002 -0.000001 -0.000002 -0.000448" Properties=species:S:1:pos:R:3:forces:R:3
Al 1.564294 0.903146 2.504900 -0.001984 -0.014357 -0.012496
Al 1.564294 0.903146 7.521855 -0.001607 -0.014982 -0.005458
Ga 1.564294 0.903146 -2.775158 -0.001859 -0.018788 -0.006226
Al 0.000000 3.612582 2.504900 -0.002882 -0.002297 -0.011164
Al 0.000000 3.612582 7.521855 -0.003599 -0.001551 -0.003921
Ga 0.000000 3.612582 -2.775158 -0.003264 -0.001221 -0.002518
Ga 3.173845 -1.884678 2.504900 -0.003545 0.001600 -0.013473
Al 3.173845 -1.884678 7.521855 -0.003623 0.001445 -0.004733
Ga 3.173845 -1.884678 -2.775158 -0.003448 0.001902 -0.004155
Ga -4.783396 0.903146 2.504900 0.000365 -0.017283 -0.013709
Ga -4.783396 0.903146 7.521855 0.000096 -0.017785 -0.004944
Ga -4.783396 0.903146 -2.775158 0.000670 -0.017216 -0.005623
Ga -6.347690 3.612582 2.504900 -0.000807 -0.000259 -0.010960
Ga -6.347690 3.612582 7.521855 -0.000921 -0.000254 -0.001650
Ga -6.347690 3.612582 -2.775158 -0.000285 -0.000113 -0.002112
Ga -3.173845 -1.884678 2.504900 -0.000612 0.002860 -0.012444
Ga -3.173845 -1.884678 7.521855 -0.001061 0.003139 -0.002782
Ga -3.173845 -1.884678 -2.775158 -0.000436 0.003447 -0.003021
Ga -1.654808 0.903146 2.504900 0.017026 -0.008993 -0.016759
Ga -1.654808 0.903146 7.521855 0.017043 -0.009077 -0.008584
Ga -1.654808 0.903146 -2.775158 0.016360 -0.009480 -0.007845
Ga -3.219102 3.612582 2.504900 0.015548 0.008094 -0.013747
Ga -3.219102 3.612582 7.521855 0.015993 0.008439 -0.005356
Ga -3.219102 3.612582 -2.775158 0.015575 0.007995 -0.004896
Ga -0.045257 -1.884678 2.504900 0.015468 0.011094 -0.015320
Ga -0.045257 -1.884678 7.521855 0.015650 0.011565 -0.006173
Ga -0.045257 -1.884678 -2.775158 0.015275 0.011338 -0.005948
Ga 0.000000 1.806291 5.013378 -0.014897 -0.010964 -0.006840
Ga 0.000000 1.806291 -5.283635 -0.014673 -0.011270 -0.007512
Al 0.000000 1.806291 -0.266680 -0.011941 -0.008573 0.036171
Al 3.173845 -3.690969 5.013378 -0.012229 -0.005641 -0.003716
Ga 3.173845 -3.690969 -5.283635 -0.015271 -0.007983 -0.006351
Ga 3.173845 -3.690969 -0.266680 -0.015046 -0.008215 0.046241
Ga 1.609551 -0.981532 5.013378 -0.016108 0.009461 -0.008260
Ga 1.609551 -0.981532 -5.283635 -0.016175 0.009814 -0.009592
Ga 1.609551 -0.981532 -0.266680 -0.016384 0.009857 0.042820
Al 3.128588 1.806291 5.013378 0.000157 -0.003440 -0.003482
Al 3.128588 1.806291 -5.283635 0.000115 -0.003565 -0.003803
Ga 3.128588 1.806291 -0.266680 -0.000139 -0.003883 0.048759
Ga 6.302433 -3.690969 5.013378 -0.000025 -0.000593 -0.001778
Ga 6.302433 -3.690969 -5.283635 0.000353 -0.000467 -0.002328
Ga 6.302433 -3.690969 -0.266680 -0.000251 -0.000569 0.050177
Ga 4.738139 -0.981532 5.013378 -0.001024 0.017521 -0.004540
Ga 4.738139 -0.981532 -5.283635 -0.000867 0.017650 -0.005809
Ga 4.738139 -0.981532 -0.266680 -0.000950 0.017330 0.046673
Ga -3.219102 1.806291 5.013378 0.002997 -0.001853 -0.004060
Ga -3.219102 1.806291 -5.283635 0.002980 -0.002145 -0.003989
Ga -3.219102 1.806291 -0.266680 0.003641 -0.002252 0.047919
Ga -0.045257 -3.690969 5.013378 0.003180 0.000874 -0.002912
Ga -0.045257 -3.690969 -5.283635 0.002904 0.001044 -0.003017
Ga -0.045257 -3.690969 -0.266680 0.003369 0.001417 0.049066
Ga -1.609551 -0.981532 5.013378 0.002145 0.018898 -0.006275
Ga -1.609551 -0.981532 -5.283635 0.002080 0.018836 -0.006279
Ga -1.609551 -0.981532 -0.266680 0.002240 0.018934 0.045478
N 1.564294 0.903146 4.418497 0.017636 -0.007034 -0.008537
N 1.564294 0.903146 -5.878516 0.017527 -0.006672 -0.009406
N 1.564294 0.903146 -0.861561 -0.019442 -0.007028 0.016069
N 0.000000 3.612582 4.418497 -0.021274 0.011391 -0.013144
N 0.000000 3.612582 -5.878516 -0.002405 0.000212 -0.021150
N 0.000000 3.612582 -0.861561 -0.002018 -0.021294 0.012589
N 3.173845 -1.884678 4.418497 -0.002904 -0.019996 0.009973
N 3.173845 -1.884678 -5.878516 -0.002766 0.001667 -0.021591
N 3.173845 -1.884678 -0.861561 -0.002960 0.001613 0.005699
N -4.783396 0.903146 4.418497 -0.018148 -0.007156 0.014451
N -4.783396 0.903146 -5.878516 -0.018227 -0.006835 0.014056
N -4.783396 0.903146 -0.861561 0.000295 -0.017283 0.009758
N -6.347690 3.612582 4.418497 -0.000460 -0.021241 0.010762
N -6.347690 3.612582 -5.878516 -0.000308 -0.021393 0.010121
N -6.347690 3.612582 -0.861561 -0.000487 0.000419 0.006259
N -3.173845 -1.884678 4.418497 -0.001214 0.002217 0.002303
N -3.173845 -1.884678 -5.878516 -0.001210 0.002158 0.002341
N -3.173845 -1.884678 -0.861561 -0.001007 0.001852 0.005911
N -1.654808 0.903146 4.418497 0.016711 -0.009709 0.010702
N -1.654808 0.903146 -5.878516 0.016512 -0.009542 0.010542
N -1.654808 0.903146 -0.861561 0.031693 -0.001105 0.018609
N -3.219102 3.612582 4.418497 0.031139 0.017262 0.012627
N -3.219102 3.612582 -5.878516 0.015655 0.008608 0.006216
N -3.219102 3.612582 -0.861561 0.015242 0.008497 0.009719
N -0.045257 -1.884678 4.418497 0.014982 0.010261 0.006367
N -0.045257 -1.884678 -5.878516 0.014908 0.010079 0.006211
N -0.045257 -1.884678 -0.861561 0.014704 0.009794 0.009289
N 0.000000 1.806291 1.910020 0.004109 0.000901 -0.035994
N 0.000000 1.806291 6.926975 0.004000 0.000828 0.021393
N 0.000000 1.806291 -3.370038 -0.015113 -0.010233 0.006232
N 3.173845 -3.690969 1.910020 0.003254 -0.019515 -0.031205
N 3.173845 -3.690969 6.926975 0.003617 0.002514 -0.001864
N 3.173845 -3.690969 -3.370038 -0.015600 -0.008593 0.006030
N 1.609551 -0.981532 1.910020 -0.017099 0.027660 -0.029115
N 1.609551 -0.981532 6.926975 0.001717 0.016468 0.023947
N 1.609551 -0.981532 -3.370038 -0.016819 0.009459 0.010115
N 3.128588 1.806291 1.910020 -0.017548 -0.013173 -0.036289
N 3.128588 1.806291 6.926975 -0.017500 -0.012542 -0.013718
N 3.128588 1.806291 -3.370038 0.001126 -0.001891 -0.021321
N 6.302433 -3.690969 1.910020 -0.018462 -0.011031 -0.036041
N 6.302433 -3.690969 6.926975 -0.017937 -0.011173 0.010005
N 6.302433 -3.690969 -3.370038 0.000511 -0.000278 0.002481
N 4.738139 -0.981532 1.910020 -0.000412 0.018078 -0.039542
N 4.738139 -0.981532 6.926975 -0.019016 0.006956 0.013856
N 4.738139 -0.981532 -3.370038 -0.000349 0.017567 0.006348
N -3.219102 1.806291 1.910020 0.003048 -0.001967 -0.044605
N -3.219102 1.806291 6.926975 0.002703 -0.001896 0.001896
N -3.219102 1.806291 -3.370038 0.003219 -0.001616 0.001630
N -0.045257 -3.690969 1.910020 0.002510 0.000037 -0.043849
N -0.045257 -3.690969 6.926975 0.002091 -0.000069 0.002198
N -0.045257 -3.690969 -3.370038 0.002517 0.000148 0.001999
N -1.609551 -0.981532 1.910020 0.001266 0.018387 -0.040029
N -1.609551 -0.981532 6.926975 0.001201 0.017810 0.005957
N -1.609551 -0.981532 -3.370038 0.001478 0.017938 0.005993
