108
Energy=-1.809929e+06 Lattice="9.562223e+00 0.000000e+00 0.000000e+00 -4.782799e+00 8.279325e+00 0.000000e+00 6.309966e-04 -1.577793e-04 1.547002e+01" Stress="1.482620e-04 -5.631055e-05 1.059796e-04 -6.681859e-05 3.381625e-05 -1.394248e-05 9.256403e-05 -1.975255e-05 5.408701e-05" Properties=species:S:1:pos:R:3:forces:R:3 Config_type=AlGaN_super3_30_1_17.xyz
Al 1.579532e+00 8.946501e-01 2.443536e+00 1.153224e-04 4.718017e-05 -1.225110e-04
Al 1.582605e+00 8.852829e-01 7.581720e+00 6.486703e-05 -6.962449e-05 9.494804e-05
Ga 1.568588e+00 8.756074e-01 -2.728298e+00 4.956266e-05 -3.462511e-06 1.405320e-05
Al -2.613797e-02 3.642804e+00 2.442480e+00 8.707731e-05 9.252189e-05 -5.648487e-05
Al -9.550615e-03 3.650797e+00 7.572093e+00 9.975191e-06 1.482186e-05 7.230029e-05
Ga -1.707055e-02 3.641765e+00 -2.722422e+00 9.427504e-06 3.237394e-06 1.015609e-04
Al 3.179828e+00 -1.881470e+00 2.435495e+00 2.788876e-06 1.844214e-04 2.646324e-05
Ga 3.174166e+00 -1.877728e+00 7.579482e+00 3.329135e-05 1.765812e-05 6.648049e-05
Al 3.166037e+00 -1.876511e+00 -2.720914e+00 2.408622e-05 -1.028337e-06 1.350437e-04
Al -4.821027e+00 8.754329e-01 2.429797e+00 -3.591118e-05 1.059619e-04 3.569653e-05
Al -4.811774e+00 8.789314e-01 7.584453e+00 6.066108e-05 -1.326396e-05 4.627102e-05
Ga -4.799939e+00 8.770627e-01 -2.722535e+00 8.722444e-05 -9.106777e-06 5.404740e-05
Al -6.413656e+00 3.619440e+00 2.472696e+00 -6.677409e-05 2.761392e-05 2.322100e-04
Ga -6.423113e+00 3.630706e+00 7.577020e+00 1.870824e-05 5.743752e-05 -2.194950e-06
Al -6.402205e+00 3.646913e+00 -2.755717e+00 3.111560e-05 1.256400e-05 3.128244e-05
Ga -3.218526e+00 -1.876468e+00 2.440960e+00 1.081884e-05 -3.889426e-05 2.250504e-04
Al -3.207625e+00 -1.888865e+00 7.578649e+00 9.446542e-06 2.267289e-05 4.132015e-05
Ga -3.212059e+00 -1.883969e+00 -2.732008e+00 5.581546e-06 2.840743e-05 1.037076e-04
Al -1.610870e+00 8.831901e-01 2.462933e+00 4.635186e-05 -4.713594e-05 1.182606e-04
Ga -1.623813e+00 8.722641e-01 7.587873e+00 9.925886e-05 -7.361253e-05 8.057929e-05
Al -1.623519e+00 8.792723e-01 -2.758126e+00 7.283749e-05 -5.354010e-05 3.732619e-05
Ga -3.192365e+00 3.641727e+00 2.430732e+00 -1.603440e-05 5.541193e-05 6.159988e-05
Ga -3.202143e+00 3.631289e+00 7.596999e+00 7.767410e-05 -3.138270e-05 4.593775e-05
Ga -3.213487e+00 3.635496e+00 -2.729304e+00 2.227814e-05 -5.508064e-05 8.302024e-05
Ga -2.382671e-02 -1.866037e+00 2.445092e+00 -3.874495e-05 -8.542740e-05 1.056566e-04
Ga -3.056087e-02 -1.864638e+00 7.610998e+00 6.754240e-05 -8.785958e-05 7.070895e-05
Ga -2.055166e-02 -1.878159e+00 -2.757861e+00 2.869386e-05 -6.398937e-05 5.043735e-08
Ga -1.343512e-02 1.813231e+00 5.005645e+00 -1.275487e-04 1.583067e-04 1.555271e-04
Ga -2.453220e-02 1.796637e+00 -5.330168e+00 -4.070143e-05 9.622591e-05 6.975740e-05
Ga -4.145943e-02 1.802680e+00 -1.168091e-01 -3.943885e-05 1.108185e-04 1.425657e-05
Al 3.186545e+00 -3.718298e+00 5.006599e+00 -8.786295e-05 4.744931e-05 8.851053e-06
Ga 3.164789e+00 -3.718065e+00 -5.302522e+00 -6.181972e-05 1.158665e-04 1.364856e-04
Al 3.176717e+00 -3.700037e+00 -1.418702e-01 -9.886983e-06 9.661285e-05 8.320273e-05
Ga 1.577330e+00 -9.534378e-01 4.997646e+00 -1.182696e-04 -4.245029e-05 1.135585e-04
Al 1.566314e+00 -9.618521e-01 -5.307381e+00 -1.319324e-05 4.951176e-05 4.232249e-05
Ga 1.597533e+00 -9.719111e-01 -1.257558e-01 -1.392501e-04 1.516705e-04 8.988215e-06
Al 3.158204e+00 1.797179e+00 5.004151e+00 6.477523e-04 8.773666e-04 -2.219096e-04
Ga 3.168927e+00 1.805772e+00 -5.316491e+00 8.366369e-06 8.489581e-06 7.438067e-05
Ga 3.167758e+00 1.807985e+00 -1.269464e-01 6.996763e-06 1.146566e-04 9.031585e-05
Al 6.343904e+00 -3.721385e+00 5.003971e+00 3.242798e-04 2.300891e-04 -6.274466e-05
Al 6.363538e+00 -3.709716e+00 -5.324040e+00 2.608033e-05 2.103015e-05 6.414402e-05
Ga 6.350551e+00 -3.723140e+00 -1.246132e-01 4.596237e-05 5.686644e-05 1.886756e-04
Ga 4.765486e+00 -9.612916e-01 5.015697e+00 3.872042e-05 2.594862e-05 6.307443e-05
Ga 4.770749e+00 -9.608169e-01 -5.327019e+00 -8.179754e-05 1.684168e-05 6.519600e-05
Al 4.743302e+00 -9.702680e-01 -1.323903e-01 -5.938658e-05 3.933708e-05 1.566602e-04
Ga -3.218163e+00 1.793190e+00 4.996451e+00 -6.596609e-05 1.041856e-04 1.627101e-04
Al -3.215135e+00 1.794609e+00 -5.309727e+00 -1.303049e-05 7.158129e-06 4.091605e-05
Ga -3.201294e+00 1.789299e+00 -1.258595e-01 -5.642307e-05 4.884929e-05 8.003203e-05
Ga -3.393715e-02 -3.720069e+00 5.008598e+00 -5.800096e-05 -9.456176e-05 1.765884e-04
Al -3.067002e-02 -3.715629e+00 -5.305979e+00 1.586588e-05 5.491485e-07 2.281386e-05
Ga -3.038112e-02 -3.726643e+00 -1.385403e-01 4.932432e-06 1.055796e-04 1.172741e-04
Al -1.624910e+00 -9.644530e-01 5.021260e+00 -9.477825e-05 -3.734047e-05 1.144386e-04
Al -1.620889e+00 -9.673817e-01 -5.311122e+00 -4.628077e-05 5.123980e-06 4.108214e-05
Ga -1.625139e+00 -9.450863e-01 -1.503364e-01 -5.300064e-05 7.757146e-05 6.729783e-05
N 1.610594e+00 9.079959e-01 4.353581e+00 1.349396e-04 -5.931623e-05 -1.383839e-05
N 1.575434e+00 8.322164e-01 -5.969574e+00 6.009996e-05 -2.962909e-05 -5.023742e-05
N 1.565314e+00 8.806824e-01 -7.535711e-01 1.062014e-04 -5.767595e-05 -2.196179e-05
N -2.501145e-02 3.690871e+00 4.364966e+00 -1.309675e-04 -1.443596e-04 -6.476345e-05
N 1.952776e-02 3.671092e+00 -5.975309e+00 2.325747e-05 -7.162085e-05 -1.043102e-04
N -6.069472e-02 3.660908e+00 -7.443515e-01 -3.756631e-05 6.481547e-06 -7.236722e-05
N 3.172891e+00 -1.928318e+00 4.356187e+00 4.489731e-05 -5.148991e-05 -1.419199e-04
N 3.122902e+00 -1.858340e+00 -5.925824e+00 2.705403e-05 -6.142987e-05 -1.133010e-04
N 3.207162e+00 -1.900693e+00 -7.911816e-01 5.140076e-05 -1.140037e-04 -8.041616e-06
N -4.850960e+00 8.983287e-01 4.345274e+00 -4.391009e-04 1.113090e-04 2.631318e-04
N -4.766018e+00 9.067221e-01 -5.970248e+00 3.917255e-05 6.271466e-06 -5.720144e-05
N -4.804025e+00 8.327398e-01 -7.405503e-01 8.096041e-05 -5.678097e-05 -1.186540e-04
N -6.445513e+00 3.614182e+00 4.393613e+00 -6.554848e-05 -1.064592e-03 2.556337e-04
N -6.401293e+00 3.686902e+00 -5.914108e+00 -1.576671e-05 -2.429735e-05 -7.032891e-05
N -6.404049e+00 3.642218e+00 -8.380487e-01 -3.095015e-05 -8.476758e-05 -1.043125e-04
N -3.169347e+00 -1.902837e+00 4.420608e+00 -7.559703e-05 4.175097e-05 -1.168669e-05
N -3.163279e+00 -1.906521e+00 -5.961153e+00 5.242087e-05 -1.908646e-05 -6.432679e-05
N -3.254108e+00 -1.860356e+00 -7.459624e-01 -1.415364e-06 -3.128667e-05 -1.291419e-04
N -1.612744e+00 8.315584e-01 4.376154e+00 1.581849e-04 -1.501024e-04 -1.716703e-04
N -1.662181e+00 8.524827e-01 -5.904820e+00 9.580634e-05 -4.909021e-05 -7.575419e-05
N -1.618272e+00 8.859216e-01 -8.425256e-01 9.982254e-05 -8.775514e-05 -4.034326e-06
N -3.163420e+00 3.669540e+00 4.405372e+00 3.484476e-05 -1.360356e-04 -4.267563e-06
N -3.250558e+00 3.616612e+00 -5.887973e+00 3.822545e-05 -7.638394e-05 -7.504246e-05
N -3.169409e+00 3.661568e+00 -7.382312e-01 1.221462e-04 -6.102670e-05 -1.318306e-04
N -6.567876e-02 -1.851952e+00 4.412054e+00 6.911745e-05 9.201443e-06 -7.587384e-05
N -2.383605e-02 -1.876018e+00 -5.865573e+00 2.634414e-05 -3.850061e-05 -2.785005e-05
N -1.811453e-02 -1.876999e+00 -7.753471e-01 3.565169e-05 -1.416798e-04 -5.675133e-05
N -2.887573e-02 1.800947e+00 1.881345e+00 -4.620608e-05 1.107881e-05 -9.347645e-05
N 1.886715e-02 1.824618e+00 6.999316e+00 -4.786879e-05 8.453785e-05 -1.065834e-04
N -6.064366e-02 1.780273e+00 -3.351556e+00 -5.971767e-05 6.200648e-05 -5.074719e-05
N 3.213805e+00 -3.688604e+00 1.783438e+00 6.983291e-06 -2.444014e-05 -5.417114e-05
N 3.208858e+00 -3.745602e+00 6.927516e+00 -6.360368e-05 2.620860e-05 -1.058013e-04
N 3.168684e+00 -3.672517e+00 -3.330350e+00 -3.151108e-05 5.683751e-05 -1.231877e-04
N 1.620035e+00 -9.352109e-01 1.859208e+00 -2.264208e-05 -1.711889e-05 -5.764944e-05
N 1.570318e+00 -9.131107e-01 6.971677e+00 -1.415575e-04 1.265943e-04 -1.273703e-04
N 1.620088e+00 -9.811059e-01 -3.387761e+00 -6.869278e-05 4.867789e-05 -2.848969e-05
N 3.163937e+00 1.809141e+00 1.859850e+00 -8.762268e-05 -1.490780e-04 -7.781386e-05
N 3.165121e+00 1.749278e+00 6.937522e+00 -4.079920e-06 -9.302534e-05 -2.106764e-04
N 3.165135e+00 1.842431e+00 -3.341200e+00 -3.538927e-05 3.719235e-06 -3.827409e-05
N 6.358379e+00 -3.771073e+00 1.857373e+00 -1.035309e-04 -6.171738e-05 -1.758781e-04
N 6.309207e+00 -3.695094e+00 6.928461e+00 2.197235e-05 -4.586061e-05 8.179026e-05
N 6.387988e+00 -3.740591e+00 -3.401269e+00 -1.583199e-05 -2.702895e-05 -4.924275e-05
N 4.715543e+00 -9.376659e-01 1.796234e+00 -1.002341e-04 -9.680042e-05 -1.515705e-04
N 4.803907e+00 -9.347311e-01 7.000924e+00 -5.608143e-05 3.508806e-05 -8.326701e-05
N 4.718781e+00 -9.837478e-01 -3.349064e+00 -9.426304e-05 -2.224908e-05 -1.140061e-04
N -3.206026e+00 1.747151e+00 1.860060e+00 -5.372391e-05 3.282732e-07 -1.483387e-04
N -3.254378e+00 1.774430e+00 6.968403e+00 -7.897409e-05 8.188018e-06 -3.836962e-05
N -3.177325e+00 1.776273e+00 -3.390605e+00 -6.980929e-05 3.889226e-05 -5.507247e-05
N -7.375209e-02 -3.747335e+00 1.844626e+00 7.783570e-05 -7.483390e-05 -1.874999e-04
N -2.353722e-02 -3.717658e+00 6.975647e+00 -4.637426e-05 -1.369196e-05 -3.008559e-05
N -6.089962e-02 -3.746250e+00 -3.389056e+00 -2.365871e-05 5.701606e-06 -5.715791e-05
N -1.618544e+00 -9.041471e-01 1.820582e+00 -1.621868e-05 6.112794e-05 -1.754191e-04
N -1.656274e+00 -9.848807e-01 6.934958e+00 -9.577733e-05 2.422335e-05 -2.580574e-05
N -1.623868e+00 -9.168665e-01 -3.393379e+00 -7.650503e-05 4.027687e-05 -4.141327e-05
