108
Energy=-2038806.320195 Lattice="9.589841 0.000000 0.000000 -4.794439 8.304756 0.000000 0.000208 -0.002792 15.535076" Stress="0.000000 0.000000 0.000000 -0.000000 0.000000 -0.000000 0.000000 -0.000000 0.000000" Properties=species:S:1:pos:R:3:forces:R:3
Al 1.581073 0.893856 2.409713 -0.000004 -0.000002 0.000014
Al 1.569116 0.891085 7.622837 -0.000001 0.000001 -0.000000
Al 1.574853 0.874798 -2.705993 -0.000003 0.000003 0.000005
Al -0.021416 3.653292 2.419154 -0.000009 0.000002 -0.000013
Al -0.023948 3.654221 7.614804 -0.000003 -0.000001 0.000018
Ga -0.019779 3.663462 -2.714553 -0.000003 0.000003 0.000018
Ga 3.158985 -1.900956 2.424573 -0.000005 0.000003 0.000001
Ga 3.180923 -1.898824 7.621911 -0.000002 0.000002 -0.000003
Ga 3.163427 -1.891255 -2.719452 -0.000003 0.000001 0.000009
Ga -4.836283 0.902542 2.425080 0.000002 -0.000001 0.000007
Ga -4.821106 0.876193 7.634319 -0.000002 -0.000000 -0.000004
Ga -4.822027 0.884193 -2.725495 0.000001 -0.000000 -0.000001
Al -6.430376 3.638962 2.406143 0.000007 0.000004 0.000008
Ga -6.429480 3.653407 7.635254 -0.000005 0.000000 0.000001
Ga -6.422291 3.660536 -2.721009 -0.000005 0.000004 0.000005
Ga -3.208812 -1.905283 2.414987 0.000001 0.000007 0.000006
Al -3.224902 -1.896827 7.621831 -0.000002 0.000000 -0.000005
Al -3.205238 -1.893302 -2.705029 0.000001 0.000000 0.000007
Ga -1.607736 0.886911 2.426641 -0.000002 0.000002 0.000006
Ga -1.610649 0.884964 7.636549 -0.000006 0.000004 -0.000003
Ga -1.616255 0.869921 -2.731726 0.000000 0.000007 0.000004
Al -3.206571 3.659663 2.435026 0.000000 0.000005 0.000004
Ga -3.206269 3.656482 7.641988 -0.000002 -0.000002 -0.000004
Ga -3.215000 3.663857 -2.745663 -0.000004 0.000003 0.000005
Ga -0.018705 -1.881714 2.412656 -0.000008 -0.000004 0.000010
Ga -0.025357 -1.886333 7.635093 -0.000006 0.000000 0.000001
Al -0.026488 -1.880416 -2.719811 -0.000001 0.000002 0.000000
Ga -0.012601 1.820597 5.017890 -0.000000 -0.000005 0.000016
Ga -0.023991 1.819624 -5.319154 -0.000002 -0.000003 0.000009
Ga -0.004099 1.808638 -0.138927 -0.000001 0.000009 0.000012
Al 3.177627 -3.742511 5.013465 -0.000007 0.000008 0.000012
Al 3.167003 -3.741485 -5.330240 -0.000003 0.000005 0.000003
Al 3.176229 -3.728760 -0.127978 0.000005 -0.000007 0.000028
Ga 1.579935 -0.957805 5.027125 -0.000004 -0.000002 0.000004
Ga 1.570881 -0.966020 -5.304383 -0.000004 0.000003 0.000004
Al 1.570417 -0.955887 -0.164023 -0.000000 0.000002 0.000011
Ga 3.160999 1.808380 5.021166 -0.000001 0.000005 0.000005
Ga 3.173116 1.808322 -5.314159 -0.000005 0.000003 0.000003
Al 3.154160 1.805827 -0.142070 -0.000006 -0.000001 0.000008
Ga 6.357042 -3.738515 5.022389 0.000003 0.000007 0.000015
Ga 6.359404 -3.722157 -5.326175 0.000000 0.000005 0.000009
Al 6.369804 -3.730806 -0.138745 -0.000009 -0.000004 0.000016
Ga 4.769511 -0.973498 5.030110 -0.000006 0.000003 -0.000002
Ga 4.781686 -0.970542 -5.307169 -0.000001 0.000000 -0.000003
Ga 4.772361 -0.975773 -0.159920 -0.000006 -0.000006 -0.000003
Ga -3.213763 1.823980 5.018697 0.000001 0.000009 -0.000008
Al -3.220033 1.824162 -5.315688 0.000000 0.000001 -0.000009
Ga -3.217594 1.814747 -0.134550 -0.000002 -0.000004 -0.000004
Ga -0.014382 -3.740099 4.996218 0.000002 -0.000001 -0.000005
Al -0.009599 -3.732011 -5.297944 -0.000003 0.000003 -0.000006
Ga -0.023664 -3.724079 -0.141160 -0.000006 -0.000008 -0.000005
Ga -1.622641 -0.965926 5.044236 0.000002 0.000003 0.000003
Ga -1.628739 -0.974435 -5.303162 -0.000004 0.000001 0.000005
Al -1.614105 -0.977896 -0.175972 0.000001 -0.000002 0.000008
N 1.576558 0.880279 4.326995 0.000005 -0.000003 -0.000011
N 1.572626 0.882419 -6.000805 0.000005 -0.000003 -0.000003
N 1.617514 0.860297 -0.788149 0.000006 -0.000005 -0.000014
N -0.063468 3.677945 4.345589 -0.000000 -0.000005 -0.000020
N -0.067716 3.677188 -5.994887 -0.000000 -0.000000 -0.000005
N -0.025613 3.704596 -0.731845 -0.000000 -0.000001 -0.000036
N 3.168859 -1.937011 4.412175 0.000006 -0.000007 -0.000005
N 3.171651 -1.932263 -5.926497 0.000003 0.000000 -0.000001
N 3.127316 -1.917898 -0.734613 0.000001 0.000002 -0.000015
N -4.822007 0.884460 4.400092 0.000001 -0.000005 0.000002
N -4.777551 0.905676 -5.918896 0.000001 -0.000003 0.000008
N -4.859448 0.912630 -0.747611 0.000002 -0.000002 0.000003
N -6.424296 3.649013 4.331157 -0.000005 -0.000004 -0.000006
N -6.372810 3.679707 -5.917484 0.000004 -0.000002 -0.000000
N -6.457214 3.628705 -0.734209 0.000006 0.000003 -0.000009
N -3.214503 -1.889032 4.385461 0.000000 -0.000009 -0.000007
N -3.219617 -1.883984 -6.006672 0.000002 -0.000001 -0.000000
N -3.175750 -1.918418 -0.783942 0.000001 0.000001 -0.000010
N -1.615003 0.879009 4.402029 -0.000001 -0.000006 -0.000005
N -1.661149 0.904846 -5.913910 0.000001 0.000000 0.000001
N -1.619261 0.841104 -0.752884 -0.000002 -0.000002 -0.000008
N -3.170678 3.679095 4.352670 0.000002 -0.000005 0.000001
N -3.221244 3.656373 -5.894506 0.000002 -0.000001 0.000005
N -3.174356 3.679549 -0.769100 0.000003 0.000001 -0.000006
N -0.022793 -1.879069 4.387539 0.000002 0.000002 -0.000002
N -0.023135 -1.934402 -5.921921 0.000007 0.000000 0.000006
N -0.018071 -1.843838 -0.792624 0.000000 -0.000000 -0.000009
N 0.022621 1.832208 1.840911 -0.000003 0.000001 0.000001
N 0.021613 1.833252 7.017599 0.000002 0.000001 -0.000011
N 0.024920 1.788830 -3.331472 0.000001 -0.000003 -0.000008
N 3.173664 -3.781162 1.788753 0.000007 -0.000004 -0.000009
N 3.212765 -3.762309 6.943087 0.000005 -0.000001 -0.000002
N 3.181978 -3.730476 -3.421623 0.000003 -0.000004 -0.000009
N 1.575241 -0.911314 1.757809 0.000004 -0.000001 -0.000011
N 1.575884 -0.913884 7.011363 0.000003 -0.000003 0.000002
N 1.531717 -0.934896 -3.314776 0.000005 -0.000004 -0.000002
N 3.126999 1.828688 1.778340 0.000002 0.000002 -0.000008
N 3.130244 1.784302 7.006630 0.000005 -0.000005 0.000003
N 3.124879 1.782345 -3.337766 0.000005 -0.000003 -0.000005
N 6.367051 -3.780053 1.783757 -0.000002 0.000002 0.000002
N 6.326863 -3.713106 7.017903 0.000003 -0.000001 -0.000009
N 6.366036 -3.680297 -3.346996 0.000004 -0.000002 -0.000010
N 4.771288 -0.964854 1.808138 0.000001 0.000007 -0.000005
N 4.811528 -0.987610 7.010866 0.000000 0.000004 0.000009
N 4.818231 -0.993103 -3.318694 -0.000001 0.000002 -0.000002
N -3.217741 1.856273 1.836625 0.000001 0.000004 -0.000005
N -3.218277 1.810271 6.993983 0.000001 -0.000003 0.000012
N -3.219229 1.807540 -3.402507 -0.000000 -0.000002 0.000002
N -0.021235 -3.780648 1.844910 0.000004 0.000007 -0.000007
N -0.021232 -3.738217 6.977422 0.000004 0.000000 0.000006
N -0.025131 -3.680134 -3.374943 0.000004 -0.000005 0.000004
N -1.620372 -0.963795 1.734651 0.000008 0.000001 -0.000006
N -1.661720 -0.987082 7.021286 0.000002 -0.000002 0.000004
N -1.624289 -1.016887 -3.316520 -0.000001 -0.000003 -0.000006
