108
Energy=-1.397949e+06 Lattice="9.511202e+00 0.000000e+00 0.000000e+00 -4.762094e+00 8.234732e+00 0.000000e+00 6.964699e-03 -4.341536e-03 1.535154e+01" Stress="-5.648618e-05 -5.516053e-04 3.153649e-04 -5.672724e-04 -4.070336e-04 -1.020628e-04 3.369721e-04 -1.047768e-04 6.482413e-04" Properties=species:S:1:pos:R:3:forces:R:3 Config_type=AlGaN_super3_21_0_13.xyz
Al 1.564341e+00 8.896123e-01 2.420415e+00 -7.384356e-04 -4.912586e-04 -3.946897e-04
Al 1.572840e+00 8.713103e-01 7.500108e+00 -1.953329e-04 1.723391e-04 5.982501e-04
Al 1.554917e+00 8.767435e-01 -2.698897e+00 4.561905e-04 3.838679e-04 2.778425e-04
Al -1.937455e-02 3.611056e+00 2.414240e+00 -1.042990e-03 -3.216219e-04 -1.330706e-04
Al -2.431954e-02 3.618835e+00 7.490468e+00 -2.744754e-04 6.037148e-05 2.311701e-04
Al -2.745434e-02 3.611557e+00 -2.679387e+00 -3.203291e-04 -7.805197e-06 7.569713e-04
Al 3.163303e+00 -1.859449e+00 2.424377e+00 -4.206749e-03 -4.151856e-03 -5.860616e-04
Ga 3.140098e+00 -1.879634e+00 7.521521e+00 -4.262687e-05 1.326043e-04 1.059222e-03
Ga 3.141104e+00 -1.878031e+00 -2.712778e+00 2.286125e-04 -2.535189e-05 -3.060114e-05
Al -4.795163e+00 8.725008e-01 2.407448e+00 5.782761e-04 2.234515e-03 -3.619244e-03
Al -4.785366e+00 8.859131e-01 7.525549e+00 -1.495997e-04 4.210596e-04 1.013959e-04
Ga -4.795415e+00 8.850537e-01 -2.681233e+00 5.657090e-04 -2.290077e-04 -9.762638e-05
Al -6.377054e+00 3.599889e+00 2.407142e+00 -1.016617e-03 1.995103e-04 1.055741e-03
Ga -6.366671e+00 3.607886e+00 7.520279e+00 1.440033e-04 -1.411855e-04 1.010073e-03
Ga -6.371050e+00 3.614264e+00 -2.701562e+00 -3.899045e-05 1.372516e-04 -5.879561e-04
Ga -3.199989e+00 -1.881098e+00 2.418348e+00 8.401510e-04 -1.796584e-04 -1.830069e-04
Al -3.177854e+00 -1.877415e+00 7.491866e+00 1.440720e-05 2.641775e-04 4.035948e-04
Ga -3.193338e+00 -1.880736e+00 -2.669576e+00 -2.668111e-04 2.085531e-04 3.903591e-04
Al -1.597173e+00 8.878494e-01 2.418358e+00 -3.568957e-05 3.173015e-04 5.856282e-04
Ga -1.601512e+00 8.770980e-01 7.515306e+00 3.315984e-04 -3.786457e-04 2.400438e-04
Ga -1.605477e+00 8.925152e-01 -2.697015e+00 7.870464e-04 -1.782657e-04 -8.281607e-05
Ga -3.188153e+00 3.619076e+00 2.395496e+00 5.162192e-04 1.178284e-04 2.448144e-04
Al -3.184023e+00 3.623580e+00 7.534904e+00 1.082500e-04 -8.099761e-05 8.819295e-04
Ga -3.196349e+00 3.630667e+00 -2.697308e+00 2.698273e-04 -2.673616e-04 6.057447e-04
Ga -1.419376e-02 -1.863368e+00 2.430721e+00 8.177302e-04 -1.298881e-04 6.098633e-04
Al -1.055170e-02 -1.859972e+00 7.515633e+00 5.440059e-04 -6.337343e-04 4.176886e-04
Al -9.716291e-03 -1.869280e+00 -2.712761e+00 2.078079e-04 -2.705893e-04 4.180391e-04
Al -8.359916e-03 1.794652e+00 4.952153e+00 -2.197124e-04 -2.219629e-04 4.184631e-04
Ga -9.868663e-03 1.799500e+00 -5.274131e+00 -5.708900e-04 1.532847e-04 7.937636e-04
Al -1.947998e-02 1.807458e+00 -1.336331e-01 7.402061e-05 -6.779340e-05 9.923567e-04
Al 3.166533e+00 -3.699912e+00 4.960715e+00 -5.598184e-04 -5.759473e-04 3.025251e-04
Al 3.139388e+00 -3.714741e+00 -5.277926e+00 6.101287e-05 4.474575e-04 4.846060e-04
Al 3.166802e+00 -3.709224e+00 -1.336843e-01 1.188194e-04 4.935619e-04 1.613169e-03
Al 1.567217e+00 -9.377709e-01 4.962099e+00 -4.864361e-04 -4.043024e-04 4.195735e-04
Al 1.557426e+00 -9.522195e-01 -5.271474e+00 -3.912992e-04 1.735087e-04 3.344624e-04
Ga 1.575754e+00 -9.527175e-01 -1.447717e-01 -5.830263e-04 5.711566e-04 1.256380e-03
Al 3.124922e+00 1.789021e+00 4.946188e+00 2.155595e-03 -1.122133e-03 7.265729e-04
Al 3.144957e+00 1.778517e+00 -5.276134e+00 -2.538920e-04 8.317218e-04 -3.033502e-05
Al 3.141198e+00 1.796682e+00 -1.165866e-01 -3.577622e-04 -7.443722e-04 -6.278896e-04
Al 6.314078e+00 -3.712510e+00 4.959290e+00 3.065642e-04 -1.503453e-03 4.266943e-04
Ga 6.309090e+00 -3.707065e+00 -5.277779e+00 -9.596356e-08 1.030490e-04 1.008631e-03
Al 6.309888e+00 -3.722166e+00 -1.281089e-01 2.577060e-04 6.670324e-05 4.719107e-04
Ga 4.732183e+00 -9.556642e-01 4.970456e+00 -5.557775e-04 1.167788e-03 6.364233e-04
Ga 4.728652e+00 -9.389856e-01 -5.293141e+00 -6.440788e-05 -1.840217e-04 2.515168e-05
Al 4.725864e+00 -9.525984e-01 -1.072376e-01 -3.698546e-04 -4.568930e-04 -9.583488e-04
Ga -3.189516e+00 1.789771e+00 4.963808e+00 -7.829072e-04 -1.937143e-04 2.104998e-04
Al -3.218727e+00 1.814945e+00 -5.289475e+00 3.905431e-04 2.034603e-04 1.563305e-04
Al -3.203582e+00 1.794129e+00 -1.105213e-01 5.971141e-04 -2.117123e-04 4.385302e-05
Ga -2.474710e-02 -3.693924e+00 4.981354e+00 2.790180e-04 -5.883896e-04 9.644154e-04
Al -2.675862e-03 -3.696411e+00 -5.290599e+00 5.678245e-05 4.137278e-04 -1.738336e-04
Al -2.636006e-02 -3.711125e+00 -1.391306e-01 -1.540073e-04 3.758206e-04 6.476171e-04
Al -1.591553e+00 -9.512735e-01 4.973392e+00 -7.285864e-05 1.328278e-04 8.935913e-04
Ga -1.595068e+00 -9.630101e-01 -5.271648e+00 -3.951964e-04 9.578948e-05 5.760741e-04
Ga -1.607089e+00 -9.526635e-01 -1.379316e-01 -1.049248e-04 4.469334e-04 -7.629218e-05
N 1.559925e+00 8.779515e-01 4.342972e+00 9.253653e-05 2.476650e-04 -2.862767e-04
N 1.600747e+00 8.499891e-01 -5.921438e+00 4.187952e-04 -4.906591e-05 -8.591545e-04
N 1.561730e+00 9.247026e-01 -7.737336e-01 3.932985e-04 4.250013e-04 3.575220e-04
N -2.582928e-02 3.620807e+00 4.342062e+00 2.371698e-04 -3.735664e-04 6.416962e-05
N -7.108851e-02 3.643225e+00 -5.949097e+00 -9.099213e-05 -1.330344e-05 -3.557343e-04
N -2.829822e-02 3.617172e+00 -7.538855e-01 5.196714e-06 -3.740002e-05 1.498123e-04
N 3.112030e+00 -1.892888e+00 4.347529e+00 -1.186096e-04 7.121092e-05 -6.423341e-04
N 3.100425e+00 -1.897511e+00 -5.846380e+00 -1.325241e-04 -3.567887e-05 -1.513007e-04
N 3.192252e+00 -1.898346e+00 -7.317303e-01 4.159073e-04 -9.013151e-05 -1.707903e-05
N -4.819795e+00 8.986936e-01 4.302435e+00 -1.191797e-03 6.279959e-04 3.401325e-03
N -4.789888e+00 9.324709e-01 -5.912655e+00 2.182360e-04 -1.783882e-04 -2.112797e-04
N -4.784766e+00 8.779148e-01 -6.911429e-01 -1.502918e-04 1.924303e-04 8.977606e-04
N -6.406314e+00 3.598090e+00 4.336390e+00 -2.180807e-04 -2.535597e-04 -5.131767e-04
N -6.330326e+00 3.594632e+00 -5.848999e+00 2.647127e-05 -4.676955e-04 -6.140090e-05
N -6.367159e+00 3.614849e+00 -7.126982e-01 -2.627246e-04 -5.771413e-06 1.006241e-03
N -3.145847e+00 -1.897881e+00 4.395618e+00 -2.151914e-04 1.043786e-03 -7.887966e-04
N -3.187867e+00 -1.872071e+00 -5.951953e+00 2.094125e-04 1.264561e-04 -4.838107e-04
N -3.239313e+00 -1.898727e+00 -6.924096e-01 2.358666e-05 4.402574e-05 7.273304e-04
N -1.564657e+00 8.536400e-01 4.345124e+00 7.031290e-04 7.293713e-04 -1.552914e-04
N -1.652162e+00 9.036597e-01 -5.862751e+00 5.962975e-04 -1.245619e-04 -3.192412e-04
N -1.614542e+00 9.345560e-01 -7.168764e-01 3.361015e-04 -4.703196e-04 -2.573462e-04
N -3.156299e+00 3.647889e+00 4.359831e+00 3.799064e-04 1.788422e-04 -2.652316e-04
N -3.193578e+00 3.628272e+00 -5.889646e+00 -2.660739e-04 -5.336581e-04 -6.541399e-04
N -3.195316e+00 3.620874e+00 -6.968244e-01 -2.118120e-04 -2.804628e-04 -3.673852e-05
N -1.542876e-02 -1.824058e+00 4.397592e+00 4.296260e-04 2.598760e-04 -6.929728e-04
N 2.201068e-02 -1.884090e+00 -5.913508e+00 2.931322e-04 -2.015193e-04 -4.622633e-04
N -1.653067e-02 -1.919347e+00 -7.956898e-01 3.195724e-04 -4.325571e-04 -2.262480e-04
N -1.929682e-02 1.791743e+00 1.803247e+00 1.917561e-05 1.719333e-05 -4.683802e-04
N 2.617023e-02 1.811804e+00 6.878951e+00 1.909926e-04 -3.648991e-04 -1.304228e-03
N 2.119901e-02 1.817608e+00 -3.288628e+00 -2.999909e-04 3.201394e-04 -9.064411e-04
N 3.201957e+00 -3.676127e+00 1.786908e+00 7.903142e-04 1.880339e-03 -8.625217e-04
N 3.152415e+00 -3.750519e+00 6.878788e+00 3.296582e-04 5.495025e-04 -7.588601e-04
N 3.195230e+00 -3.735944e+00 -3.356212e+00 2.422153e-04 2.570811e-04 -5.663483e-04
N 1.606305e+00 -9.263058e-01 1.832259e+00 1.035070e-03 7.217160e-05 1.421279e-03
N 1.531220e+00 -9.290010e-01 6.879911e+00 -1.162733e-04 6.381928e-05 -6.036938e-04
N 1.522249e+00 -9.251977e-01 -3.337033e+00 -5.191911e-04 1.973027e-04 -7.105008e-04
N 3.138023e+00 1.786846e+00 1.804657e+00 7.130449e-04 7.293357e-05 -9.288356e-04
N 3.150294e+00 1.741031e+00 6.868602e+00 -1.477860e-04 -3.512916e-04 -7.513013e-04
N 3.100734e+00 1.761734e+00 -3.358848e+00 -2.228274e-04 -2.477726e-04 -6.806482e-05
N 6.318363e+00 -3.756693e+00 1.791258e+00 3.559498e-04 1.393329e-04 -1.000507e-03
N 6.286968e+00 -3.685789e+00 6.878177e+00 -3.058160e-04 4.298627e-05 -6.273534e-04
N 6.273052e+00 -3.723761e+00 -3.300503e+00 -5.320115e-06 -2.511571e-04 -4.615865e-04
N 4.691359e+00 -9.340864e-01 1.808756e+00 1.451721e-03 5.037165e-04 -1.834058e-03
N 4.774409e+00 -9.263997e-01 6.948766e+00 -3.347940e-04 -4.561831e-04 -2.764719e-04
N 4.740933e+00 -9.486550e-01 -3.325291e+00 -4.903082e-04 -1.449666e-04 -3.490273e-04
N -3.194473e+00 1.738139e+00 1.803391e+00 -1.245843e-04 -4.929739e-04 -9.699373e-04
N -3.234550e+00 1.815829e+00 6.940197e+00 -1.748136e-04 -4.103472e-05 -2.532583e-04
N -3.208117e+00 1.796426e+00 -3.374587e+00 -2.074893e-04 -4.263663e-05 -1.930825e-04
N -6.791094e-02 -3.720150e+00 1.776409e+00 3.379686e-04 3.364058e-04 -1.398590e-03
N 2.514580e-02 -3.679559e+00 6.956450e+00 -8.103892e-05 4.745946e-04 -3.845056e-04
N -2.014333e-02 -3.652431e+00 -3.366875e+00 2.081403e-04 7.118467e-07 5.940921e-05
N -1.603257e+00 -9.083582e-01 1.824274e+00 -4.124365e-04 1.447500e-04 5.329390e-05
N -1.594919e+00 -9.987557e-01 6.890252e+00 -4.966542e-04 2.927385e-04 -3.911501e-04
N -1.569979e+00 -9.775130e-01 -3.290591e+00 -4.307017e-04 6.392838e-05 -3.392888e-04
