108
Energy=-1764152.970736 Lattice="9.532163 0.000000 0.000000 -4.780027 8.251096 0.000000 -0.006626 0.000345 15.454361" Stress="-0.000057 0.000001 -0.000001 0.000001 -0.000051 0.000000 -0.000001 0.000000 -0.000003" Properties=species:S:1:pos:R:3:forces:R:3
Al 1.572010 0.885022 2.448959 0.000398 -0.006262 -0.003394
Al 1.584164 0.899954 7.578526 -0.004583 -0.004909 -0.001454
Al 1.553705 0.868675 -2.757788 0.000367 0.002155 0.006496
Al -0.030746 3.614021 2.481005 -0.001724 0.000688 -0.002253
Al -0.009353 3.622257 7.576908 -0.001262 0.001507 0.001687
Al -0.026231 3.604397 -2.774705 0.001022 0.000724 0.004665
Al 3.144050 -1.878267 2.437858 -0.000274 -0.001889 0.001717
Al 3.163930 -1.867294 7.577086 -0.004411 -0.001656 0.002989
Ga 3.153448 -1.885675 -2.750134 0.002662 -0.001393 0.004616
Ga -4.819797 0.904504 2.452463 0.002985 -0.001320 0.000208
Ga -4.826011 0.886784 7.576970 0.002762 0.001482 0.001503
Ga -4.817272 0.881209 -2.757380 0.002899 -0.000595 0.003953
Al -6.425733 3.587413 2.436210 0.013447 0.005901 0.007613
Al -6.402000 3.626638 7.567800 0.001352 0.001226 0.000956
Ga -6.391694 3.611492 -2.761776 0.000894 0.001942 0.003883
Ga -3.199186 -1.891161 2.476406 0.001643 0.000315 -0.001825
Ga -3.208831 -1.891817 7.589371 0.001440 -0.000739 0.000554
Ga -3.190702 -1.886833 -2.766011 0.000180 -0.001038 0.003225
Al -1.621330 0.902178 2.482196 0.000566 -0.002258 -0.003930
Ga -1.610642 0.904320 7.587252 0.000785 0.000319 0.001687
Ga -1.603677 0.896260 -2.748139 0.001159 -0.000746 0.001845
Al -3.206478 3.627824 2.489477 -0.000414 -0.000385 -0.003256
Ga -3.219627 3.642013 7.554084 -0.000581 0.000783 0.000053
Al -3.200856 3.641415 -2.751030 -0.001669 -0.001224 0.003574
Ga 0.002479 -1.865057 2.458492 0.000859 -0.001344 -0.000493
Ga -0.006099 -1.867873 7.551211 0.004656 -0.002135 0.000309
Al 0.002746 -1.862117 -2.739878 -0.001980 -0.004752 0.004687
Ga -0.015404 1.795183 5.012455 -0.001294 0.000470 0.001549
Al -0.000291 1.797674 -5.324806 -0.001019 0.002771 0.003654
Ga -0.005778 1.777463 -0.124153 0.000289 0.001419 0.002241
Ga 3.157190 -3.699502 5.020306 -0.001142 0.000456 0.000009
Ga 3.188137 -3.719184 -5.325635 0.000403 0.002692 0.001794
Ga 3.166253 -3.724390 -0.136575 0.000033 0.001653 0.001929
Al 1.593471 -0.944196 5.008728 -0.000919 0.001836 0.006444
Ga 1.592024 -0.938733 -5.318345 -0.000120 0.000793 0.001928
Al 1.587651 -0.959303 -0.170870 -0.002246 0.002983 0.004080
Al 3.134215 1.812370 5.014950 -0.000377 0.003092 0.003434
Al 3.128653 1.801332 -5.329146 0.000721 -0.002192 -0.000398
Al 3.137443 1.778307 -0.165446 -0.002934 0.001267 0.000582
Al 6.345572 -3.720275 5.021810 0.001404 -0.001254 0.001719
Al 6.330462 -3.726465 -5.331905 0.001428 0.001764 0.002605
Ga 6.337004 -3.729371 -0.134545 0.000220 0.000213 0.001529
Ga 4.729554 -0.946570 5.028070 -0.000166 0.000431 -0.001505
Al 4.749409 -0.959669 -5.328022 -0.000573 -0.000663 0.001885
Ga 4.742338 -0.954768 -0.120989 -0.000879 -0.001022 -0.004705
Al -3.223597 1.806416 5.010888 -0.000774 0.001023 0.002003
Ga -3.213276 1.798772 -5.309401 -0.001719 -0.001651 0.001996
Ga -3.216441 1.805025 -0.136568 -0.000083 0.000382 0.000432
Al -0.037998 -3.708897 4.970312 -0.000390 -0.001834 0.007092
Ga -0.026449 -3.705220 -5.314135 -0.002648 -0.000449 0.003463
Ga -0.005971 -3.708241 -0.140178 -0.002275 -0.000260 0.002879
Ga -1.597946 -0.949824 5.027352 -0.001375 0.000661 -0.001292
Ga -1.596581 -0.953400 -5.307816 -0.003720 -0.000115 0.000923
Ga -1.586598 -0.953511 -0.136381 -0.001982 -0.000901 -0.000159
N 1.596087 0.859515 4.388762 0.005163 -0.000755 -0.007710
N 1.553559 0.919228 -5.956085 0.005232 0.001215 -0.003332
N 1.593442 0.847099 -0.802416 0.002817 0.000055 -0.003020
N 0.004014 3.652473 4.389342 0.001077 0.001213 -0.003308
N 0.015008 3.600556 -5.953733 0.000655 -0.001767 -0.002982
N -0.024753 3.611334 -0.841384 -0.000358 -0.000666 0.002214
N 3.117179 -1.845927 4.368990 0.000783 -0.000893 -0.007655
N 3.199909 -1.854218 -5.956397 0.000810 -0.000526 -0.002855
N 3.133891 -1.864692 -0.766892 -0.000292 -0.000861 0.000665
N -4.815533 0.935978 4.445158 0.001073 -0.000598 -0.004114
N -4.834422 0.851759 -5.899393 -0.002390 0.003554 -0.000447
N -4.838816 0.892513 -0.766946 0.001212 0.001301 0.000986
N -6.401160 3.627380 4.385682 -0.000035 -0.002007 -0.003280
N -6.423117 3.610561 -5.950689 0.000702 -0.001311 -0.003065
N -6.385276 3.579086 -0.775478 0.001457 -0.001309 0.000932
N -3.198908 -1.912793 4.442155 0.000098 -0.001524 -0.000671
N -3.225311 -1.897733 -5.894043 -0.000588 -0.001527 0.001392
N -3.192980 -1.879517 -0.786011 0.000543 -0.000495 0.004544
N -1.664944 0.910437 4.392211 0.000177 0.000099 -0.003731
N -1.579586 0.912714 -5.899174 0.002239 -0.000009 -0.000424
N -1.617460 0.885822 -0.778117 0.000894 0.000287 0.002214
N -3.250207 3.610941 4.409439 0.000237 0.000431 -0.004510
N -3.211944 3.637585 -5.938629 0.000661 -0.001121 -0.002738
N -3.205366 3.633353 -0.834897 0.000172 -0.001256 0.001504
N 0.040968 -1.868071 4.450076 -0.002972 -0.004817 -0.004344
N -0.005854 -1.864471 -5.938884 0.000927 -0.001576 -0.002632
N 0.025364 -1.847897 -0.806153 0.001495 -0.001762 0.001087
N -0.027413 1.780030 1.910986 0.001477 0.003600 -0.007133
N 0.013235 1.816737 6.989710 0.003081 0.000280 -0.001348
N 0.018790 1.803231 -3.390355 0.001599 0.001649 -0.002971
N 3.159085 -3.721503 1.887291 0.001642 0.000304 -0.002072
N 3.203007 -3.687043 6.998739 0.003020 0.001927 -0.000272
N 3.165809 -3.762184 -3.345307 0.001729 0.000421 0.000005
N 1.615740 -0.946399 1.775396 -0.000715 0.006987 0.000781
N 1.623570 -0.928197 6.942318 0.001242 0.004037 -0.000879
N 1.544196 -0.940690 -3.337269 -0.001732 0.002197 -0.001034
N 3.106048 1.826830 1.756931 -0.004016 -0.007421 0.006849
N 3.110024 1.832935 6.945038 -0.002312 -0.000787 -0.003456
N 3.100903 1.760468 -3.417400 -0.001905 0.001027 -0.000530
N 6.346009 -3.772583 1.884188 -0.010228 0.004524 -0.011532
N 6.340169 -3.750913 6.950724 -0.001159 -0.000924 -0.003952
N 6.302904 -3.739177 -3.411443 -0.001829 -0.000750 -0.002283
N 4.712346 -0.981971 1.846200 -0.001182 0.001621 0.003603
N 4.708151 -0.974314 6.989421 -0.000053 -0.000270 -0.002326
N 4.750209 -0.959691 -3.416500 -0.001449 -0.000499 -0.001847
N -3.169002 1.824559 1.858695 -0.001150 0.000175 0.000357
N -3.212304 1.797903 6.923464 -0.000805 -0.001741 -0.004234
N -3.211691 1.841160 -3.346557 -0.000878 0.000900 0.001959
N -0.027591 -3.763836 1.888631 -0.000217 0.001009 -0.006674
N -0.069136 -3.728086 6.911083 -0.001932 0.000387 -0.003711
N 0.019916 -3.684024 -3.335070 0.000079 0.002031 0.001897
N -1.605472 -0.904825 1.855569 -0.001037 -0.000541 -0.000041
N -1.607337 -0.942481 6.981688 -0.003886 -0.000455 -0.001352
N -1.556760 -0.974037 -3.344185 -0.000215 -0.001024 0.001748
