108
Energy=-2450783.857028 Lattice="9.579061 0.000000 0.000000 -4.803008 8.303604 0.000000 -0.122967 -0.060801 15.408050" Stress="-0.000191 0.000015 -0.000027 0.000015 -0.000156 -0.000013 -0.000027 -0.000013 -0.000219" Properties=species:S:1:pos:R:3:forces:R:3
Al 1.513539 0.869188 2.451766 0.000360 -0.008425 -0.004760
Al 1.507360 0.865649 7.552019 0.000058 -0.008353 -0.000610
Ga 1.622753 0.923036 -2.737012 -0.000729 -0.010438 -0.001508
Al -0.072361 3.625506 2.436818 -0.000101 0.000379 -0.000229
Ga -0.082121 3.619725 7.553951 -0.000909 -0.001408 0.000345
Ga 0.032380 3.675099 -2.746703 -0.002427 -0.000802 -0.000565
Al 3.141322 -1.924208 2.433231 0.000362 0.001262 -0.000351
Ga 3.132919 -1.932279 7.552890 -0.001599 0.001362 -0.000109
Ga 3.247057 -1.877773 -2.748113 -0.002153 -0.000251 -0.001174
Ga -4.886615 0.877675 2.437611 0.002386 -0.008410 -0.002331
Ga -4.899042 0.866221 7.555029 0.000661 -0.009384 -0.001703
Ga -4.782165 0.923331 -2.736778 0.000436 -0.009230 -0.001376
Ga -6.481093 3.619874 2.452833 0.000630 0.000479 -0.003442
Ga -6.490152 3.620772 7.555353 -0.000138 -0.000366 0.000076
Ga -6.373166 3.677636 -2.732995 0.000344 -0.000179 0.001813
Ga -3.266354 -1.925405 2.447169 -0.000245 0.000913 -0.003852
Al -3.274109 -1.929676 7.554150 -0.000259 0.001333 0.000526
Ga -3.160377 -1.875288 -2.731353 0.000697 0.001820 0.002505
Ga -1.711405 0.884128 2.456381 0.010273 -0.005872 -0.007614
Ga -1.723258 0.868472 7.557313 0.010271 -0.005093 -0.003492
Ga -1.610519 0.927618 -2.727890 0.010517 -0.005941 -0.001835
Al -3.298090 3.629015 2.453091 0.007465 0.003412 -0.004604
Ga -3.309905 3.624877 7.558734 0.008706 0.003890 -0.000623
Ga -3.197002 3.677863 -2.734756 0.009112 0.004896 -0.000241
Ga -0.087987 -1.925838 2.453094 0.009438 0.005058 -0.005398
Ga -0.101989 -1.924518 7.556960 0.009436 0.005706 -0.001987
Ga 0.016063 -1.869408 -2.731989 0.008596 0.005383 -0.001819
Ga -0.070924 1.785229 4.994637 -0.008280 -0.003892 -0.000815
Ga 0.039988 1.842569 -5.300200 -0.007604 -0.005212 -0.001689
Ga 0.035771 1.844821 -0.176602 -0.012874 -0.009369 0.018427
Ga 3.139072 -3.764233 4.982866 -0.007872 -0.003460 -0.000676
Al 3.251977 -3.710096 -5.297014 -0.006954 -0.002615 -0.000482
Ga 3.254837 -3.712826 -0.179511 -0.014847 -0.006449 0.019216
Ga 1.551368 -1.010253 4.995376 -0.008337 0.004928 -0.002416
Ga 1.666190 -0.959082 -5.298650 -0.009011 0.006351 -0.003525
Ga 1.668223 -0.959340 -0.177831 -0.014838 0.004567 0.017278
Ga 3.094044 1.783777 4.998692 0.001093 -0.001631 0.000670
Ga 3.211575 1.842354 -5.300103 -0.000029 -0.001613 0.000567
Ga 3.210246 1.837738 -0.180239 -0.003050 -0.001294 0.019769
Ga 6.309013 -3.760923 4.998680 -0.000383 -0.001042 0.001471
Ga 6.422985 -3.704001 -5.300411 0.000193 -0.000232 0.000519
Al 6.396684 -3.719280 -0.195358 0.003712 0.001656 0.022108
Ga 4.723305 -1.013940 4.996903 -0.002136 0.010185 -0.000302
Ga 4.838224 -0.960612 -5.300295 -0.000871 0.009817 -0.001469
Al 4.811946 -0.970563 -0.199528 0.002026 0.008588 0.020949
Ga -3.305609 1.792302 4.995461 0.000750 -0.000207 0.000391
Ga -3.187310 1.849383 -5.295190 0.000677 -0.000568 -0.000184
Al -3.215393 1.831652 -0.193673 0.002637 0.000313 0.020704
Ga -0.090453 -3.761873 4.998603 0.002024 0.000123 0.000394
Ga 0.027624 -3.703342 -5.292117 0.001221 -0.000035 0.000254
Ga 0.016094 -3.707453 -0.176513 -0.001878 -0.001909 0.019732
Ga -1.684460 -1.010370 5.006668 0.001059 0.010709 -0.001409
Ga -1.568199 -0.953522 -5.294636 -0.000076 0.010076 -0.000957
Ga -1.580746 -0.959143 -0.170099 -0.003856 0.008467 0.015203
N 1.511153 0.868444 4.371843 -0.000235 -0.009888 -0.011763
N 1.626652 0.925253 -5.925863 -0.000592 -0.010033 -0.012371
N 1.621779 0.922398 -0.790816 -0.001931 -0.010438 0.001819
N -0.075722 3.621278 4.370402 -0.000852 -0.000516 -0.014531
N 0.021971 3.685345 -5.901609 -0.012611 0.006453 0.004276
N 0.038870 3.678590 -0.798666 0.008377 0.005366 0.005952
N 3.136825 -1.927280 4.368207 -0.001565 0.001008 -0.014908
N 3.250505 -1.891259 -5.902267 -0.001414 -0.012668 0.004047
N 3.253433 -1.874938 -0.800196 0.008041 0.005614 0.006057
N -4.892356 0.870571 4.390169 0.000612 -0.009630 0.001926
N -4.776478 0.927582 -5.905209 0.001003 -0.009942 0.002161
N -4.778685 0.909408 -0.786235 0.011047 -0.015750 0.011833
N -6.483492 3.621724 4.397509 0.000035 0.000333 0.000684
N -6.365650 3.680025 -5.903949 -0.000176 0.000576 -0.000088
N -6.389935 3.682333 -0.778592 -0.013429 0.006749 0.003838
N -3.268484 -1.927001 4.392016 0.000130 0.001040 -0.000509
N -3.152882 -1.870926 -5.922729 -0.000315 0.000991 -0.015534
N -3.182579 -1.888139 -0.772606 -0.012369 -0.005995 0.006715
N -1.718514 0.873700 4.397988 0.010122 -0.006545 0.004664
N -1.603988 0.929365 -5.903971 0.009641 -0.006067 0.003561
N -1.627489 0.932089 -0.775050 -0.002111 0.001127 0.007580
N -3.307681 3.625288 4.374210 0.008119 0.004305 -0.011871
N -3.176369 3.691218 -5.896988 0.018380 0.009647 0.005251
N -3.201413 3.661059 -0.782095 0.008450 -0.009703 0.005957
N -0.096124 -1.924717 4.396340 0.008381 0.005355 0.002621
N 0.020008 -1.868618 -5.903177 0.008186 0.004875 0.001227
N 0.015382 -1.869891 -0.785214 0.007302 0.004765 0.002862
N -0.055107 1.793736 1.856648 0.007154 0.004883 -0.007637
N -0.061786 1.776725 6.948274 0.002191 -0.011351 0.006221
N 0.038463 1.838836 -3.348848 -0.009359 -0.005380 0.001222
N 3.137606 -3.762393 1.858181 -0.000816 -0.000056 -0.003701
N 3.135830 -3.766217 6.935648 -0.009034 -0.004364 0.001151
N 3.250963 -3.711298 -3.367047 -0.009286 -0.004483 -0.012029
N 1.563614 -1.000304 1.853785 0.006353 0.011615 -0.005648
N 1.548610 -0.996224 6.948203 -0.010224 0.016400 0.007825
N 1.662193 -0.957081 -3.350612 -0.010178 0.005577 0.003763
N 3.083279 1.780217 1.846196 -0.005907 -0.006212 -0.013817
N 3.080076 1.776810 6.950853 -0.010705 -0.007066 0.004101
N 3.209826 1.841977 -3.346923 0.000970 -0.000743 -0.001235
N 6.317169 -3.761232 1.841235 -0.013153 -0.007930 -0.029274
N 6.306162 -3.748274 6.951950 0.000500 0.013271 0.004007
N 6.423638 -3.706695 -3.348838 0.000437 -0.000258 -0.001059
N 4.729184 -1.008034 1.833775 -0.014430 0.002832 -0.026802
N 4.732601 -1.022267 6.950565 0.010826 0.003220 0.005917
N 4.836285 -0.958156 -3.350026 -0.000669 0.010291 0.001670
N -3.285887 1.818445 1.845316 -0.000727 0.011090 -0.029429
N -3.308881 1.790191 6.946442 0.001134 -0.000899 -0.000926
N -3.193385 1.843674 -3.344311 0.000808 -0.000991 -0.001450
N -0.074060 -3.772362 1.855960 0.015758 -0.003776 -0.013939
N -0.093907 -3.762675 6.947998 0.000754 0.000085 -0.000610
N 0.019580 -3.705377 -3.341004 0.000786 -0.000187 -0.001291
N -1.677443 -1.006018 1.844245 0.004776 0.012288 -0.014457
N -1.699840 -1.019569 6.954573 -0.011413 0.003237 0.006109
N -1.571271 -0.954791 -3.340896 -0.000455 0.009883 0.000490
