108
Energy=-1169071.900000 Lattice="9.482772 0.000000 0.000000 -4.746335 8.214139 0.000000 -0.000706 0.003232 15.279304" Stress="0.000002 -0.000002 0.000000 -0.000002 0.000003 0.000001 0.000000 0.000001 -0.000001" Properties=species:S:1:pos:R:3:forces:R:3
Al 1.553796 0.873261 2.410791 0.000017 -0.000514 -0.000628
Al 1.561029 0.867518 7.483340 -0.000502 0.000227 0.000142
Al 1.542969 0.882411 -2.706541 -0.000660 0.000002 0.000939
Al -0.023530 3.614600 2.377687 0.000004 0.000011 -0.000004
Al -0.024322 3.610088 7.485380 -0.000005 -0.000061 -0.000178
Al -0.015148 3.595347 -2.672929 0.000274 -0.000088 0.000137
Al 3.138609 -1.870609 2.400256 -0.000285 0.000019 -0.000353
Al 3.132561 -1.862110 7.467844 -0.000236 0.000422 0.000341
Al 3.141645 -1.861131 -2.672282 -0.000036 -0.000532 0.000246
Al -4.763013 0.874105 2.380135 0.000288 -0.000178 0.000802
Al -4.782534 0.869910 7.497057 0.000090 0.000171 0.000192
Ga -4.780199 0.863626 -2.678307 0.000271 -0.000074 0.000111
Al -6.349724 3.617948 2.407670 0.000026 -0.000013 0.000166
Ga -6.351075 3.604435 7.482487 0.000217 -0.000020 0.000126
Al -6.354979 3.615053 -2.700447 -0.000490 0.000223 0.000610
Al -3.184049 -1.873850 2.383578 -0.000482 -0.000274 0.000420
Ga -3.184556 -1.864022 7.511755 0.000003 0.000130 0.000359
Ga -3.185800 -1.875064 -2.700936 0.000182 0.000119 0.000034
Al -1.600775 0.881326 2.375582 0.000092 0.000308 0.000928
Al -1.589278 0.873360 7.507553 0.000513 0.000247 -0.000165
Al -1.577543 0.876848 -2.687236 0.000052 -0.000133 0.000092
Al -3.184261 3.618249 2.380972 0.000185 -0.000195 -0.000237
Ga -3.180837 3.627149 7.482266 0.000149 -0.000042 0.000033
Ga -3.191697 3.624655 -2.663858 0.000004 -0.000006 -0.000205
Al -0.016462 -1.868978 2.405491 0.000745 -0.000099 0.000145
Al -0.011394 -1.853755 7.486478 0.000212 -0.000322 -0.000310
Al -0.019899 -1.864364 -2.695343 -0.001088 -0.000323 0.000467
Ga -0.010995 1.797847 4.940892 -0.000253 0.000374 0.000397
Al -0.013872 1.789695 -5.246973 0.000101 0.000076 0.000003
Al -0.027902 1.799995 -0.140782 -0.000397 0.000087 0.000186
Al 3.143000 -3.683842 4.921241 0.000186 -0.000038 -0.000309
Ga 3.162707 -3.685057 -5.227631 -0.000142 0.000187 0.000341
Al 3.151600 -3.694462 -0.136918 0.000413 0.000401 0.000051
Al 1.563106 -0.960799 4.938246 0.000034 -0.000077 0.000288
Ga 1.556526 -0.948397 -5.240483 -0.000012 -0.000034 0.000101
Ga 1.563332 -0.957005 -0.145750 -0.000224 0.000084 0.000265
Al 3.132543 1.789623 4.922555 0.000600 -0.000148 0.000212
Al 3.126734 1.791728 -5.235081 0.000550 -0.000340 -0.000566
Ga 3.129124 1.801760 -0.129826 -0.000032 -0.000016 -0.000714
Al 6.300921 -3.697575 4.919130 -0.000306 -0.000749 0.000150
Al 6.302337 -3.704557 -5.226623 0.000279 0.000939 -0.000312
Al 6.296343 -3.699101 -0.139266 0.000055 -0.000216 -0.000106
Ga 4.708546 -0.957554 4.930894 -0.000285 0.000402 -0.000020
Al 4.711870 -0.951789 -5.253871 0.000403 -0.000284 -0.000026
Al 4.719616 -0.965726 -0.114819 -0.000880 0.000150 0.000052
Ga -3.193631 1.797194 4.936250 -0.000158 0.000045 0.000178
Ga -3.187119 1.771168 -5.243899 -0.000027 -0.000079 0.000175
Al -3.176025 1.792926 -0.127935 0.000105 -0.000553 0.000098
Al -0.019577 -3.685595 4.913067 -0.000061 0.000006 0.000455
Al -0.045855 -3.681482 -5.230596 0.000387 0.000070 0.000160
Al -0.028214 -3.694221 -0.126681 -0.000258 -0.000066 -0.000051
Ga -1.588593 -0.963812 4.932297 -0.000434 0.000213 0.000246
Al -1.592608 -0.953742 -5.236719 -0.000929 -0.000008 0.000511
Ga -1.604067 -0.950597 -0.136545 -0.000232 0.000123 0.000100
N 1.593472 0.846346 4.322362 -0.000126 0.000003 0.000128
N 1.559010 0.918129 -5.871646 0.000334 -0.000028 -0.000113
N 1.511503 0.901061 -0.792647 0.000560 -0.000067 -0.000281
N -0.026143 3.657385 4.292340 0.000264 0.000096 0.000314
N 0.017770 3.590017 -5.876573 -0.000134 -0.000274 -0.000022
N -0.021779 3.607869 -0.746055 -0.000028 0.000034 -0.000225
N 3.098338 -1.889601 4.310622 -0.000318 0.000125 0.000332
N 3.171518 -1.846747 -5.901898 0.000201 -0.000079 -0.000453
N 3.185156 -1.887524 -0.758257 0.000267 0.000137 -0.000302
N -4.803533 0.895937 4.286553 0.000106 0.000012 -0.000413
N -4.815084 0.852406 -5.864169 -0.000420 0.000549 -0.000128
N -4.728164 0.844988 -0.700428 0.000057 0.000224 0.000214
N -6.347725 3.612692 4.329926 -0.000076 0.000063 0.000063
N -6.348673 3.609709 -5.809938 -0.000160 -0.000170 -0.000003
N -6.347934 3.661447 -0.778793 0.000384 -0.000085 0.000421
N -3.182159 -1.912624 4.293922 0.000209 0.000358 -0.000488
N -3.180461 -1.870316 -5.780110 0.000231 -0.000297 0.000103
N -3.226525 -1.890182 -0.718524 0.000454 -0.000068 -0.000258
N -1.602211 0.880144 4.277279 0.000387 -0.000353 -0.000722
N -1.556549 0.849242 -5.860738 -0.000136 -0.000102 0.000055
N -1.601186 0.922252 -0.765713 0.000422 0.000078 0.000267
N -3.182831 3.658616 4.302812 -0.000133 0.000180 0.000601
N -3.227463 3.644007 -5.824375 -0.000049 -0.000231 -0.000163
N -3.190090 3.616187 -0.680287 -0.000399 0.000027 -0.000007
N 0.024317 -1.886273 4.312113 0.000188 -0.000133 -0.000432
N -0.060481 -1.890016 -5.872966 0.000394 -0.000254 -0.000026
N -0.024181 -1.916502 -0.786414 0.000293 0.000116 -0.000157
N -0.016228 1.786745 1.782312 -0.000101 0.000023 -0.000132
N -0.021181 1.789431 6.923699 -0.000145 -0.000512 0.000014
N -0.024953 1.790919 -3.316548 -0.000058 0.000277 -0.000462
N 3.144960 -3.687390 1.782446 -0.000054 0.000108 -0.000310
N 3.187486 -3.668058 6.844930 -0.000180 -0.000058 -0.000119
N 3.187382 -3.668775 -3.249778 -0.000111 0.000507 -0.000003
N 1.558898 -0.950603 1.832781 0.000168 0.000316 0.000133
N 1.557555 -0.950968 6.872464 -0.000219 0.000212 -0.000153
N 1.560163 -0.953191 -3.248804 0.001028 -0.000143 -0.000386
N 3.131123 1.791985 1.843554 -0.000541 0.000294 0.000047
N 3.137173 1.739860 6.846033 -0.000071 0.000103 -0.000341
N 3.095314 1.808292 -3.314298 0.000291 0.000097 -0.000173
N 6.306341 -3.696393 1.780224 0.000041 -0.000157 -0.000098
N 6.261449 -3.709530 6.833808 -0.000116 -0.000056 -0.000445
N 6.294860 -3.745076 -3.315250 -0.000408 -0.000153 0.000359
N 4.716479 -0.956496 1.800775 -0.000058 -0.000005 -0.000053
N 4.683584 -0.927452 6.905272 0.000135 -0.000113 -0.000203
N 4.672700 -0.975609 -3.346536 -0.000480 0.000005 0.000047
N -3.182380 1.789320 1.789007 0.000068 -0.000137 -0.000224
N -3.184392 1.738775 6.921793 -0.000195 -0.000362 0.000038
N -3.145924 1.761725 -3.274498 0.000073 0.000026 0.000101
N -0.028702 -3.687863 1.795187 0.000006 -0.000126 -0.000415
N -0.024338 -3.638940 6.826873 -0.000015 0.000032 -0.000526
N -0.063753 -3.665289 -3.316875 0.000327 0.000092 -0.000428
N -1.596724 -0.953415 1.841628 -0.000135 0.000258 -0.000375
N -1.562805 -0.926786 6.910220 -0.000100 0.000122 -0.000005
N -1.558470 -0.924489 -3.311973 0.000057 -0.000064 -0.000267
