108
Energy=-1.626827e+06 Lattice="9.540858e+00 0.000000e+00 0.000000e+00 -4.778857e+00 8.255779e+00 0.000000e+00 4.903203e-03 1.956822e-02 1.542230e+01" Stress="3.286238e-05 -9.288005e-05 3.525130e-04 -9.847400e-05 -9.299839e-04 9.467014e-04 3.524886e-04 9.557865e-04 1.178955e-03" Properties=species:S:1:pos:R:3:forces:R:3 Config_type=AlGaN_super3_26_2_11.xyz
Al 1.566117e+00 8.721688e-01 2.439724e+00 2.239966e-03 -1.657248e-03 5.124744e-04
Al 1.566307e+00 9.108391e-01 7.526295e+00 5.417645e-04 -3.866900e-04 3.887745e-04
Al 1.546092e+00 8.713288e-01 -2.705660e+00 1.657875e-04 -6.434036e-04 -1.549433e-04
Al -2.742301e-02 3.629503e+00 2.431621e+00 -6.726294e-05 -3.008969e-05 -4.666977e-04
Al -1.368862e-02 3.619355e+00 7.549687e+00 3.043667e-04 -3.117696e-04 5.134402e-04
Al -3.848854e-02 3.609307e+00 -2.702606e+00 -1.314446e-04 1.441716e-05 -6.483818e-04
Al 3.158295e+00 -1.873557e+00 2.400550e+00 -1.919906e-03 -5.292689e-05 -1.531736e-03
Ga 3.172123e+00 -1.853438e+00 7.569266e+00 1.177914e-04 3.866768e-04 6.964253e-04
Ga 3.149161e+00 -1.883483e+00 -2.697223e+00 4.144400e-04 1.809519e-04 6.138275e-04
Al -4.805643e+00 8.740793e-01 2.452561e+00 1.971430e-04 4.550113e-05 5.401160e-04
Al -4.796025e+00 9.011066e-01 7.543301e+00 3.232651e-04 -6.909397e-04 1.231446e-04
Ga -4.796820e+00 8.766526e-01 -2.721383e+00 5.105777e-04 -4.467430e-04 -3.828878e-04
Ga -6.386160e+00 3.631453e+00 2.438058e+00 6.067881e-04 1.731302e-04 1.916138e-04
Al -6.378920e+00 3.629964e+00 7.544605e+00 -3.486349e-04 -6.617751e-05 5.175402e-04
Ga -6.381910e+00 3.627015e+00 -2.709469e+00 2.174851e-04 7.915678e-05 2.112731e-04
Al -3.195136e+00 -1.869695e+00 2.430027e+00 -2.049677e-04 1.296597e-04 -3.393145e-05
Ga -3.187910e+00 -1.851692e+00 7.568081e+00 3.300875e-04 6.258033e-04 8.957690e-05
Ga -3.188135e+00 -1.866985e+00 -2.724848e+00 -1.364550e-04 9.867211e-05 4.161414e-04
Ga -1.611107e+00 8.599604e-01 2.451204e+00 2.220843e-04 4.011146e-04 -9.990794e-04
Al -1.607591e+00 8.970698e-01 7.526373e+00 7.238011e-04 -1.621772e-03 2.447341e-04
Al -1.603074e+00 8.735625e-01 -2.715860e+00 3.362766e-04 -7.112224e-04 1.371117e-04
Ga -3.208721e+00 3.642076e+00 2.431712e+00 4.532237e-05 3.176385e-04 1.012375e-04
Ga -3.217009e+00 3.634303e+00 7.548374e+00 9.868667e-05 -5.218164e-04 9.221764e-04
Al -3.205692e+00 3.633985e+00 -2.708816e+00 -1.843424e-05 -1.335944e-05 9.208629e-05
Al -2.239321e-02 -1.864091e+00 2.411080e+00 -2.822467e-04 -1.532986e-03 -1.335527e-03
Ga -3.227838e-02 -1.857621e+00 7.559573e+00 8.348045e-05 1.441926e-04 1.206566e-03
Al -2.331535e-02 -1.870923e+00 -2.715292e+00 -3.879423e-04 -9.224310e-06 1.116045e-03
Al -1.892812e-02 1.805446e+00 4.991882e+00 -1.979969e-03 -4.193958e-03 6.656590e-04
Ga -2.977297e-02 1.777423e+00 -5.292621e+00 -6.485635e-04 2.648200e-05 1.467121e-03
Ga -2.684916e-02 1.780530e+00 -1.478882e-01 -2.152509e-04 3.324959e-04 1.997475e-03
Ga 3.164256e+00 -3.716389e+00 4.987150e+00 -2.778983e-04 9.639480e-04 5.058378e-04
Ga 3.164178e+00 -3.719196e+00 -5.276657e+00 -3.632631e-04 1.655384e-04 8.977936e-04
Al 3.153194e+00 -3.713025e+00 -1.434732e-01 -5.639583e-04 -1.170710e-06 5.961321e-04
Ga 1.558341e+00 -9.469698e-01 4.965081e+00 -9.741789e-04 1.143016e-03 1.243043e-03
Ga 1.561043e+00 -9.640574e-01 -5.279569e+00 -9.276128e-04 9.068187e-04 5.308966e-04
Al 1.551922e+00 -9.711663e-01 -1.413750e-01 -9.380324e-04 9.804811e-05 1.128079e-03
Al 3.164223e+00 1.806944e+00 4.998855e+00 -1.327575e-03 -1.176372e-03 6.682415e-04
Ga 3.155746e+00 1.788278e+00 -5.317538e+00 -1.000334e-04 -2.266889e-04 8.656574e-04
Ga 3.147307e+00 1.778876e+00 -1.214207e-01 -6.001887e-04 8.032747e-04 -1.492603e-03
Ga 6.353495e+00 -3.710606e+00 4.996033e+00 2.055620e-04 9.021427e-04 5.344710e-04
Ga 6.348186e+00 -3.709217e+00 -5.299596e+00 -8.443318e-06 -1.613268e-04 1.265552e-04
Ga 6.335838e+00 -3.705728e+00 -1.262148e-01 4.467407e-06 -3.311336e-04 -5.902113e-04
Ga 4.760583e+00 -9.360723e-01 4.964785e+00 -4.361519e-04 8.156274e-04 1.138059e-03
Al 4.759375e+00 -9.542741e-01 -5.297017e+00 -1.647337e-04 4.086916e-04 -3.558689e-04
Ga 4.752063e+00 -9.652642e-01 -9.874894e-02 -9.088274e-04 -5.132724e-04 -1.573194e-03
Al -3.204348e+00 1.805296e+00 5.001559e+00 -4.180999e-03 -4.562272e-03 3.701455e-04
Ga -3.206015e+00 1.781105e+00 -5.296648e+00 1.559225e-05 -3.752465e-04 4.906547e-04
Ga -3.201036e+00 1.799910e+00 -1.487867e-01 2.968885e-04 5.246722e-04 -2.348260e-04
Al -2.584892e-02 -3.698662e+00 4.986699e+00 -5.904358e-04 4.298667e-04 2.578910e-04
Al -2.752790e-02 -3.703664e+00 -5.280927e+00 -7.328234e-05 -4.358673e-04 9.862808e-04
Al -5.874093e-03 -3.685634e+00 -1.561750e-01 -5.052773e-05 1.129141e-04 1.277323e-03
Al -1.599991e+00 -9.408127e-01 4.973350e+00 -1.084292e-03 -4.853643e-03 3.333018e-03
Al -1.607627e+00 -9.562003e-01 -5.284769e+00 -6.041095e-04 5.457371e-04 1.477074e-04
Al -1.592859e+00 -9.678807e-01 -1.478859e-01 -2.946557e-06 -1.895124e-05 5.877847e-04
N 1.568021e+00 9.374099e-01 4.362184e+00 1.761413e-04 -5.690269e-04 4.680911e-04
N 1.557963e+00 8.726772e-01 -5.981748e+00 4.947782e-04 -7.947987e-04 -8.826019e-04
N 1.563830e+00 8.247852e-01 -7.924544e-01 3.200185e-04 -6.577597e-04 3.692286e-04
N -2.366408e-02 3.587224e+00 4.343479e+00 -6.537020e-04 6.031450e-04 -1.313116e-03
N -2.774064e-02 3.615890e+00 -5.963677e+00 -2.722175e-05 4.335680e-05 -5.538345e-04
N -6.780924e-02 3.646710e+00 -7.905172e-01 -2.496472e-04 -1.869804e-04 9.507305e-04
N 3.156187e+00 -1.873744e+00 4.309015e+00 5.515422e-04 -4.704840e-04 -5.448876e-04
N 3.198582e+00 -1.857849e+00 -5.878401e+00 7.271015e-05 -2.168991e-05 -5.295273e-04
N 3.123008e+00 -1.896342e+00 -7.083765e-01 -4.405138e-04 3.438371e-05 3.793191e-04
N -4.805657e+00 9.392596e-01 4.365049e+00 4.564279e-03 9.075882e-04 -1.123319e-05
N -4.796297e+00 8.310034e-01 -5.957783e+00 6.083595e-04 -4.411242e-04 -5.202434e-04
N -4.800035e+00 8.675351e-01 -7.627072e-01 6.906577e-04 1.468730e-04 1.794775e-05
N -6.343854e+00 3.609177e+00 4.412393e+00 4.689182e-04 1.251533e-03 -7.293824e-04
N -6.341450e+00 3.649052e+00 -5.950880e+00 3.435125e-04 4.617060e-04 -8.561780e-04
N -6.346956e+00 3.646792e+00 -7.317824e-01 3.021380e-04 4.129901e-04 -1.940533e-04
N -3.154511e+00 -1.848152e+00 4.342981e+00 1.371104e-03 5.132202e-06 -9.886253e-04
N -3.193750e+00 -1.828331e+00 -5.871444e+00 1.309482e-04 3.054563e-04 7.300303e-05
N -3.163350e+00 -1.849877e+00 -7.463085e-01 7.133777e-04 4.180849e-04 -3.647678e-04
N -1.623508e+00 8.725370e-01 4.437639e+00 4.110397e-03 7.181419e-03 -1.882066e-03
N -1.617482e+00 8.279861e-01 -5.965055e+00 8.647327e-04 -7.914833e-04 -6.783850e-04
N -1.619105e+00 8.243555e-01 -7.969190e-01 9.020295e-04 -5.249115e-04 3.091866e-04
N -3.250183e+00 3.613068e+00 4.416557e+00 4.020165e-04 1.096239e-03 -1.493673e-03
N -3.254397e+00 3.651474e+00 -5.895678e+00 -5.287893e-05 -3.865321e-05 -5.160801e-04
N -3.211215e+00 3.677907e+00 -7.791978e-01 4.915145e-04 -1.041855e-05 -3.195194e-04
N -6.177789e-02 -1.892071e+00 4.331607e+00 -4.349096e-04 -1.882610e-04 1.326223e-03
N -6.758616e-02 -1.901632e+00 -5.878475e+00 4.214502e-04 -1.691748e-04 -4.496652e-04
N -2.443478e-02 -1.873190e+00 -7.765178e-01 3.206320e-04 -6.284607e-05 -5.839759e-04
N 1.980695e-02 1.806168e+00 1.851402e+00 -2.297492e-03 2.503968e-03 -4.033908e-03
N -1.971672e-02 1.809314e+00 6.922610e+00 -5.988092e-04 -4.326364e-05 -9.580871e-04
N -2.541243e-02 1.789353e+00 -3.291444e+00 -1.506443e-04 1.259243e-04 -2.229198e-04
N 3.203910e+00 -3.697671e+00 1.788215e+00 9.455206e-05 4.114798e-04 -7.555820e-04
N 3.208936e+00 -3.719606e+00 6.958483e+00 -6.451468e-05 6.287597e-05 -5.111786e-04
N 3.164225e+00 -3.762292e+00 -3.296203e+00 -2.238654e-04 -1.580117e-05 -2.067249e-04
N 1.555149e+00 -9.549336e-01 1.803472e+00 2.529080e-03 1.277672e-03 1.848849e-04
N 1.573260e+00 -9.056186e-01 6.945241e+00 -6.451828e-04 9.688339e-04 -7.650356e-04
N 1.526609e+00 -9.384584e-01 -3.296325e+00 3.453556e-04 7.692687e-04 -6.744126e-04
N 3.153872e+00 1.747976e+00 1.847672e+00 -8.312906e-04 -1.189654e-03 1.769551e-03
N 3.161954e+00 1.808027e+00 6.933187e+00 -4.589635e-04 -2.866665e-04 -1.505088e-04
N 3.107398e+00 1.766610e+00 -3.335582e+00 -8.060212e-04 -1.582913e-05 -4.249090e-04
N 6.300371e+00 -3.686811e+00 1.854429e+00 -6.127778e-04 -7.750727e-05 3.023622e-04
N 6.345962e+00 -3.738441e+00 6.980694e+00 3.682523e-05 -7.393121e-04 -2.642287e-04
N 6.298110e+00 -3.740550e+00 -3.319539e+00 -1.949060e-04 -2.430503e-04 -2.242974e-04
N 4.752272e+00 -9.533828e-01 1.879477e+00 7.819590e-04 2.923396e-04 1.411455e-03
N 4.757722e+00 -9.004291e-01 6.938095e+00 -3.802786e-04 5.971451e-04 -3.279992e-04
N 4.746329e+00 -9.626337e-01 -3.389269e+00 -6.416234e-04 -5.845703e-06 -1.847977e-06
N -3.241617e+00 1.770209e+00 1.830039e+00 -4.480008e-04 -4.749489e-05 1.880912e-04
N -3.204706e+00 1.762995e+00 6.923718e+00 -7.889971e-05 -2.692933e-04 -5.215422e-04
N -3.162920e+00 1.815071e+00 -3.303997e+00 4.585827e-04 4.552655e-04 -1.235872e-04
N -1.810735e-02 -3.658167e+00 1.766092e+00 4.351123e-04 -7.869555e-05 -9.181822e-04
N -5.819735e-02 -3.709835e+00 6.897875e+00 7.865278e-07 -1.575623e-04 -1.174571e-03
N 1.931841e-02 -3.687029e+00 -3.350141e+00 4.189513e-04 2.555897e-04 -7.433095e-05
N -1.609807e+00 -1.003644e+00 1.778968e+00 -1.050600e-04 6.026111e-04 3.290752e-04
N -1.604582e+00 -9.038534e-01 6.889029e+00 -3.850398e-04 1.167418e-03 -6.806689e-04
N -1.564465e+00 -9.320587e-01 -3.360109e+00 -1.232762e-04 5.093715e-04 -3.030538e-04
