108
Energy=-2542336.374346 Lattice="9.642244 0.000000 0.000000 -4.838609 8.321196 0.000000 -0.224526 -0.109212 15.618532" Stress="-0.000054 0.000000 -0.000045 0.000000 -0.000065 -0.000021 -0.000045 -0.000021 -0.000052" Properties=species:S:1:pos:R:3:forces:R:3
Al 1.470528 0.840545 2.460618 0.001820 -0.002401 -0.000394
Al 1.458209 0.828349 7.656998 0.001188 -0.001829 0.001523
Ga 1.675313 0.932081 -2.743858 0.000107 -0.003385 -0.000099
Al -0.132349 3.600734 2.467914 0.000658 0.000217 -0.000358
Ga -0.143256 3.589428 7.659655 -0.000185 -0.000215 0.001074
Ga 0.064117 3.696593 -2.743650 -0.000434 -0.000466 0.000593
Ga 3.102133 -1.941487 2.466837 0.000678 0.000017 -0.000017
Ga 3.091628 -1.940853 7.656314 0.000371 -0.000468 0.001211
Ga 3.300905 -1.842596 -2.757592 -0.000022 -0.000659 0.000090
Ga -4.960358 0.842712 2.433957 0.002955 -0.001502 0.004998
Ga -4.984781 0.823452 7.655812 0.001030 -0.002980 0.000665
Al -4.764774 0.931562 -2.769828 -0.000031 -0.003114 -0.000681
Ga -6.583936 3.599035 2.459719 0.001883 0.000726 0.000387
Ga -6.587808 3.594165 7.661208 0.000184 -0.000240 0.000506
Ga -6.367474 3.695507 -2.747972 -0.000965 -0.000375 0.000123
Ga -3.334466 -1.937791 2.432204 0.003164 0.000915 0.005151
Ga -3.360808 -1.944281 7.658758 0.000127 0.000025 0.001901
Ga -3.144006 -1.838864 -2.760557 -0.001209 -0.000761 -0.000889
Ga -1.743598 0.854960 2.452247 0.004662 -0.002669 -0.002346
Ga -1.765790 0.838164 7.662991 0.004523 -0.001787 -0.000729
Ga -1.574530 0.934752 -2.723003 0.005530 -0.001438 0.001147
Ga -3.356117 3.608239 2.456934 0.003174 0.002248 -0.001149
Ga -3.378827 3.603276 7.665820 0.003999 0.001068 0.000256
Ga -3.171799 3.695694 -2.732566 0.004104 0.001688 0.000563
Ga -0.129073 -1.929550 2.463533 0.005006 -0.000057 -0.001601
Ga -0.144145 -1.939984 7.662842 0.004128 0.001126 -0.000266
Ga 0.061893 -1.841808 -2.732191 0.004176 0.000954 0.001312
Ga -0.128350 1.752120 5.049016 -0.002588 -0.000239 0.001019
Ga 0.078530 1.851417 -5.354414 -0.002900 -0.001335 0.001099
Ga 0.057752 1.844290 -0.116558 -0.010781 -0.004791 -0.000975
Ga 3.103125 -3.793356 5.055121 -0.002925 -0.001027 0.000041
Ga 3.312571 -3.689440 -5.349033 -0.003814 -0.000977 -0.000159
Ga 3.299975 -3.708596 -0.129766 -0.010127 -0.003901 0.000354
Ga 1.498795 -1.021110 5.063040 -0.003933 0.002484 -0.000738
Ga 1.710019 -0.924623 -5.357746 -0.004470 0.002607 -0.000426
Ga 1.687252 -0.930332 -0.127405 -0.010780 -0.001009 -0.000530
Ga 3.065927 1.742771 5.053293 0.001469 0.000355 0.001304
Ga 3.282117 1.844717 -5.358577 -0.000482 0.000639 0.000959
Ga 3.281635 1.844853 -0.155596 -0.007433 -0.001557 0.003123
Ga 6.292492 -3.786796 5.049326 0.000736 0.001012 0.001015
Ga 6.506573 -3.686056 -5.352726 0.000798 0.000343 0.000115
Ga 6.501570 -3.693712 -0.141787 -0.005399 -0.004300 0.002542
Al 4.696840 -1.023176 5.045575 0.000178 0.002601 0.000947
Al 4.905360 -0.917097 -5.351454 -0.000540 0.001456 0.001100
Ga 4.903160 -0.921631 -0.173762 -0.007487 0.000341 0.001943
Ga -3.370312 1.751721 5.053906 -0.000961 0.000118 0.001254
Ga -3.161733 1.851251 -5.347999 0.000453 0.000866 0.001266
Al -3.204987 1.829938 -0.168580 0.003923 0.002441 0.005021
Ga -0.134600 -3.792064 5.059318 -0.000040 -0.000028 0.000443
Ga 0.077487 -3.689276 -5.346771 0.000216 0.000444 0.001407
Ga 0.062323 -3.696380 -0.137668 -0.002995 -0.000472 0.000413
Ga -1.749438 -1.022952 5.056175 -0.001361 0.002984 0.000553
Ga -1.536409 -0.920983 -5.351655 -0.000363 0.003341 0.000309
Al -1.580055 -0.938259 -0.151251 0.003887 0.004684 0.003516
N 1.467946 0.836671 4.383135 0.000103 -0.004116 -0.005416
N 1.677428 0.938747 -6.026089 0.000117 -0.003705 -0.006372
N 1.664009 0.932816 -0.774682 -0.001610 -0.004218 -0.000213
N -0.138533 3.603694 4.393668 -0.000746 -0.000686 -0.006501
N 0.071873 3.703973 -5.985659 -0.000523 -0.000417 -0.001268
N 0.061465 3.694750 -0.773311 -0.001935 -0.001500 -0.001002
N 3.122918 -1.927614 4.440575 0.004413 0.002484 0.001549
N 3.338302 -1.825494 -5.976930 0.004581 0.002244 0.000769
N 3.291190 -1.852668 -0.784965 -0.002737 -0.001609 0.000117
N -4.968352 0.802002 4.425100 0.000915 -0.007190 0.000906
N -4.757969 0.899197 -5.981428 0.000775 -0.007293 0.001053
N -4.751740 0.945728 -0.840475 0.002432 -0.002230 -0.000483
N -6.577936 3.602943 4.429825 0.000395 0.000076 0.000128
N -6.364044 3.706326 -5.982305 -0.000419 -0.000287 -0.000664
N -6.376196 3.700326 -0.778010 -0.002487 -0.001116 -0.000110
N -3.372629 -1.923860 4.421038 -0.004366 0.002780 0.000703
N -3.166859 -1.821740 -5.975249 -0.004848 0.002540 0.000780
N -3.124802 -1.838432 -0.789712 0.002062 0.000603 0.003625
N -1.762939 0.843933 4.423853 0.004487 -0.002298 -0.000213
N -1.553272 0.945713 -5.983338 0.003806 -0.002319 -0.000146
N -1.609020 0.910756 -0.729512 -0.000823 -0.003640 0.000619
N -3.369027 3.606981 4.426201 0.003927 0.001448 0.000222
N -3.158138 3.709563 -5.978909 0.003570 0.000711 -0.000176
N -3.175334 3.667580 -0.753315 0.002414 -0.005801 0.001087
N -0.138760 -1.937851 4.431927 0.004402 0.001445 0.000604
N 0.072739 -1.838654 -5.984401 0.003349 0.001185 -0.000101
N 0.024780 -1.828408 -0.749998 -0.003407 0.003873 0.000340
N -0.093070 1.776948 1.863023 0.008049 0.005116 0.002852
N -0.107567 1.731188 7.031860 0.000587 -0.004122 0.001188
N 0.068772 1.846454 -3.375470 -0.004939 -0.002094 -0.000472
N 3.133738 -3.808845 1.850289 0.008134 -0.000184 0.000773
N 3.093118 -3.801455 7.029259 -0.003958 -0.000807 0.000212
N 3.301201 -3.701612 -3.376302 -0.004515 -0.001319 0.000080
N 1.500190 -0.990680 1.851267 0.003064 0.009554 0.000650
N 1.488004 -0.993445 7.042043 -0.004708 0.005590 0.001950
N 1.694597 -0.930989 -3.382943 -0.005051 0.001862 -0.000045
N 3.044289 1.740155 1.828134 0.003856 -0.000302 -0.001736
N 3.032649 1.731648 7.036940 -0.004799 -0.002607 0.000845
N 3.303241 1.835044 -3.377269 0.004425 -0.002914 0.001100
N 6.273186 -3.810877 1.837786 0.002224 0.002288 -0.001516
N 6.292648 -3.796588 7.026477 0.000288 0.000076 -0.001278
N 6.507166 -3.696960 -3.381245 -0.000085 -0.000001 -0.000196
N 4.701694 -1.022775 1.794659 0.006061 0.007268 -0.000490
N 4.692223 -1.030439 6.977831 -0.001300 0.003218 -0.006514
N 4.901802 -0.892172 -3.411570 -0.001178 0.007645 -0.003784
N -3.335387 1.772949 1.783763 -0.002820 -0.001664 -0.010713
N -3.374104 1.753218 7.029144 -0.000082 -0.000014 -0.000771
N -3.189914 1.838116 -3.367126 -0.004447 -0.002453 0.000440
N -0.130236 -3.788845 1.830940 0.005038 0.002230 -0.000262
N -0.141082 -3.796227 7.031267 -0.000155 0.000445 -0.000858
N 0.072090 -3.693089 -3.370639 0.000414 0.000510 -0.001584
N -1.706090 -1.008097 1.789770 -0.003859 0.002673 -0.008337
N -1.749257 -1.028615 7.029784 -0.000551 0.003449 -0.000372
N -1.534177 -0.925055 -3.378671 -0.000445 0.003872 -0.000881
