108
Energy=-848643.542754 Lattice="9.445540 0.000000 0.000000 -4.723353 8.178896 0.000000 -0.011397 0.000597 15.182056" Stress="0.000000 0.000000 -0.000003 0.000000 -0.000000 0.000000 -0.000003 0.000000 -0.000001" Properties=species:S:1:pos:R:3:forces:R:3
Al 1.561261 0.873567 2.375423 -0.000245 -0.000084 0.000230
Al 1.558264 0.862363 7.444831 0.000042 0.000028 0.000005
Al 1.570791 0.867746 -2.677961 0.000144 0.000098 -0.000121
Al -0.024052 3.597722 2.394457 0.000147 -0.000193 0.000145
Al -0.027252 3.609356 7.440439 -0.000024 0.000179 0.000083
Al -0.023503 3.600104 -2.687324 -0.000045 0.000388 0.000074
Al 3.136742 -1.851712 2.388067 -0.000158 0.000265 0.000114
Al 3.120835 -1.855039 7.445685 0.000003 -0.000010 0.000219
Al 3.124232 -1.856588 -2.696844 -0.000015 -0.000103 0.000072
Al -4.761423 0.859407 2.404112 0.000332 0.000125 0.000068
Al -4.753412 0.869653 7.437427 0.000052 -0.000010 0.000088
Al -4.763172 0.872945 -2.700684 0.000110 0.000059 0.000095
Al -6.333102 3.579323 2.417679 0.000802 0.000350 -0.000181
Al -6.329052 3.594284 7.443291 -0.000045 0.000008 0.000044
Al -6.315143 3.582865 -2.717810 0.000119 -0.000034 -0.000861
Al -3.181270 -1.849426 2.402072 -0.000170 -0.000065 0.000059
Al -3.180129 -1.858722 7.439671 0.000018 0.000001 0.000011
Ga -3.173168 -1.858189 -2.695320 -0.000053 -0.000026 -0.000028
Al -1.596436 0.862272 2.391516 -0.000167 0.001104 0.000587
Al -1.614602 0.866693 7.446511 -0.000023 -0.000047 0.000327
Ga -1.591830 0.871023 -2.684769 0.000007 -0.000042 0.000024
Ga -3.161524 3.596173 2.418537 0.000004 -0.000189 -0.000008
Al -3.175968 3.596040 7.441655 0.000039 -0.000050 -0.000073
Al -3.168524 3.606789 -2.714584 0.000050 -0.000132 -0.000096
Ga -0.024348 -1.841695 2.410731 0.000036 -0.000118 0.000062
Al -0.024303 -1.853967 7.437837 -0.000025 -0.000105 -0.000069
Al -0.007788 -1.856634 -2.700882 -0.000067 -0.000219 -0.000132
Ga -0.024900 1.775458 4.925763 -0.000073 0.000040 -0.000011
Ga -0.011523 1.781251 -5.226298 -0.000025 0.000054 0.000031
Al -0.010828 1.775279 -0.140975 -0.000126 0.000125 -0.000087
Al 3.122582 -3.660779 4.937620 0.000048 0.000062 0.000086
Al 3.128099 -3.664721 -5.223580 -0.000063 0.000028 0.000062
Al 3.134298 -3.663195 -0.162241 -0.000098 0.000045 -0.000145
Al 1.561273 -0.952470 4.929313 0.000015 0.000131 0.000088
Al 1.562619 -0.955819 -5.215840 -0.000171 0.000065 0.000215
Al 1.563567 -0.941588 -0.165939 -0.000211 0.000027 -0.000081
Al 3.128375 1.775930 4.923883 -0.000068 -0.000075 0.000215
Al 3.138520 1.775441 -5.222665 0.000038 0.000009 0.000168
Al 3.120587 1.765346 -0.149258 0.000082 0.000710 -0.000972
Al 6.274071 -3.666851 4.916391 -0.000121 0.000104 -0.000036
Al 6.281063 -3.670079 -5.226186 -0.000008 0.000010 0.000061
Ga 6.270838 -3.682159 -0.136396 0.000143 0.000001 0.000539
Al 4.693929 -0.949236 4.920550 -0.000083 -0.000095 0.000103
Al 4.699910 -0.944938 -5.234505 -0.000073 -0.000048 0.000071
Al 4.686056 -0.945037 -0.140058 -0.000163 -0.000035 0.000012
Al -3.185706 1.770896 4.930058 0.000277 -0.000061 -0.000253
Al -3.183214 1.780099 -5.227364 -0.000162 0.000136 0.000099
Ga -3.177857 1.771611 -0.146408 -0.000017 0.000012 0.000070
Al -0.033546 -3.677503 4.950409 0.000129 0.000064 0.000005
Al -0.018595 -3.671017 -5.227902 0.000066 0.000026 -0.000103
Ga -0.023562 -3.668861 -0.169479 0.000224 0.000143 -0.000117
Al -1.612088 -0.951742 4.937342 0.000037 0.000219 -0.000031
Al -1.593659 -0.959104 -5.243265 0.000079 0.000050 -0.000278
Al -1.588705 -0.944199 -0.132910 -0.000040 -0.000126 -0.000272
N 1.590673 0.844007 4.294011 0.000208 0.000007 -0.000230
N 1.603167 0.840533 -5.833727 0.000030 -0.000031 -0.000153
N 1.555366 0.871356 -0.752234 0.000144 -0.000046 0.000057
N -0.032774 3.642533 4.307674 0.000035 0.000034 -0.000089
N -0.019538 3.649444 -5.838845 0.000020 -0.000104 -0.000084
N -0.060913 3.572428 -0.770631 0.000065 0.000008 0.000239
N 3.122873 -1.858084 4.312563 -0.000018 -0.000064 -0.000203
N 3.128687 -1.856366 -5.821751 -0.000009 -0.000032 -0.000111
N 3.130958 -1.856044 -0.769655 0.000096 -0.000074 -0.000040
N -4.754688 0.866607 4.323956 0.000114 -0.000018 -0.000093
N -4.743821 0.870074 -5.830544 0.000074 0.000038 -0.000114
N -4.790408 0.842800 -0.780651 0.000054 0.000075 -0.000012
N -6.322329 3.591446 4.334035 0.000110 -0.000051 -0.000108
N -6.316433 3.594221 -5.818981 -0.000046 -0.000042 0.000028
N -6.322770 3.546206 -0.812082 -0.000191 -0.000880 0.002026
N -3.176082 -1.852603 4.323436 0.000005 0.000148 -0.000046
N -3.170972 -1.859089 -5.824653 0.000009 0.000083 -0.000067
N -3.171146 -1.809326 -0.717926 0.000004 0.000135 -0.000014
N -1.640376 0.843879 4.307090 -0.000261 -0.000285 -0.000115
N -1.639086 0.849157 -5.828782 0.000235 -0.000151 -0.000396
N -1.555608 0.846954 -0.715605 0.000059 -0.000000 -0.000010
N -3.174371 3.599722 4.393432 -0.000003 -0.000084 0.000030
N -3.166095 3.598059 -5.819362 0.000027 -0.000108 0.000045
N -3.127714 3.618706 -0.802339 0.000010 -0.000084 0.000035
N -0.026042 -1.854141 4.388780 -0.000031 -0.000241 -0.000076
N -0.011301 -1.855574 -5.827497 0.000056 -0.000090 -0.000040
N -0.021740 -1.804144 -0.780457 -0.000006 -0.000035 -0.000053
N -0.021496 1.779902 1.792485 0.000164 0.000056 0.000027
N -0.027054 1.777894 6.903828 0.000031 -0.000206 0.000009
N 0.027268 1.801871 -3.258495 -0.000032 -0.000424 0.000001
N 3.165415 -3.649000 1.759199 -0.000005 0.000110 -0.000016
N 3.121501 -3.668962 6.848590 -0.000002 0.000080 -0.000037
N 3.133303 -3.671181 -3.303109 0.000008 0.000177 -0.000036
N 1.594058 -0.927899 1.756882 0.000095 -0.000047 0.000049
N 1.552624 -0.947959 6.841852 -0.000045 0.000082 -0.000192
N 1.558140 -0.945544 -3.291139 -0.000028 0.000081 -0.000010
N 3.128688 1.781592 1.778444 0.000018 0.000204 0.000154
N 3.120197 1.779420 6.838492 0.000009 0.000004 -0.000087
N 3.125836 1.774177 -3.307790 -0.000096 -0.000168 -0.000114
N 6.278122 -3.676317 1.851810 -0.000322 0.000153 -0.001087
N 6.271277 -3.673194 6.835146 0.000059 0.000015 -0.000078
N 6.274186 -3.720319 -3.313445 -0.000043 0.000135 0.000003
N 4.696517 -0.945852 1.787949 0.000072 0.000067 0.000110
N 4.693252 -0.948584 6.841522 -0.000116 -0.000052 -0.000154
N 4.660926 -0.924352 -3.321540 -0.000178 -0.000036 -0.000099
N -3.180263 1.734012 1.828936 -0.000113 -0.000240 -0.000042
N -3.179626 1.776961 6.844666 -0.000060 -0.000016 0.000038
N -3.212795 1.799011 -3.309949 -0.000124 -0.000001 -0.000001
N -0.064277 -3.696330 1.803293 -0.000779 -0.000503 0.000575
N -0.031838 -3.676067 6.861146 -0.000020 0.000062 0.000121
N -0.021014 -3.669973 -3.302684 0.000101 0.000101 -0.000068
N -1.637010 -0.929136 1.777890 0.000160 -0.000615 -0.000078
N -1.605901 -0.947874 6.851113 -0.000002 0.000046 0.000051
N -1.552975 -0.972510 -3.342232 -0.000051 0.000031 0.000374
