108
Energy=-1.123296e+06 Lattice="9.476274e+00 0.000000e+00 0.000000e+00 -4.739047e+00 8.203662e+00 0.000000e+00 -1.604627e-03 -3.103782e-02 1.527466e+01" Stress="2.861559e-05 -9.782578e-05 -6.085942e-05 -9.862535e-05 -4.233865e-04 -1.342970e-03 -6.555538e-05 -1.347777e-03 5.357004e-04" Properties=species:S:1:pos:R:3:forces:R:3 Config_type=AlGaN_super3_15_1_51.xyz
Al 1.554482e+00 8.677607e-01 2.398689e+00 -1.711737e-05 1.571000e-04 4.940077e-05
Al 1.554030e+00 8.596031e-01 7.462620e+00 -1.086621e-05 -7.532808e-06 -6.919557e-05
Al 1.559809e+00 8.774703e-01 -2.669834e+00 -7.070586e-05 -2.966960e-05 -4.858512e-05
Al -3.894315e-02 3.598359e+00 2.385854e+00 5.878112e-05 5.079324e-07 1.132528e-04
Al -2.199757e-02 3.581831e+00 7.472019e+00 -2.318126e-04 -2.613381e-05 -4.920505e-05
Al -1.632076e-02 3.615267e+00 -2.664542e+00 -5.115094e-05 3.468007e-05 1.049178e-04
Al 3.129610e+00 -1.878129e+00 2.379876e+00 2.003172e-04 6.827275e-05 1.674474e-05
Al 3.131966e+00 -1.873621e+00 7.497272e+00 -7.003457e-05 1.005180e-05 9.594546e-05
Ga 3.138269e+00 -1.846711e+00 -2.682436e+00 1.103996e-05 1.953389e-05 -1.727853e-05
Al -4.767153e+00 8.694193e-01 2.415662e+00 8.121598e-05 -1.291983e-04 -1.007478e-04
Al -4.762016e+00 8.612617e-01 7.480785e+00 -1.303258e-04 -2.643711e-04 3.596891e-05
Al -4.756289e+00 8.788188e-01 -2.699182e+00 -1.785873e-04 -1.163232e-04 4.983283e-05
Ga -6.335311e+00 3.595115e+00 2.384810e+00 4.502135e-05 -2.135909e-05 1.004584e-05
Al -6.339913e+00 3.586740e+00 7.485100e+00 -2.032296e-07 2.159133e-04 4.401768e-05
Ga -6.345762e+00 3.613955e+00 -2.673456e+00 -1.191001e-05 -6.423495e-05 -1.337921e-05
Al -3.175452e+00 -1.859825e+00 2.400772e+00 1.528098e-05 3.899264e-05 -4.574460e-05
Ga -3.176469e+00 -1.874586e+00 7.502072e+00 4.700056e-06 -1.654654e-05 5.783716e-05
Al -3.184480e+00 -1.856830e+00 -2.707703e+00 1.461844e-05 5.777502e-05 1.470749e-05
Al -1.593667e+00 8.625685e-01 2.401550e+00 -9.419769e-05 -5.075875e-05 2.981422e-05
Al -1.598314e+00 8.561295e-01 7.468798e+00 5.116543e-05 1.137622e-04 2.785806e-05
Ga -1.608451e+00 8.826249e-01 -2.679955e+00 2.523793e-05 -4.573454e-05 -3.581374e-05
Al -3.171140e+00 3.610368e+00 2.422508e+00 -1.996687e-04 -2.029321e-05 -1.133418e-04
Ga -3.185083e+00 3.586802e+00 7.465779e+00 4.775431e-05 3.873865e-06 -2.894807e-05
Al -3.184780e+00 3.605685e+00 -2.694366e+00 -3.022947e-05 -1.084544e-04 1.635169e-04
Al -2.411145e-02 -1.862651e+00 2.388806e+00 -1.574620e-04 -1.148585e-04 5.258940e-05
Al -2.323868e-02 -1.872575e+00 7.490026e+00 -2.471102e-04 -2.632048e-05 -1.938885e-05
Ga -2.000060e-02 -1.850522e+00 -2.683103e+00 2.370018e-05 2.225412e-07 -3.462264e-05
Al -3.375817e-02 1.773834e+00 4.931948e+00 -1.724014e-05 -2.328401e-05 5.001976e-05
Ga -2.174152e-02 1.790129e+00 -5.245489e+00 -5.031569e-05 -4.462085e-05 -3.646266e-05
Al -8.032779e-03 1.786412e+00 -1.315721e-01 1.395967e-05 -2.809283e-05 -3.405104e-06
Al 3.133161e+00 -3.705465e+00 4.933823e+00 5.353907e-05 -1.285497e-04 2.166966e-05
Ga 3.139597e+00 -3.672460e+00 -5.235441e+00 -5.674200e-06 2.422674e-05 -4.636583e-05
Al 3.131150e+00 -3.694339e+00 -1.393845e-01 6.524739e-05 -1.668358e-05 2.719596e-06
Ga 1.546215e+00 -9.659460e-01 4.934384e+00 -5.668036e-05 2.027985e-05 9.423910e-06
Al 1.550980e+00 -9.391932e-01 -5.266374e+00 2.829878e-05 1.585903e-05 -5.170748e-05
Al 1.544336e+00 -9.399431e-01 -1.117976e-01 4.322775e-05 -2.871704e-05 -1.304817e-04
Al 3.140308e+00 1.777100e+00 4.955882e+00 -9.919224e-05 4.048975e-05 9.429221e-06
Ga 3.143134e+00 1.791374e+00 -5.249639e+00 7.232868e-06 -5.200987e-05 -1.163810e-05
Al 3.123426e+00 1.777677e+00 -1.466087e-01 2.545032e-04 -1.458709e-04 -1.698027e-05
Ga 6.293763e+00 -3.706597e+00 4.937471e+00 -1.160720e-05 -5.776941e-05 -3.524025e-05
Al 6.298931e+00 -3.667230e+00 -5.240897e+00 -9.321217e-06 1.001061e-04 -7.069574e-06
Al 6.289602e+00 -3.681960e+00 -1.376061e-01 2.667079e-05 6.386864e-05 4.098475e-05
Ga 4.712329e+00 -9.539194e-01 4.932602e+00 -2.436398e-05 -2.962609e-05 -1.391741e-05
Al 4.723877e+00 -9.332278e-01 -5.241325e+00 1.182990e-04 1.430920e-04 -1.783542e-05
Ga 4.722595e+00 -9.512313e-01 -1.288860e-01 3.537451e-05 1.656372e-05 4.435783e-05
Al -3.175871e+00 1.773936e+00 4.918897e+00 5.199586e-06 -3.010956e-06 -6.145734e-05
Al -3.186642e+00 1.783583e+00 -5.244613e+00 -3.562624e-05 -8.340705e-05 -2.340392e-05
Ga -3.184916e+00 1.799783e+00 -1.180300e-01 -5.187409e-05 -3.361865e-05 1.288499e-05
Al -1.938448e-02 -3.693248e+00 4.939079e+00 -9.000426e-05 -1.287094e-04 -1.671041e-04
Al -2.759285e-02 -3.664525e+00 -5.251821e+00 -3.717427e-05 -7.326198e-06 -6.746816e-05
Al -1.258729e-02 -3.677406e+00 -1.305513e-01 5.916969e-05 -6.213128e-05 1.683381e-04
Al -1.590518e+00 -9.531007e-01 4.934306e+00 1.937298e-04 1.485792e-04 -1.788533e-04
Al -1.601305e+00 -9.440804e-01 -5.252639e+00 -3.191164e-05 1.309325e-04 -6.108025e-05
Al -1.595821e+00 -9.618011e-01 -1.254037e-01 -4.107111e-04 -6.782452e-05 1.080881e-04
N 1.558670e+00 9.141894e-01 4.320840e+00 -1.356677e-05 -1.040793e-04 1.411092e-05
N 1.556471e+00 8.435464e-01 -5.908289e+00 5.928753e-06 -2.720713e-05 2.689625e-06
N 1.553104e+00 8.673074e-01 -7.469723e-01 2.766941e-05 -1.201855e-06 4.471023e-05
N -6.807358e-02 3.571040e+00 4.303105e+00 -5.960263e-05 7.793280e-05 -1.902119e-04
N 1.702250e-02 3.639914e+00 -5.896012e+00 8.027162e-05 -1.736547e-05 1.423053e-04
N -2.176875e-02 3.608084e+00 -7.408158e-01 1.917269e-05 8.963919e-06 6.076809e-05
N 3.131426e+00 -1.923350e+00 4.286316e+00 -3.545346e-05 -3.631291e-05 -7.264475e-06
N 3.140209e+00 -1.806084e+00 -5.858454e+00 -1.209010e-04 -5.911841e-05 -1.870296e-04
N 3.090271e+00 -1.878451e+00 -7.028702e-01 4.812223e-06 -2.754344e-05 4.394933e-05
N -4.769263e+00 9.142669e-01 4.321075e+00 1.333792e-04 -1.311906e-05 2.277660e-05
N -4.717555e+00 8.622744e-01 -5.878392e+00 -3.441105e-05 -3.863372e-05 -6.130994e-05
N -4.794913e+00 8.972735e-01 -7.903225e-01 -1.295227e-04 3.821528e-05 1.557384e-04
N -6.297633e+00 3.569618e+00 4.356267e+00 7.423888e-05 1.940804e-04 1.483281e-04
N -6.340150e+00 3.665942e+00 -5.867607e+00 -5.088093e-05 -6.694010e-05 -6.189784e-05
N -6.339162e+00 3.612297e+00 -6.846723e-01 -1.510011e-04 7.864497e-05 -1.067905e-04
N -3.136531e+00 -1.848956e+00 4.305837e+00 -6.809770e-05 -1.229794e-04 1.121539e-04
N -3.180103e+00 -1.850459e+00 -5.797242e+00 3.823090e-05 2.771783e-05 2.095467e-05
N -3.137650e+00 -1.882861e+00 -7.814914e-01 1.471842e-04 3.231985e-05 3.465152e-05
N -1.596562e+00 8.587470e-01 4.324167e+00 1.913890e-06 6.564006e-05 5.205674e-06
N -1.642180e+00 8.626906e-01 -5.878604e+00 2.741540e-05 -1.302340e-04 -1.844643e-05
N -1.564194e+00 8.495760e-01 -7.027308e-01 5.171181e-05 7.131563e-05 -9.655336e-05
N -3.182118e+00 3.602608e+00 4.345938e+00 -3.890884e-06 2.231363e-06 -2.602632e-05
N -3.221801e+00 3.592214e+00 -5.832382e+00 7.360670e-06 9.960644e-05 -4.721377e-06
N -3.185710e+00 3.653116e+00 -7.772775e-01 -6.972712e-05 -1.748855e-05 -1.473589e-04
N -6.583707e-02 -1.897112e+00 4.302325e+00 2.109081e-05 3.487629e-05 -1.576706e-04
N -2.448861e-02 -1.850650e+00 -5.860282e+00 3.021502e-05 1.510343e-06 1.123922e-05
N -2.065800e-02 -1.857316e+00 -6.980048e-01 1.569482e-04 -1.128127e-04 -8.823458e-05
N -1.921519e-02 1.777905e+00 1.789610e+00 -6.287047e-06 6.994447e-05 2.815058e-05
N -2.696561e-02 1.768701e+00 6.859605e+00 6.739261e-06 2.858911e-05 4.860821e-05
N 2.078675e-02 1.816207e+00 -3.263444e+00 1.174409e-04 -1.330076e-04 3.521135e-07
N 3.130918e+00 -3.699326e+00 1.779969e+00 4.411543e-06 5.735934e-05 3.261579e-05
N 3.178745e+00 -3.673014e+00 6.854063e+00 3.206337e-05 1.129778e-04 9.265961e-05
N 3.141818e+00 -3.726658e+00 -3.259694e+00 2.432201e-05 6.494818e-05 -5.125498e-05
N 1.552619e+00 -9.485447e-01 1.805610e+00 1.460222e-05 4.478533e-05 -1.779333e-05
N 1.554947e+00 -9.714269e-01 6.916578e+00 2.677903e-04 8.757459e-05 6.106297e-05
N 1.555015e+00 -8.921213e-01 -3.349118e+00 -2.531962e-05 6.204774e-05 4.814541e-05
N 3.135509e+00 1.723376e+00 1.762985e+00 -3.932962e-05 -9.456052e-05 -1.575690e-04
N 3.138852e+00 1.769239e+00 6.879792e+00 -1.459342e-05 7.956127e-05 7.070125e-05
N 3.132654e+00 1.744932e+00 -3.270182e+00 -4.100351e-05 2.009721e-05 9.000622e-06
N 6.249237e+00 -3.663239e+00 1.778260e+00 -5.445922e-05 -5.652097e-05 -1.019110e-05
N 6.294457e+00 -3.745456e+00 6.904779e+00 2.738991e-04 1.028458e-05 -2.989274e-05
N 6.251619e+00 -3.661325e+00 -3.316356e+00 4.880112e-05 -5.330930e-05 -1.677722e-04
N 4.719552e+00 -9.517437e-01 1.850045e+00 -1.932833e-04 9.495966e-05 -7.068667e-05
N 4.673721e+00 -9.449084e-01 6.905143e+00 -1.357407e-05 1.953322e-04 9.485660e-05
N 4.754095e+00 -9.184317e-01 -3.319018e+00 -9.353371e-06 -4.617375e-07 7.985057e-05
N -3.183488e+00 1.783498e+00 1.862976e+00 1.071711e-04 6.042517e-05 4.250496e-05
N -3.180687e+00 1.717003e+00 6.836621e+00 8.895986e-05 2.162199e-05 -8.138030e-05
N -3.220486e+00 1.811849e+00 -3.323179e+00 1.765924e-04 1.371516e-04 -1.180579e-05
N 2.882740e-02 -3.669070e+00 1.778775e+00 2.325361e-04 1.396656e-05 5.052895e-05
N -6.482639e-02 -3.670358e+00 6.854654e+00 -1.028549e-04 -1.104415e-04 1.455460e-04
N 1.376732e-02 -3.697525e+00 -3.338162e+00 2.421721e-05 -1.544482e-05 4.454000e-05
N -1.604447e+00 -9.557436e-01 1.790066e+00 4.749796e-06 3.763620e-05 -2.236841e-05
N -1.558596e+00 -9.435576e-01 6.852840e+00 -3.606699e-05 -1.000618e-04 2.084357e-04
N -1.636463e+00 -9.633813e-01 -3.342859e+00 -2.886617e-05 -3.511576e-05 6.944513e-05
