108
Energy=-1489500.339647 Lattice="9.522530 0.000000 0.000000 -4.766212 8.242962 0.000000 -0.019735 0.004084 15.367777" Stress="-0.000001 -0.000002 -0.000004 -0.000002 -0.000006 0.000001 -0.000004 0.000001 -0.000006" Properties=species:S:1:pos:R:3:forces:R:3
Al 1.568039 0.882968 2.413499 0.000130 -0.001396 -0.000121
Al 1.550721 0.889915 7.509031 -0.000510 -0.000448 0.000256
Al 1.564036 0.893926 -2.691255 0.000001 0.000006 0.000076
Al -0.013658 3.617970 2.418704 -0.001213 0.000255 -0.000760
Al -0.023675 3.619418 7.527505 -0.000110 -0.000025 -0.000078
Al 0.013618 3.607852 -2.708745 -0.000636 0.000779 0.000041
Al 3.143738 -1.871554 2.422494 -0.000048 0.002753 -0.000284
Al 3.142718 -1.869235 7.523610 0.000165 0.000215 0.000283
Ga 3.175216 -1.859482 -2.701739 0.000165 0.000032 -0.000080
Al -4.789066 0.886061 2.431834 -0.000306 0.000834 -0.000087
Ga -4.807540 0.885196 7.527370 0.000766 0.000167 0.000177
Al -4.780082 0.874185 -2.721702 0.000043 0.000131 0.000127
Al -6.408011 3.605318 2.425320 0.001816 0.000193 -0.000406
Al -6.414195 3.614685 7.524329 0.000241 -0.000333 0.000091
Al -6.392465 3.620343 -2.704826 -0.000268 0.000046 0.000264
Ga -3.193067 -1.886317 2.418262 -0.000003 0.000562 0.000318
Ga -3.211859 -1.887379 7.527358 0.000249 0.000452 0.000529
Al -3.199415 -1.887707 -2.708630 -0.000054 -0.000102 0.000287
Al -1.613944 0.880624 2.394744 0.000123 -0.000448 0.000319
Al -1.615414 0.891601 7.536378 0.000389 0.000028 0.000007
Ga -1.605783 0.893164 -2.694689 0.000953 -0.000278 0.000440
Ga -3.188534 3.602814 2.436023 -0.000287 0.000663 -0.000715
Ga -3.193113 3.619025 7.516437 -0.000113 -0.000291 -0.000076
Ga -3.199533 3.606487 -2.698287 0.000187 -0.000243 -0.000242
Ga -0.018933 -1.846063 2.422952 0.000219 -0.000040 0.000119
Ga -0.027216 -1.848656 7.508682 0.000206 -0.000143 0.000156
Ga -0.021147 -1.863507 -2.680669 0.000373 -0.000208 0.000065
Ga -0.035676 1.791018 4.959953 -0.000483 0.000053 0.000643
Al -0.015569 1.803549 -5.290272 0.000128 -0.000618 -0.000142
Al -0.021293 1.786577 -0.127672 0.000270 0.000286 0.000536
Al 3.160155 -3.695890 4.974996 0.000175 0.000422 -0.000219
Ga 3.188742 -3.712345 -5.278935 -0.000397 0.000201 0.000370
Ga 3.176546 -3.718272 -0.137419 0.000078 0.000313 -0.000184
Al 1.570700 -0.947234 4.970607 -0.000025 0.000296 0.000192
Ga 1.585613 -0.936493 -5.280319 -0.000721 0.000164 0.000253
Al 1.561710 -0.939021 -0.129553 -0.000349 0.000298 0.000128
Al 3.136765 1.797184 4.957883 -0.000171 -0.000205 0.000467
Ga 3.144019 1.795374 -5.260671 0.000188 -0.000297 0.000440
Ga 3.144899 1.789853 -0.148127 0.000226 -0.000002 0.000273
Al 6.316243 -3.714666 4.976010 0.000252 -0.000576 -0.000014
Al 6.324735 -3.709294 -5.264364 0.000085 -0.000408 0.000310
Al 6.328809 -3.712247 -0.157750 -0.000034 -0.000086 0.000401
Ga 4.724957 -0.953940 4.954917 -0.000188 0.000637 0.000340
Al 4.754339 -0.956858 -5.267067 -0.000145 -0.000168 0.000397
Ga 4.756687 -0.950025 -0.132768 -0.000249 0.000176 0.001633
Al -3.197535 1.788503 4.963894 -0.000290 -0.002619 0.000628
Al -3.185991 1.779255 -5.274904 0.000019 0.000025 0.000551
Al -3.191544 1.773109 -0.129756 -0.000185 -0.000054 0.000301
Ga -0.046104 -3.706953 4.967874 0.000092 0.000005 -0.000187
Ga -0.029705 -3.714577 -5.274996 0.000312 0.000332 0.000207
Ga -0.032949 -3.702435 -0.124771 -0.000251 0.000078 0.000812
Al -1.621048 -0.934089 4.974340 -0.000024 0.000133 0.000346
Ga -1.621763 -0.939295 -5.266733 -0.000038 0.000145 0.000788
Al -1.610223 -0.946815 -0.149103 -0.000469 -0.000143 0.000002
N 1.592722 0.854561 4.335494 0.000940 -0.000432 -0.000717
N 1.531026 0.904380 -5.943317 0.000050 0.000281 -0.000249
N 1.517754 0.855152 -0.769520 -0.000214 0.000260 -0.000159
N -0.029986 3.670779 4.336429 -0.000026 0.000215 -0.000491
N 0.031956 3.601526 -5.918565 -0.000215 -0.000080 -0.000348
N 0.025728 3.586543 -0.784076 0.000016 -0.000122 -0.000236
N 3.098641 -1.896333 4.337463 -0.000391 -0.000313 -0.000838
N 3.202319 -1.849029 -5.923441 0.000294 -0.000038 -0.000389
N 3.118286 -1.847483 -0.734907 -0.000058 0.000135 0.000274
N -4.790664 0.933817 4.347591 -0.000198 0.000225 -0.000121
N -4.745135 0.855477 -5.855844 0.000176 0.000171 -0.000357
N -4.740738 0.897876 -0.803725 0.000453 0.000159 -0.000140
N -6.435728 3.599904 4.336347 -0.000198 -0.000056 -0.000592
N -6.418107 3.643583 -5.927597 -0.000488 0.000042 0.000024
N -6.413164 3.644835 -0.797517 -0.000331 0.000150 0.000010
N -3.155979 -1.902384 4.397409 0.000297 0.000393 -0.000195
N -3.230822 -1.902352 -5.856728 0.000189 0.000022 -0.000427
N -3.156132 -1.901763 -0.776981 0.000131 0.000034 -0.000191
N -1.659756 0.857741 4.314192 0.000137 -0.000336 -0.000432
N -1.604038 0.928594 -5.907407 0.000303 0.000027 -0.000318
N -1.606176 0.885299 -0.705679 0.000239 -0.000064 -0.000292
N -3.162165 3.601404 4.411486 0.000517 0.000893 -0.000168
N -3.188626 3.577371 -5.874770 0.000183 -0.000221 -0.000187
N -3.197367 3.571975 -0.725262 -0.000176 -0.000330 0.000332
N -0.029636 -1.812232 4.404716 0.000248 0.000105 -0.000187
N -0.016995 -1.862925 -5.891531 0.000127 -0.000241 -0.000320
N -0.016102 -1.822861 -0.704491 -0.000019 -0.000263 -0.000038
N -0.022442 1.794714 1.809342 0.000473 -0.000196 -0.000368
N -0.039989 1.794706 6.949469 0.000293 -0.000050 -0.000151
N 0.024673 1.812280 -3.356331 -0.000202 -0.000102 -0.000925
N 3.197203 -3.681699 1.834759 0.000993 -0.001338 0.001440
N 3.195925 -3.675705 6.900871 0.000145 0.000101 -0.000042
N 3.208775 -3.732177 -3.299688 0.000500 -0.000069 0.000353
N 1.607340 -0.926704 1.781079 0.000524 0.000551 0.001809
N 1.606328 -0.925431 6.890168 0.000127 0.000588 0.000193
N 1.574776 -0.902413 -3.308005 -0.000423 0.000177 -0.000567
N 3.153909 1.790628 1.840720 -0.001173 -0.000322 0.000087
N 3.096745 1.819068 6.884224 0.000269 0.000112 -0.000329
N 3.148722 1.792035 -3.267402 0.000247 -0.000258 0.000011
N 6.321802 -3.754658 1.763528 0.000364 -0.000247 0.000009
N 6.313201 -3.753612 6.887391 -0.000005 0.000040 -0.000315
N 6.332133 -3.706500 -3.332679 0.000030 0.000070 -0.000741
N 4.703678 -0.927881 1.857557 -0.001083 -0.001094 -0.001464
N 4.689620 -0.973531 6.921730 -0.000502 -0.000221 -0.000448
N 4.789493 -0.934012 -3.341363 -0.000060 -0.000217 -0.000281
N -3.203968 1.740672 1.783649 -0.000690 -0.000319 0.000230
N -3.167008 1.761688 6.873285 -0.000127 0.000256 -0.000055
N -3.229532 1.765903 -3.367197 -0.000152 -0.000180 -0.000246
N -0.068224 -3.730642 1.854347 -0.000429 0.000094 -0.000853
N -0.079212 -3.728518 6.937830 -0.000183 -0.000177 -0.000142
N -0.060828 -3.725253 -3.298046 -0.000141 -0.000080 -0.000020
N -1.615697 -0.912653 1.759173 -0.000059 0.000439 -0.000104
N -1.627346 -0.895511 6.888626 -0.000364 0.000121 -0.000258
N -1.645758 -0.971794 -3.293947 -0.000642 0.000157 -0.000045
