108
Energy=-2.313459e+06 Lattice="9.626202e+00 0.000000e+00 0.000000e+00 -4.813674e+00 8.336402e+00 0.000000e+00 2.915342e-04 6.991082e-04 1.561091e+01" Stress="2.582280e-06 2.209098e-06 1.944075e-06 -1.286675e-06 4.696377e-06 -2.472092e-06 -1.580673e-06 3.830321e-06 8.823329e-06" Properties=species:S:1:pos:R:3:forces:R:3 Config_type=AlGaN_super3_41_0_15.xyz
Al 1.572236e+00 9.009846e-01 2.446207e+00 -3.371777e-06 9.651916e-07 -1.066983e-06
Al 1.594225e+00 8.954719e-01 7.654876e+00 -2.218452e-06 3.221381e-06 2.544013e-06
Ga 1.576690e+00 8.908278e-01 -2.734749e+00 -4.317487e-06 -3.078150e-08 2.264794e-06
Al -3.308493e-02 3.652329e+00 2.435119e+00 -5.311755e-06 -4.827736e-06 -2.824252e-06
Ga -6.489042e-03 3.665546e+00 7.651038e+00 -1.110265e-05 5.549472e-06 -2.127647e-07
Ga -2.571084e-02 3.660323e+00 -2.721329e+00 6.330088e-06 -2.053337e-06 -5.033783e-07
Ga 3.182715e+00 -1.906643e+00 2.449960e+00 -4.057185e-07 -8.262585e-06 -2.490184e-06
Ga 3.192689e+00 -1.879531e+00 7.647893e+00 -2.845368e-06 -4.899897e-06 5.920405e-06
Ga 3.186531e+00 -1.896665e+00 -2.729250e+00 1.822821e-06 6.666236e-06 1.530354e-05
Ga -4.838426e+00 8.982568e-01 2.452974e+00 -3.979046e-07 2.867794e-06 3.206401e-06
Al -4.839873e+00 8.921420e-01 7.660398e+00 -6.043641e-06 -5.509009e-07 -5.296512e-07
Ga -4.825224e+00 8.935501e-01 -2.748454e+00 -9.570219e-06 4.520680e-06 -2.794562e-06
Ga -6.438958e+00 3.658362e+00 2.450784e+00 5.835141e-06 -2.065325e-06 -2.835404e-06
Al -6.446300e+00 3.656805e+00 7.645105e+00 -6.834499e-06 1.139533e-06 -1.718937e-06
Ga -6.437229e+00 3.667061e+00 -2.731204e+00 -4.209085e-06 -1.445933e-06 -4.666826e-06
Ga -3.232870e+00 -1.897084e+00 2.472670e+00 -6.894569e-06 -4.267671e-06 2.783658e-06
Al -3.223519e+00 -1.889071e+00 7.639764e+00 -2.259502e-06 -3.123331e-06 2.409796e-06
Ga -3.232700e+00 -1.895076e+00 -2.746505e+00 -4.966939e-07 6.707468e-09 1.432007e-06
Ga -1.618821e+00 9.044426e-01 2.448747e+00 -4.407964e-06 1.220184e-05 6.381331e-07
Ga -1.636510e+00 8.782505e-01 7.646221e+00 -2.897523e-06 -9.890260e-07 2.335467e-06
Ga -1.634072e+00 8.987642e-01 -2.730796e+00 -3.295367e-06 2.921000e-07 -4.861885e-06
Al -3.224510e+00 3.663719e+00 2.420542e+00 -6.551051e-06 -2.798320e-06 3.583551e-06
Ga -3.243199e+00 3.652198e+00 7.667135e+00 3.172018e-06 6.157751e-06 4.670287e-06
Ga -3.234108e+00 3.655407e+00 -2.722353e+00 -6.934009e-06 -6.437690e-07 -1.320920e-05
Ga -1.891867e-02 -1.897981e+00 2.462410e+00 2.266352e-06 -2.124934e-05 -5.218430e-06
Ga -3.618115e-02 -1.887965e+00 7.638651e+00 -3.417587e-06 6.150141e-07 8.593629e-07
Ga -2.190630e-02 -1.898980e+00 -2.732504e+00 -6.131013e-06 9.014401e-06 1.079252e-05
Ga -1.826880e-02 1.807308e+00 5.043143e+00 4.473458e-06 1.914541e-06 3.962930e-06
Ga -2.937950e-02 1.808247e+00 -5.362151e+00 6.924281e-06 1.844014e-06 -4.774781e-06
Al -3.373446e-02 1.823346e+00 -1.203573e-01 2.331812e-06 -4.706871e-06 -6.551994e-06
Ga 3.182352e+00 -3.757611e+00 5.028888e+00 2.982777e-07 -6.463609e-06 -5.256473e-06
Ga 3.179833e+00 -3.755123e+00 -5.342278e+00 1.022616e-06 4.379694e-06 9.461641e-06
Al 3.176613e+00 -3.768260e+00 -1.239213e-01 3.550183e-06 -8.654601e-06 -3.981169e-06
Ga 1.572423e+00 -9.515884e-01 5.049100e+00 3.868944e-06 -3.329005e-06 7.217774e-06
Ga 1.580613e+00 -9.595317e-01 -5.357222e+00 9.623204e-06 1.410974e-06 1.378954e-05
Ga 1.576037e+00 -9.690084e-01 -1.261020e-01 8.451267e-06 -4.022888e-06 3.426394e-07
Ga 3.178347e+00 1.807545e+00 5.074568e+00 2.562701e-06 2.138965e-06 4.299419e-06
Ga 3.194102e+00 1.814199e+00 -5.379675e+00 1.023198e-06 3.211698e-06 -5.126706e-06
Ga 3.187895e+00 1.816906e+00 -1.352837e-01 -3.036308e-07 -2.250743e-06 -6.797927e-06
Ga 6.394759e+00 -3.739778e+00 5.057480e+00 -3.603963e-06 -4.867936e-06 -1.148541e-06
Ga 6.401757e+00 -3.742538e+00 -5.371707e+00 2.904544e-06 1.335774e-06 -1.429066e-06
Ga 6.386267e+00 -3.754260e+00 -1.251718e-01 7.338876e-06 -5.150240e-06 -1.128461e-06
Ga 4.803840e+00 -9.613298e-01 5.078401e+00 -1.085617e-06 2.123290e-06 7.063953e-06
Ga 4.802039e+00 -9.550844e-01 -5.377304e+00 6.302933e-06 1.797043e-06 5.739981e-06
Ga 4.791982e+00 -9.641712e-01 -1.397197e-01 7.421260e-06 1.184020e-06 1.499430e-06
Ga -3.230360e+00 1.814909e+00 5.048296e+00 3.091928e-06 -1.777157e-07 5.761723e-06
Al -3.236419e+00 1.809295e+00 -5.361623e+00 -4.668083e-07 2.436037e-06 -7.135736e-06
Al -3.222093e+00 1.833036e+00 -1.290015e-01 1.882856e-06 -4.842369e-07 -9.385173e-06
Ga -1.870800e-02 -3.746321e+00 5.054598e+00 5.991290e-07 -3.520919e-06 -2.932316e-06
Ga -2.360000e-02 -3.756761e+00 -5.363485e+00 -3.149781e-06 -2.208125e-08 -1.176172e-06
Al -3.551470e-03 -3.755297e+00 -1.292787e-01 2.748042e-06 -5.198646e-06 -6.033797e-06
Al -1.631243e+00 -9.655987e-01 5.062617e+00 6.826648e-06 -1.949995e-06 1.960851e-06
Ga -1.636157e+00 -9.582083e-01 -5.358161e+00 9.038598e-06 -1.045059e-06 4.309136e-06
Ga -1.622427e+00 -9.570576e-01 -1.431734e-01 2.003790e-06 -1.247795e-06 3.285340e-07
N 1.583613e+00 8.930884e-01 4.361899e+00 -4.521586e-07 -2.398844e-07 -5.211178e-06
N 1.580259e+00 8.875067e-01 -6.040207e+00 -9.015511e-06 -5.446565e-06 2.232808e-06
N 1.534449e+00 9.131841e-01 -7.527263e-01 -7.042488e-06 -8.702339e-07 2.032869e-06
N -2.150419e-02 3.662079e+00 4.360530e+00 1.237193e-06 -2.820144e-06 -5.500455e-07
N -2.481197e-02 3.665901e+00 -5.988753e+00 -3.405111e-06 -7.331397e-06 -5.687351e-06
N -6.733179e-02 3.639592e+00 -7.296494e-01 -6.268395e-06 4.537846e-06 4.221722e-06
N 3.189425e+00 -1.890221e+00 4.430179e+00 -1.813527e-06 7.470174e-06 -5.233710e-06
N 3.185626e+00 -1.896200e+00 -5.986341e+00 -3.730847e-06 -1.922775e-06 -8.523581e-06
N 3.184335e+00 -1.947247e+00 -7.405954e-01 -8.258982e-06 1.168806e-07 3.823752e-06
N -4.839696e+00 8.885403e-01 4.425746e+00 -4.212507e-06 -2.064684e-06 -1.049398e-05
N -4.792177e+00 9.141004e-01 -6.026330e+00 -9.193274e-07 -3.748338e-06 2.596975e-06
N -4.787082e+00 9.162442e-01 -7.598927e-01 -3.797774e-06 -5.955681e-06 5.725215e-06
N -6.439346e+00 3.661304e+00 4.426169e+00 -3.563458e-06 -1.432015e-06 -1.419928e-06
N -6.440818e+00 3.665053e+00 -6.049490e+00 3.349470e-06 5.516870e-07 4.685298e-06
N -6.397192e+00 3.692439e+00 -7.458327e-01 -1.517360e-06 1.799346e-06 1.174370e-06
N -3.191462e+00 -1.867706e+00 4.449648e+00 1.268570e-06 -2.717417e-06 -3.502166e-06
N -3.225814e+00 -1.891989e+00 -6.050730e+00 -5.698198e-06 -2.054099e-06 4.265817e-06
N -3.230401e+00 -1.896765e+00 -7.761528e-01 -1.487442e-06 -2.071352e-06 -9.302827e-06
N -1.627249e+00 8.410754e-01 4.436800e+00 -4.824216e-06 1.461211e-06 -9.931750e-06
N -1.671588e+00 9.099295e-01 -5.979718e+00 -9.646533e-06 -2.211411e-06 4.818480e-06
N -1.628826e+00 9.431068e-01 -7.325788e-01 9.071042e-06 -1.306680e-06 5.645957e-06
N -3.235978e+00 3.663226e+00 4.345218e+00 -2.325677e-06 -3.560217e-06 -8.263655e-06
N -3.230656e+00 3.614917e+00 -5.966500e+00 1.890783e-06 -2.728973e-06 1.020488e-06
N -3.231236e+00 3.662495e+00 -7.219363e-01 -3.164677e-06 3.070382e-06 8.262056e-06
N -6.615020e-02 -1.871453e+00 4.448135e+00 -3.463870e-06 4.380747e-06 -1.293020e-06
N -2.621079e-02 -1.891275e+00 -5.992932e+00 -5.059638e-06 2.499923e-06 -6.445418e-06
N -2.080981e-02 -1.945199e+00 -7.496978e-01 -3.894278e-08 1.227498e-05 1.459362e-06
N 1.774820e-02 1.836145e+00 1.807801e+00 4.033018e-06 1.239439e-06 -1.576225e-07
N 2.048315e-02 1.787982e+00 7.029683e+00 4.857545e-06 -1.971338e-06 2.301245e-07
N -2.464024e-02 1.812419e+00 -3.383664e+00 2.200118e-06 -5.025757e-07 7.087318e-06
N 3.186748e+00 -3.796055e+00 1.805960e+00 2.699180e-06 8.135513e-06 4.305769e-07
N 3.182239e+00 -3.751344e+00 7.009191e+00 3.576484e-06 -2.138323e-06 -3.951012e-06
N 3.183685e+00 -3.749873e+00 -3.365276e+00 3.283505e-06 9.296425e-07 3.711663e-06
N 1.579866e+00 -9.169273e-01 1.853099e+00 1.845116e-06 -2.505042e-06 3.029227e-06
N 1.580892e+00 -9.115932e-01 7.032239e+00 5.213041e-07 4.759454e-06 -6.496572e-06
N 1.582127e+00 -9.639740e-01 -3.373193e+00 7.233162e-06 -1.674373e-06 -1.513431e-05
N 3.143765e+00 1.787980e+00 1.837435e+00 1.295898e-06 1.158085e-06 8.651801e-06
N 3.185139e+00 1.809562e+00 7.075939e+00 4.587136e-06 -2.890884e-06 -2.051276e-06
N 3.185394e+00 1.813355e+00 -3.389157e+00 2.636697e-06 -1.853102e-06 2.762500e-06
N 6.352016e+00 -3.767926e+00 1.851823e+00 -9.818909e-07 9.524308e-06 4.561436e-06
N 6.436090e+00 -3.720682e+00 7.047764e+00 9.315272e-06 -1.706789e-07 3.748281e-06
N 6.394542e+00 -3.750207e+00 -3.384467e+00 -1.723987e-06 4.036603e-07 1.155464e-06
N 4.791406e+00 -9.654160e-01 1.829557e+00 -7.278393e-07 4.264508e-06 -5.334615e-06
N 4.834620e+00 -9.366428e-01 7.066610e+00 6.488025e-06 5.774447e-06 -1.841152e-06
N 4.789227e+00 -9.640642e-01 -3.389465e+00 -7.314306e-07 -1.076681e-06 -4.986016e-06
N -3.231696e+00 1.857482e+00 1.790957e+00 -3.035631e-07 1.594991e-06 3.325404e-06
N -3.275646e+00 1.792003e+00 7.025906e+00 3.643928e-06 -2.627598e-06 -6.522505e-08
N -3.230341e+00 1.815195e+00 -3.436643e+00 3.245722e-06 -3.258456e-06 7.157471e-06
N 1.881725e-02 -3.767323e+00 1.793118e+00 -9.727630e-07 2.293756e-05 9.645871e-06
N -5.984709e-02 -3.772912e+00 7.036048e+00 -5.426854e-07 1.144947e-07 -2.871217e-06
N -2.080842e-02 -3.749804e+00 -3.383210e+00 2.151431e-06 -8.128257e-07 1.874181e-06
N -1.627648e+00 -9.646121e-01 1.825811e+00 1.775839e-06 -4.102858e-07 2.149419e-06
N -1.669231e+00 -9.857407e-01 6.981556e+00 3.877298e-06 5.329250e-06 -2.417969e-06
N -1.626268e+00 -9.611901e-01 -3.373446e+00 4.415731e-06 -6.483549e-07 -9.011002e-06
