108
Energy=-2.313453e+06 Lattice="9.481592e+00 0.000000e+00 0.000000e+00 -4.741555e+00 8.213579e+00 0.000000e+00 1.099917e-03 1.349531e-03 1.527031e+01" Stress="-7.624156e-02 6.676770e-03 -1.441469e-04 6.667945e-03 -6.788833e-02 -2.966794e-04 -1.385776e-04 -3.100902e-04 -7.657126e-02" Properties=species:S:1:pos:R:3:forces:R:3 Config_type=AlGaN_super3_41_1_1.xyz
Al 1.564925e+00 9.041224e-01 2.474392e+00 -1.379790e-03 -1.417925e-02 -9.837996e-03
Al 1.565352e+00 9.033979e-01 7.496909e+00 -1.596560e-03 -1.433790e-02 -4.338810e-03
Al 1.564293e+00 9.023302e-01 -2.752541e+00 -1.291171e-03 -1.469782e-02 -4.487285e-03
Al -6.086990e-04 3.614846e+00 2.483836e+00 -3.302054e-03 -5.271471e-04 -1.007229e-02
Ga 6.773710e-05 3.615972e+00 7.497045e+00 -3.514667e-03 -2.010608e-03 -2.552287e-03
Ga -1.103088e-03 3.613970e+00 -2.757125e+00 -2.963155e-03 -1.996770e-03 -2.518055e-03
Ga 3.175591e+00 -1.884745e+00 2.478603e+00 -3.271342e-03 6.153024e-04 -1.196524e-02
Al 3.175346e+00 -1.884606e+00 7.497241e+00 -3.319327e-03 1.676534e-03 -2.732780e-03
Ga 3.174454e+00 -1.885421e+00 -2.754709e+00 -3.816957e-03 2.277259e-03 -3.492620e-03
Ga -4.786313e+00 9.034080e-01 2.479301e+00 9.547418e-04 -1.643964e-02 -1.213489e-02
Ga -4.785798e+00 9.038081e-01 7.497433e+00 1.554715e-04 -1.710969e-02 -4.097318e-03
Ga -4.787130e+00 9.023744e-01 -2.754339e+00 2.501139e-04 -1.693131e-02 -4.019023e-03
Ga -6.350388e+00 3.615450e+00 2.479070e+00 -7.311360e-04 1.500369e-04 -9.413252e-03
Ga -6.351007e+00 3.616232e+00 7.497582e+00 -2.584923e-04 -5.097944e-04 -2.294947e-04
Ga -6.351439e+00 3.614506e+00 -2.755060e+00 -4.653943e-05 -3.542700e-04 -1.596450e-03
Ga -3.175210e+00 -1.884419e+00 2.479021e+00 -5.266923e-04 2.288163e-03 -1.048852e-02
Ga -3.174941e+00 -1.885104e+00 7.497427e+00 -7.365575e-04 3.510257e-03 -1.639087e-03
Ga -3.175898e+00 -1.885588e+00 -2.754808e+00 -4.687919e-04 3.387000e-03 -2.271383e-03
Ga -1.653357e+00 9.039595e-01 2.479616e+00 1.591330e-02 -8.432880e-03 -1.459879e-02
Ga -1.654076e+00 9.039805e-01 7.497063e+00 1.645637e-02 -9.074956e-03 -8.019379e-03
Ga -1.654697e+00 9.024985e-01 -2.754496e+00 1.659730e-02 -9.187899e-03 -7.158081e-03
Al -3.220278e+00 3.616537e+00 2.483406e+00 1.317342e-02 5.037291e-03 -1.048372e-02
Ga -3.220211e+00 3.616704e+00 7.497447e+00 1.546454e-02 7.937962e-03 -4.019562e-03
Ga -3.221585e+00 3.615524e+00 -2.756895e+00 1.488170e-02 7.804057e-03 -4.729497e-03
Ga -4.401265e-02 -1.885033e+00 2.473963e+00 1.495846e-02 1.035765e-02 -1.246903e-02
Ga -4.358474e-02 -1.884587e+00 7.497522e+00 1.506256e-02 1.094176e-02 -4.328463e-03
Ga -4.485121e-02 -1.885808e+00 -2.752390e+00 1.521562e-02 1.085431e-02 -5.605520e-03
Al 3.700876e-04 1.807108e+00 4.987700e+00 -1.189562e-02 -8.050959e-03 -4.895176e-03
Ga -5.780310e-04 1.806043e+00 -5.264013e+00 -1.456907e-02 -1.047864e-02 -5.895525e-03
Ga -1.645551e-03 1.808049e+00 -2.419178e-01 -1.436053e-02 -1.056068e-02 3.932071e-02
Ga 3.175710e+00 -3.693149e+00 4.988554e+00 -1.474682e-02 -8.419291e-03 -5.606247e-03
Ga 3.174682e+00 -3.694146e+00 -5.264517e+00 -1.508849e-02 -7.571004e-03 -5.340216e-03
Al 3.175321e+00 -3.695273e+00 -2.555906e-01 -1.204666e-02 -5.668367e-03 3.486503e-02
Ga 1.610103e+00 -9.805992e-01 4.986713e+00 -1.636136e-02 9.497042e-03 -7.659494e-03
Al 1.609077e+00 -9.822046e-01 -5.263523e+00 -1.375475e-02 7.618793e-03 -5.809842e-03
Ga 1.609905e+00 -9.830459e-01 -2.385664e-01 -1.582314e-02 9.412542e-03 3.596091e-02
Ga 3.130134e+00 1.807550e+00 4.987555e+00 -1.351164e-04 -3.280224e-03 -2.239976e-03
Ga 3.129279e+00 1.806501e+00 -5.263561e+00 2.449017e-05 -2.579991e-03 -2.414173e-03
Ga 3.130133e+00 1.807500e+00 -2.409543e-01 2.648517e-04 -3.529146e-03 4.240861e-02
Ga 6.307000e+00 -3.693447e+00 4.987985e+00 -1.789413e-04 -4.660173e-04 -2.287775e-03
Al 6.306054e+00 -3.694412e+00 -5.263902e+00 4.895119e-04 -3.433223e-04 -1.799621e-03
Al 6.305060e+00 -3.694421e+00 -2.548391e-01 -1.883157e-04 -5.486422e-04 3.673215e-02
Ga 4.740848e+00 -9.807809e-01 4.988374e+00 -5.534541e-04 1.703827e-02 -4.126569e-03
Ga 4.739897e+00 -9.823452e-01 -5.263832e+00 -9.375056e-04 1.652704e-02 -4.732104e-03
Ga 4.740603e+00 -9.831110e-01 -2.415244e-01 -9.873877e-04 1.671800e-02 4.062535e-02
Ga -3.219807e+00 1.807947e+00 4.988104e+00 3.405134e-03 -1.870199e-03 -4.565639e-03
Ga -3.220988e+00 1.806853e+00 -5.264022e+00 3.236138e-03 -1.406235e-03 -3.522313e-03
Al -3.220185e+00 1.807886e+00 -2.548126e-01 2.984274e-03 -1.630130e-03 3.485022e-02
Ga -4.393674e-02 -3.692715e+00 4.987705e+00 3.140414e-03 1.241078e-03 -2.532927e-03
Al -4.500402e-02 -3.693819e+00 -5.263639e+00 2.576442e-03 1.511994e-03 -2.539892e-03
Ga -4.438762e-02 -3.695022e+00 -2.419083e-01 3.262191e-03 9.712257e-04 4.285055e-02
Ga -1.608817e+00 -9.807257e-01 4.987457e+00 2.000739e-03 1.855105e-02 -5.428263e-03
Ga -1.610000e+00 -9.824051e-01 -5.263301e+00 2.190933e-03 1.759659e-02 -5.576047e-03
Ga -1.611238e+00 -9.821397e-01 -2.400382e-01 1.980396e-03 1.829010e-02 3.922788e-02
N 1.564620e+00 9.040438e-01 4.390342e+00 -1.950612e-02 -6.973442e-03 -9.481389e-03
N 1.564194e+00 9.015875e-01 -5.859427e+00 -5.117657e-04 -3.499922e-02 -1.113436e-02
N 1.564199e+00 9.026480e-01 -8.362715e-01 -1.360601e-03 -1.711173e-02 -1.529027e-02
N -3.105410e-04 3.614416e+00 4.394721e+00 -1.934432e-03 -2.131083e-02 -1.253231e-02
N -5.219645e-04 3.614973e+00 -5.858537e+00 1.602994e-02 1.071698e-02 9.401616e-03
N -1.239638e-03 3.614863e+00 -8.446409e-01 -1.793222e-03 2.131669e-02 1.931047e-02
N 3.175531e+00 -1.884288e+00 4.392967e+00 -3.062620e-03 1.756834e-03 1.989464e-03
N 3.173794e+00 -1.885779e+00 -5.859224e+00 -2.085058e-02 1.224778e-02 -1.464725e-02
N 3.174833e+00 -1.886569e+00 -8.400450e-01 -2.577225e-03 -1.937197e-02 1.168675e-02
N -4.786200e+00 9.034584e-01 4.393528e+00 4.176544e-04 -1.736194e-02 6.368324e-03
N -4.786613e+00 9.026118e-01 -5.858452e+00 4.952930e-04 -1.752906e-02 5.618633e-03
N -4.786234e+00 9.026759e-01 -8.398824e-01 1.872517e-02 -6.616736e-03 1.588580e-02
N -6.350244e+00 3.615618e+00 4.393252e+00 -3.654329e-04 4.725911e-04 2.525903e-03
N -6.351977e+00 3.615633e+00 -5.857869e+00 -2.528837e-04 2.165009e-02 1.708756e-02
N -6.351859e+00 3.615207e+00 -8.405170e-01 -1.880664e-02 1.125223e-02 1.216935e-02
N -3.174955e+00 -1.884197e+00 4.393292e+00 -9.823649e-04 2.054722e-03 2.135174e-03
N -3.175834e+00 -1.886974e+00 -5.858170e+00 -1.283626e-03 -1.893272e-02 8.906016e-03
N -3.175945e+00 -1.886391e+00 -8.404215e-01 -1.000628e-03 -1.917976e-02 1.138551e-02
N -1.652972e+00 9.040327e-01 4.393765e+00 3.139685e-02 -1.324194e-03 1.598265e-02
N -1.655277e+00 9.026588e-01 -5.858632e+00 1.613151e-02 -9.564251e-03 9.436850e-03
N -1.655332e+00 9.029919e-01 -8.402838e-01 -1.713360e-03 8.524336e-04 1.947353e-02
N -3.220639e+00 3.616701e+00 4.394303e+00 1.470783e-02 8.430658e-03 -1.621000e-02
N -3.221835e+00 3.615578e+00 -5.858343e+00 -3.242977e-03 1.871464e-02 1.325104e-02
N -3.220814e+00 3.615510e+00 -8.443222e-01 3.009119e-02 -4.434780e-03 2.142358e-02
N -4.393560e-02 -1.884761e+00 4.390648e+00 1.455361e-02 9.807336e-03 5.359542e-03
N -4.431920e-02 -1.886284e+00 -5.857835e+00 2.972554e-02 -3.212855e-03 1.852785e-02
N -4.508569e-02 -1.886198e+00 -8.354935e-01 1.422243e-02 9.622905e-03 7.332990e-03
N 6.107558e-05 1.809204e+00 1.881649e+00 4.149660e-03 3.084347e-04 -1.974573e-02
N 8.927147e-04 1.807180e+00 6.901630e+00 4.112014e-03 -2.007188e-02 -9.953231e-03
N -4.528500e-05 1.805513e+00 -3.349313e+00 3.518529e-03 -2.027940e-02 1.282910e-02
N 3.175764e+00 -3.695242e+00 1.894579e+00 -1.217684e-02 -2.739606e-02 -3.610194e-02
N 3.175817e+00 -3.692442e+00 6.903022e+00 -1.494085e-02 1.339430e-02 1.318527e-02
N 3.174703e+00 -3.694199e+00 -3.350559e+00 -1.494922e-02 -8.233040e-03 6.611043e-03
N 1.610635e+00 -9.807490e-01 1.877995e+00 -1.665751e-02 2.753264e-02 -2.430111e-02
N 1.610820e+00 -9.805202e-01 6.902176e+00 1.861195e-03 1.595899e-02 2.318460e-02
N 1.609186e+00 -9.812484e-01 -3.348842e+00 -1.643425e-02 2.659248e-02 -7.704013e-03
N 3.130329e+00 1.807873e+00 1.880290e+00 -1.741331e-02 -1.319241e-02 -3.173901e-02
N 3.129874e+00 1.807530e+00 6.902612e+00 -1.721706e-02 -1.206706e-02 9.122297e-03
N 3.128873e+00 1.806001e+00 -3.348608e+00 -1.738165e-02 -1.236525e-02 9.000405e-03
N 6.305175e+00 -3.694070e+00 1.893291e+00 -1.807022e-02 -1.114727e-02 -4.618565e-02
N 6.306950e+00 -3.693183e+00 6.902466e+00 9.325988e-04 1.347580e-05 1.714507e-03
N 6.306078e+00 -3.694439e+00 -3.350720e+00 4.664949e-04 1.600101e-04 -2.057270e-02
N 4.741245e+00 -9.814560e-01 1.880739e+00 -7.633233e-04 1.804143e-02 -3.482216e-02
N 4.740467e+00 -9.812910e-01 6.902969e+00 -1.864426e-02 6.319560e-03 1.292492e-02
N 4.739955e+00 -9.818979e-01 -3.349362e+00 -1.109730e-04 1.717483e-02 5.585759e-03
N -3.219661e+00 1.809179e+00 1.893548e+00 2.561110e-03 1.940931e-02 -4.714983e-02
N -3.219894e+00 1.808124e+00 6.902577e+00 2.639072e-03 -1.631855e-03 1.264246e-03
N -3.220982e+00 1.806621e+00 -3.349741e+00 3.084421e-03 -1.954929e-03 1.638103e-03
N -4.276793e-02 -3.694462e+00 1.881161e+00 2.061137e-02 -1.057778e-02 -3.154720e-02
N -4.395050e-02 -3.692727e+00 6.902434e+00 1.895423e-03 2.993491e-04 1.578653e-03
N -4.500366e-02 -3.693890e+00 -3.350237e+00 2.133833e-03 2.718604e-04 -2.121734e-02
N -1.610062e+00 -9.808205e-01 1.879191e+00 1.374373e-03 1.817392e-02 -3.469483e-02
N -1.609087e+00 -9.809395e-01 6.902343e+00 1.260248e-03 1.705328e-02 5.358076e-03
N -1.610010e+00 -9.820070e-01 -3.348586e+00 1.117878e-03 1.762216e-02 5.203980e-03
