108
Energy=-1901479.739049 Lattice="9.574189 0.000000 0.000000 -4.789321 8.290622 0.000000 -0.001848 -0.000702 15.492458" Stress="0.000002 -0.000001 -0.000000 -0.000001 0.000001 -0.000000 -0.000000 -0.000000 -0.000003" Properties=species:S:1:pos:R:3:forces:R:3
Al 1.592873 0.897177 2.416285 -0.000023 -0.000064 -0.000072
Al 1.563713 0.902455 7.595446 -0.000006 0.000025 -0.000012
Ga 1.583041 0.893387 -2.710549 0.000075 0.000102 0.000035
Al -0.003511 3.638950 2.429091 -0.000050 0.000066 -0.000031
Al -0.031271 3.626668 7.627260 -0.000013 0.000033 -0.000003
Ga -0.009004 3.643558 -2.752910 -0.000005 -0.000008 0.000003
Ga 3.170375 -1.872930 2.439761 -0.000015 0.000008 0.000052
Ga 3.180548 -1.885693 7.606786 -0.000023 0.000016 0.000006
Ga 3.174451 -1.877210 -2.734908 -0.000059 0.000032 -0.000029
Al -4.829216 0.898169 2.434806 0.000084 -0.000043 0.000032
Ga -4.820504 0.880794 7.586291 -0.000018 0.000036 0.000004
Al -4.813947 0.890583 -2.720123 -0.000109 0.000074 -0.000003
Al -6.424223 3.617555 2.424074 -0.000017 0.000087 -0.000008
Ga -6.416259 3.628448 7.593931 -0.000017 -0.000006 0.000006
Al -6.416877 3.636952 -2.716394 -0.000009 -0.000101 0.000029
Ga -3.209979 -1.890721 2.431518 -0.000030 -0.000017 0.000033
Ga -3.225000 -1.877155 7.600690 -0.000034 0.000002 -0.000006
Ga -3.215908 -1.894631 -2.723686 -0.000021 0.000002 0.000022
Ga -1.623532 0.882684 2.431345 -0.000040 -0.000002 0.000061
Al -1.605008 0.893515 7.591427 -0.000016 -0.000001 0.000018
Ga -1.623932 0.889518 -2.715765 -0.000020 0.000025 0.000005
Ga -3.219066 3.628694 2.424169 0.000018 -0.000010 0.000034
Al -3.201114 3.639219 7.610303 -0.000011 0.000011 0.000005
Ga -3.219466 3.633847 -2.722204 -0.000049 -0.000026 -0.000024
Ga -0.028443 -1.871531 2.432850 -0.000058 -0.000053 0.000001
Ga -0.026021 -1.874651 7.586768 -0.000049 -0.000011 0.000012
Ga -0.022308 -1.881997 -2.705485 -0.000043 -0.000005 0.000065
Ga -0.008767 1.800013 5.017228 0.000031 0.000038 0.000044
Al -0.020948 1.814720 -5.342403 0.000038 -0.000012 -0.000006
Ga -0.016286 1.799642 -0.123851 0.000110 0.000061 -0.000145
Ga 3.183634 -3.728286 5.035117 -0.000017 0.000012 -0.000020
Al 3.187703 -3.730408 -5.333381 -0.000007 0.000010 -0.000001
Ga 3.178296 -3.725812 -0.139534 0.000095 0.000000 0.000277
Ga 1.580428 -0.938595 5.020128 0.000023 -0.000050 0.000055
Ga 1.584170 -0.948606 -5.327734 0.000025 -0.000010 0.000027
Al 1.570403 -0.947607 -0.129853 -0.000002 -0.000023 -0.000033
Al 3.166035 1.791527 4.989708 0.000013 0.000031 -0.000052
Ga 3.159574 1.802992 -5.295407 0.000015 0.000002 0.000014
Al 3.176896 1.807237 -0.143058 -0.000365 0.000024 -0.000758
Ga 6.359723 -3.725616 5.010804 0.000026 0.000018 -0.000009
Al 6.344207 -3.729086 -5.319080 0.000035 0.000007 -0.000006
Al 6.373904 -3.734609 -0.135333 -0.000053 -0.000084 -0.000032
Al 4.770504 -0.945194 4.993837 0.000003 -0.000005 -0.000017
Al 4.766539 -0.969101 -5.291586 0.000005 0.000010 -0.000011
Ga 4.770786 -0.940306 -0.143685 0.000008 -0.000080 0.000018
Ga -3.227523 1.785131 5.032396 0.000044 0.000024 -0.000011
Ga -3.204400 1.800278 -5.329194 0.000044 -0.000016 -0.000026
Al -3.231485 1.786587 -0.142408 0.000045 -0.000042 -0.000001
Ga -0.035395 -3.733607 5.007732 0.000059 -0.000030 0.000022
Ga -0.022662 -3.729753 -5.299483 -0.000002 -0.000009 0.000010
Ga -0.044139 -3.728117 -0.143440 -0.000037 0.000017 -0.000071
Al -1.631564 -0.956109 5.030239 0.000014 0.000000 0.000002
Ga -1.629211 -0.951753 -5.315350 0.000015 -0.000052 0.000019
Al -1.619926 -0.960122 -0.147932 0.000003 -0.000060 -0.000053
N 1.614803 0.906283 4.335195 -0.000083 0.000050 0.000033
N 1.539555 0.914968 -5.979343 0.000014 0.000027 -0.000013
N 1.614672 0.862665 -0.728179 0.000292 0.000157 0.000297
N -0.022228 3.643181 4.335953 0.000024 -0.000022 0.000054
N -0.020722 3.644132 -5.935164 -0.000022 -0.000005 -0.000013
N 0.022234 3.666118 -0.771165 -0.000022 0.000050 -0.000003
N 3.207074 -1.862494 4.416155 -0.000018 0.000033 0.000012
N 3.220049 -1.903212 -5.900294 -0.000042 0.000037 -0.000006
N 3.129039 -1.856853 -0.752853 0.000000 0.000014 0.000020
N -4.852279 0.865751 4.365177 0.000013 -0.000021 0.000046
N -4.817628 0.829586 -5.927961 -0.000010 0.000003 -0.000013
N -4.813468 0.931918 -0.796746 -0.000094 0.000031 0.000192
N -6.413812 3.592073 4.347649 -0.000039 -0.000005 -0.000014
N -6.448376 3.665250 -5.924969 0.000014 -0.000026 -0.000006
N -6.456572 3.618824 -0.789432 0.000088 -0.000295 0.000310
N -3.208982 -1.837149 4.419233 -0.000013 -0.000007 -0.000001
N -3.260265 -1.903860 -5.902599 -0.000015 0.000017 0.000028
N -3.175853 -1.914677 -0.733475 -0.000010 0.000074 -0.000002
N -1.619705 0.836332 4.410853 0.000007 -0.000012 -0.000046
N -1.573983 0.904130 -5.983790 -0.000032 0.000019 -0.000001
N -1.658048 0.864715 -0.729077 -0.000059 -0.000015 -0.000028
N -3.210660 3.638427 4.392353 -0.000008 -0.000023 -0.000018
N -3.176283 3.671483 -5.964027 -0.000012 -0.000028 -0.000003
N -3.214007 3.596748 -0.742389 -0.000027 0.000009 0.000004
N -0.065627 -1.852528 4.417225 -0.000005 0.000002 -0.000045
N -0.025466 -1.882549 -5.939429 -0.000027 -0.000000 -0.000026
N -0.018236 -1.831622 -0.722988 -0.000009 -0.000002 -0.000070
N 0.017618 1.824481 1.852472 0.000033 -0.000176 0.000205
N -0.020065 1.808717 7.015012 0.000021 -0.000008 0.000011
N -0.021601 1.795566 -3.416787 0.000014 0.000038 -0.000004
N 3.215431 -3.748604 1.832762 -0.000071 0.000020 -0.000345
N 3.177069 -3.776135 7.020860 0.000019 0.000017 0.000001
N 3.168664 -3.728240 -3.412469 0.000037 0.000007 0.000009
N 1.573625 -0.913006 1.786822 -0.000046 0.000149 0.000043
N 1.579062 -0.905602 6.998730 0.000012 0.000008 -0.000021
N 1.571710 -0.952990 -3.358353 0.000028 -0.000030 -0.000050
N 3.173960 1.803145 1.791303 0.000037 0.000011 -0.000060
N 3.122753 1.777200 6.914155 0.000027 -0.000008 0.000047
N 3.208949 1.827261 -3.313503 -0.000001 -0.000024 0.000007
N 6.364461 -3.774522 1.792610 0.000100 0.000056 0.000005
N 6.310407 -3.751757 6.990033 0.000025 0.000012 0.000006
N 6.406641 -3.749803 -3.400402 -0.000045 0.000004 -0.000010
N 4.767251 -0.906304 1.831163 0.000033 -0.000016 -0.000032
N 4.763758 -0.957967 6.902796 0.000028 -0.000021 -0.000003
N 4.769167 -0.909614 -3.368562 0.000002 -0.000025 0.000006
N -3.263777 1.770271 1.775798 0.000010 0.000047 0.000023
N -3.177470 1.824576 7.017448 0.000006 -0.000031 -0.000011
N -3.254506 1.776732 -3.350072 0.000053 0.000000 0.000044
N -0.073063 -3.749351 1.834553 0.000002 -0.000040 0.000061
N 0.017932 -3.755727 6.988172 -0.000015 0.000008 -0.000035
N -0.064977 -3.748908 -3.315768 0.000051 0.000010 -0.000000
N -1.622022 -0.959743 1.753925 0.000073 0.000043 0.000002
N -1.626756 -0.911634 6.947393 0.000024 -0.000017 -0.000025
N -1.619043 -0.957014 -3.346622 0.000030 -0.000048 -0.000031
