108
Energy=-2.221908e+06 Lattice="9.581988e+00 0.000000e+00 0.000000e+00 -4.805218e+00 8.272433e+00 0.000000e+00 4.096835e-03 -3.151106e-02 1.552145e+01" Stress="-1.729942e-02 1.256454e-03 2.339436e-04 1.258090e-03 -1.868500e-02 -1.456899e-03 2.306849e-04 -1.449479e-03 -1.329063e-02" Properties=species:S:1:pos:R:3:forces:R:3 Config_type=AlGaN_super3_39_1_4.xyz
Al 1.560802e+00 8.911707e-01 2.465486e+00 1.756849e-03 -5.040423e-03 -1.715221e-03
Al 1.567589e+00 8.725033e-01 7.597054e+00 8.427491e-06 -1.921209e-03 7.203340e-04
Ga 1.575240e+00 8.948807e-01 -2.741127e+00 2.733454e-04 -5.440661e-03 2.193805e-04
Al -1.746239e-02 3.621222e+00 2.450663e+00 -1.428514e-03 1.323036e-03 5.499435e-04
Al -2.409491e-02 3.609215e+00 7.604513e+00 3.049237e-04 -1.361952e-03 2.157405e-03
Ga -2.518985e-02 3.646791e+00 -2.749743e+00 -7.090434e-04 -1.634845e-04 2.012774e-03
Ga 3.187255e+00 -1.890380e+00 2.451825e+00 -1.401764e-03 -8.923931e-04 6.619989e-04
Ga 3.197503e+00 -1.895574e+00 7.603111e+00 -5.279039e-04 -2.724076e-04 1.375586e-03
Al 3.187766e+00 -1.887671e+00 -2.754352e+00 -7.837160e-05 8.473449e-05 2.114623e-03
Ga -4.832210e+00 8.880944e-01 2.469735e+00 1.729712e-04 -4.332579e-03 -1.785541e-03
Al -4.823172e+00 8.674958e-01 7.593948e+00 1.386439e-03 -1.733393e-03 1.058856e-03
Ga -4.835899e+00 8.999510e-01 -2.740717e+00 1.021970e-03 -5.211163e-03 -2.042975e-04
Al -6.430005e+00 3.632549e+00 2.463360e+00 8.614459e-04 3.158754e-04 -8.505710e-04
Ga -6.424712e+00 3.612927e+00 7.606665e+00 1.466389e-05 3.489594e-04 7.246597e-04
Al -6.421644e+00 3.642781e+00 -2.745837e+00 -1.581617e-04 2.159591e-04 1.627884e-03
Ga -3.207784e+00 -1.895716e+00 2.465068e+00 5.467005e-04 2.960173e-04 -8.638836e-04
Ga -3.213666e+00 -1.888701e+00 7.605449e+00 2.903382e-04 -6.153526e-04 1.004286e-03
Ga -3.209856e+00 -1.880968e+00 -2.739647e+00 -2.628590e-04 8.393026e-04 5.603052e-04
Ga -1.632713e+00 8.978900e-01 2.476845e+00 5.429584e-03 -3.758376e-03 -2.565668e-03
Al -1.638139e+00 8.829295e-01 7.590004e+00 5.119079e-03 -6.641912e-04 1.184178e-05
Ga -1.644370e+00 9.007691e-01 -2.740687e+00 5.664897e-03 -2.757278e-03 1.015600e-04
Ga -3.239439e+00 3.638599e+00 2.454867e+00 4.979582e-03 3.505565e-03 -5.963997e-04
Ga -3.225970e+00 3.617540e+00 7.609794e+00 3.877067e-03 1.440458e-03 2.974030e-04
Ga -3.235833e+00 3.656284e+00 -2.743333e+00 5.116453e-03 1.889444e-03 2.775972e-04
Al -2.627647e-02 -1.882539e+00 2.461476e+00 4.675521e-03 7.443778e-04 -2.064263e-03
Ga -2.277442e-02 -1.881458e+00 7.613972e+00 4.662705e-03 9.118903e-04 4.486197e-04
Ga -2.476312e-02 -1.875287e+00 -2.735419e+00 5.203366e-03 2.687220e-03 -2.950774e-05
Al -2.394637e-02 1.793816e+00 5.034223e+00 -2.482599e-03 -9.558423e-04 1.908510e-03
Ga -2.530696e-02 1.814300e+00 -5.357073e+00 -4.006883e-03 -1.930941e-03 1.763870e-03
Ga -2.136782e-02 1.804158e+00 -1.307050e-01 -3.966112e-03 -1.541970e-03 4.235271e-04
Ga 3.204804e+00 -3.742290e+00 5.028934e+00 -5.347255e-03 -6.996927e-04 1.159510e-04
Al 3.192493e+00 -3.709312e+00 -5.341002e+00 -2.651105e-03 -1.539629e-03 1.971934e-03
Al 3.194431e+00 -3.720749e+00 -1.724843e-01 -3.274701e-03 -4.095328e-04 1.049777e-02
Ga 1.602069e+00 -9.729779e-01 5.028844e+00 -5.708293e-03 2.468457e-03 -7.592722e-04
Ga 1.606268e+00 -9.665189e-01 -5.328386e+00 -5.458119e-03 5.045346e-03 8.443437e-05
Ga 1.608624e+00 -9.819252e-01 -1.356536e-01 -5.869852e-03 4.469366e-03 1.000348e-03
Ga 3.162922e+00 1.783385e+00 5.031667e+00 -5.439636e-04 3.298335e-04 1.389620e-03
Ga 3.161216e+00 1.812705e+00 -5.344523e+00 -1.172770e-04 -1.764689e-03 2.828486e-03
Ga 3.161642e+00 1.809670e+00 -1.377864e-01 -3.954301e-04 -3.398478e-04 4.828597e-03
Ga 6.362044e+00 -3.735044e+00 5.029417e+00 7.330749e-04 1.662029e-04 1.404610e-03
Ga 6.365707e+00 -3.711024e+00 -5.331802e+00 -8.962023e-04 -4.815291e-04 2.059392e-03
Ga 6.373587e+00 -3.722949e+00 -1.398649e-01 -1.675498e-04 -7.504805e-04 3.505005e-03
Al 4.785413e+00 -9.674362e-01 5.041247e+00 -1.825710e-03 2.667386e-03 8.610758e-04
Ga 4.773846e+00 -9.626375e-01 -5.328374e+00 -8.297252e-04 6.464566e-03 1.228943e-03
Ga 4.773363e+00 -9.789842e-01 -1.526840e-01 -7.080076e-04 5.745658e-03 -3.701458e-04
Al -3.228925e+00 1.789022e+00 5.046313e+00 -7.471108e-04 7.065993e-04 1.152746e-03
Ga -3.231402e+00 1.818831e+00 -5.349638e+00 -5.574157e-04 -8.545085e-04 2.279509e-03
Ga -3.228888e+00 1.811467e+00 -1.424361e-01 -5.805559e-04 -3.865316e-04 -2.003322e-04
Ga -2.102123e-02 -3.728884e+00 5.022272e+00 4.394801e-05 9.456088e-04 1.466162e-03
Ga -1.992086e-02 -3.704617e+00 -5.321575e+00 4.073386e-04 -2.309473e-04 1.726078e-03
Ga -2.136962e-02 -3.715151e+00 -1.396277e-01 -4.947430e-04 -2.676685e-04 2.887415e-03
Ga -1.617558e+00 -9.624526e-01 5.037371e+00 -3.250865e-05 3.481689e-03 -5.286846e-04
Ga -1.616855e+00 -9.480735e-01 -5.336586e+00 -9.523284e-04 5.941253e-03 9.282855e-04
Ga -1.613155e+00 -9.639254e-01 -1.279776e-01 -8.598526e-04 5.270131e-03 1.371109e-03
N 1.540911e+00 8.950947e-01 4.392874e+00 -6.184095e-03 -6.200543e-04 -5.212111e-03
N 1.567816e+00 8.979080e-01 -5.994236e+00 5.992267e-04 -5.738555e-03 -8.192812e-03
N 1.570219e+00 8.885161e-01 -7.748038e-01 4.206892e-04 -5.766136e-03 1.452960e-03
N -2.266718e-02 3.593689e+00 4.384311e+00 -2.302088e-05 -8.222368e-03 -7.953322e-03
N -5.017962e-02 3.662454e+00 -5.980449e+00 -6.755946e-03 4.288801e-03 -7.133387e-03
N -4.664526e-02 3.649941e+00 -7.744887e-01 -6.644613e-03 3.610214e-03 1.932075e-03
N 3.218039e+00 -1.879819e+00 4.423149e+00 6.409224e-03 3.791337e-03 1.717482e-03
N 3.189281e+00 -1.902557e+00 -5.952499e+00 -4.093434e-04 -7.638221e-03 6.448393e-04
N 3.187099e+00 -1.916005e+00 -8.111587e-01 -7.056619e-04 -7.500751e-03 -4.929840e-03
N -4.799070e+00 8.630329e-01 4.437877e+00 8.126035e-03 -6.355745e-03 4.652161e-03
N -4.828654e+00 8.999129e-01 -5.994320e+00 1.142404e-03 -5.222480e-03 -8.452819e-03
N -4.829224e+00 8.941157e-01 -7.784388e-01 1.095146e-03 -5.002431e-03 1.890681e-03
N -6.422732e+00 3.627403e+00 4.386542e+00 -3.042996e-04 -1.471126e-04 -9.199728e-03
N -6.420988e+00 3.652488e+00 -5.957488e+00 3.073530e-04 1.080499e-03 -9.664185e-04
N -6.419606e+00 3.640481e+00 -8.130964e-01 2.937916e-04 3.856728e-04 -6.783986e-03
N -3.236297e+00 -1.874415e+00 4.430235e+00 -5.917969e-03 3.795255e-03 1.598306e-03
N -3.212936e+00 -1.869183e+00 -5.953004e+00 2.787526e-04 1.312603e-05 -1.873765e-03
N -3.205317e+00 -1.882356e+00 -7.754922e-01 3.572464e-04 2.204737e-04 7.381596e-04
N -1.640752e+00 9.208080e-01 4.442671e+00 4.334159e-03 3.723971e-03 5.674243e-03
N -1.646669e+00 9.076728e-01 -6.003639e+00 5.324036e-03 -3.734381e-03 -7.866177e-03
N -1.642143e+00 8.949794e-01 -7.768315e-01 5.686246e-03 -3.524045e-03 2.444917e-03
N -3.234537e+00 3.600599e+00 4.424124e+00 4.767957e-03 -6.694497e-03 1.998451e-03
N -3.209869e+00 3.672767e+00 -5.943018e+00 9.638273e-03 5.238206e-03 1.643055e-03
N -3.207888e+00 3.662412e+00 -7.686955e-01 9.499558e-03 4.833785e-03 2.966816e-03
N -2.662090e-02 -1.885368e+00 4.382772e+00 4.251349e-03 2.076791e-03 -7.719057e-03
N -2.537510e-02 -1.865583e+00 -5.947516e+00 4.679609e-03 1.387708e-03 -6.894473e-04
N -2.559356e-02 -1.875423e+00 -7.726924e-01 4.923745e-03 1.738367e-03 1.076802e-03
N 7.425638e-03 1.810981e+00 1.845799e+00 9.074623e-04 1.012772e-03 4.155731e-03
N -1.620715e-02 1.786193e+00 6.981245e+00 -3.376970e-03 -1.399258e-03 -1.255969e-03
N -2.033105e-02 1.805450e+00 -3.383485e+00 -4.021442e-03 -1.933719e-03 -1.075336e-03
N 3.218193e+00 -3.740521e+00 1.818775e+00 1.836445e-03 -5.361898e-03 -1.402951e-02
N 3.223331e+00 -3.752289e+00 6.991882e+00 1.507180e-03 -4.693660e-03 2.594789e-03
N 3.194113e+00 -3.687231e+00 -3.402227e+00 -4.800749e-03 5.234016e-03 -5.493890e-03
N 1.569218e+00 -9.580344e-01 1.856098e+00 -9.380202e-03 6.002265e-03 2.622161e-03
N 1.601435e+00 -9.542116e-01 6.995546e+00 -5.106122e-03 8.715498e-03 1.906719e-03
N 1.626297e+00 -9.801646e-01 -3.359451e+00 4.296218e-04 -3.458369e-04 3.750224e-03
N 3.135410e+00 1.813437e+00 1.862139e+00 -5.662726e-03 3.123130e-03 1.684230e-05
N 3.163711e+00 1.756816e+00 7.001545e+00 3.169820e-04 -8.436539e-03 3.644737e-03
N 3.161618e+00 1.838132e+00 -3.369073e+00 4.281419e-05 7.369967e-03 2.529114e-04
N 6.372782e+00 -3.755099e+00 1.853200e+00 4.968198e-04 -6.938089e-03 7.824411e-04
N 6.347162e+00 -3.749062e+00 6.996750e+00 -6.347366e-03 -3.225543e-03 1.079888e-03
N 6.397634e+00 -3.727590e+00 -3.361025e+00 7.033373e-03 -4.263956e-03 1.086070e-03
N 4.782869e+00 -9.721730e-01 1.812873e+00 -9.711824e-04 4.698607e-03 9.512554e-04
N 4.783218e+00 -9.506874e-01 6.968135e+00 -1.081612e-03 1.029787e-02 -6.963539e-03
N 4.755149e+00 -9.767432e-01 -3.358548e+00 -7.039627e-03 1.201004e-03 2.965745e-03
N -3.233504e+00 1.798807e+00 1.820402e+00 4.587184e-04 -7.757490e-04 5.257984e-04
N -3.231476e+00 1.763211e+00 6.978457e+00 -4.147669e-04 -7.935552e-03 -3.941669e-03
N -3.234725e+00 1.812423e+00 -3.377333e+00 -2.476084e-04 1.204788e-04 -1.745766e-03
N -5.371155e-02 -3.705444e+00 1.852072e+00 -6.065259e-03 2.917034e-03 1.804451e-03
N -2.102221e-02 -3.728083e+00 6.986154e+00 5.385156e-04 1.737152e-04 -1.424649e-03
N -4.918041e-02 -3.722622e+00 -3.353923e+00 -6.391054e-03 -4.291472e-03 1.497461e-03
N -1.589510e+00 -9.822790e-01 1.851536e+00 4.369858e-03 2.263590e-03 1.052630e-03
N -1.612591e+00 -9.480732e-01 6.998995e+00 -1.109798e-03 1.043729e-02 1.437431e-03
N -1.615865e+00 -9.557870e-01 -3.371689e+00 -6.219328e-04 4.030342e-03 -7.296860e-04
