108
Energy=-2313459.210338 Lattice="9.633651 0.000000 0.000000 -4.828023 8.328657 0.000000 0.062217 -0.063798 15.619712" Stress="0.000002 -0.000002 0.000013 -0.000002 -0.000002 -0.000013 0.000013 -0.000013 0.000008" Properties=species:S:1:pos:R:3:forces:R:3
Al 1.572885 0.868735 2.428281 0.000534 -0.000086 0.000651
Al 1.603793 0.853187 7.670880 0.000690 0.000213 0.000701
Ga 1.547049 0.918973 -2.742385 0.000553 -0.000827 0.000612
Al -0.016296 3.619347 2.434253 -0.000138 0.000187 0.000143
Ga 0.009970 3.611329 7.670781 0.000087 0.000267 0.000622
Al -0.039545 3.676413 -2.746081 0.000238 -0.000259 0.000462
Ga 3.198646 -1.919578 2.453620 -0.000050 -0.000267 0.000042
Ga 3.220042 -1.919586 7.659060 0.000278 -0.000373 0.000014
Al 3.184443 -1.880807 -2.742470 0.000030 -0.000320 0.000130
Ga -4.823826 0.872875 2.454426 0.000203 -0.000159 -0.000359
Ga -4.821049 0.854061 7.667277 0.000543 -0.000043 -0.000665
Ga -4.869097 0.901065 -2.740047 0.000496 -0.000530 -0.001025
Ga -6.435236 3.640409 2.453197 0.000087 -0.000127 0.000102
Ga -6.424262 3.622853 7.657810 0.000170 0.000030 -0.000258
Al -6.483208 3.690250 -2.742028 -0.000011 -0.000132 -0.000048
Ga -3.197185 -1.909883 2.458355 -0.000057 -0.000362 -0.000165
Ga -3.187183 -1.919669 7.654235 0.000250 -0.000239 0.000359
Al -3.258027 -1.885407 -2.742339 0.000432 -0.000370 -0.000287
Al -1.591184 0.872614 2.446117 -0.000262 -0.000254 0.000418
Ga -1.583513 0.852030 7.653392 0.000437 -0.000776 0.000078
Ga -1.641856 0.917438 -2.735109 0.001238 -0.000741 0.000043
Al -3.208194 3.644455 2.450295 -0.000654 -0.000593 -0.000431
Ga -3.205501 3.633779 7.663501 0.000145 -0.000458 0.000072
Ga -3.260104 3.692745 -2.732775 0.000564 -0.000298 -0.000694
Al 0.000901 -1.896078 2.461565 -0.000109 -0.000966 -0.000217
Ga 0.009986 -1.905790 7.649761 0.000407 -0.000646 0.000315
Ga -0.045774 -1.874781 -2.738669 0.000879 -0.000384 -0.000319
Ga 0.006162 1.770384 5.024155 -0.001044 0.000830 0.001352
Al -0.047214 1.834339 -5.354408 0.000218 0.000531 0.001024
Al -0.038534 1.823603 -0.125304 0.000662 0.001194 0.000010
Ga 3.227316 -3.780840 5.034535 -0.000607 0.000242 0.000135
Ga 3.180962 -3.724790 -5.321625 -0.000473 0.000588 -0.000193
Ga 3.195311 -3.742726 -0.146521 0.000718 -0.000151 0.000475
Ga 1.602316 -0.980523 5.043779 -0.001239 0.000543 -0.000194
Ga 1.561869 -0.929776 -5.345868 -0.000813 0.000872 -0.000424
Ga 1.572698 -0.950977 -0.133373 0.000272 -0.000026 0.000202
Ga 3.195865 1.773089 5.056455 -0.000415 0.000311 0.000070
Ga 3.139183 1.837335 -5.345426 0.000094 0.000120 0.000349
Ga 3.157275 1.829702 -0.148635 0.000454 -0.000836 0.000520
Ga 6.427954 -3.765861 5.044257 -0.000677 0.000097 -0.000031
Ga 6.374193 -3.723728 -5.317364 0.000024 0.000280 -0.000028
Ga 6.382992 -3.739865 -0.168636 0.000450 -0.000560 0.000545
Ga 4.837447 -0.993977 5.060275 -0.000761 0.000103 -0.000622
Ga 4.773848 -0.947735 -5.325859 -0.000492 0.000571 -0.000256
Ga 4.785507 -0.961017 -0.160271 0.000290 -0.000834 -0.000108
Ga -3.197855 1.779806 5.030961 -0.000254 0.000602 0.000187
Ga -3.251057 1.836711 -5.346593 -0.000439 0.000160 0.000165
Ga -3.236199 1.826197 -0.118318 0.000388 -0.000568 0.000320
Ga 0.012137 -3.754919 5.030477 0.000030 0.000312 0.000034
Ga -0.048404 -3.714196 -5.338546 -0.000134 0.000206 0.000076
Ga -0.035171 -3.726429 -0.123825 0.000640 -0.000560 -0.000048
Al -1.590075 -0.983552 5.025927 -0.000423 -0.000056 0.000484
Ga -1.648981 -0.929016 -5.333438 -0.000651 0.000550 0.000122
Ga -1.635465 -0.943320 -0.135879 0.000083 -0.000516 0.000482
N 1.602938 0.860690 4.343487 0.000824 -0.000286 -0.000164
N 1.507511 0.936448 -6.016108 0.000238 -0.000479 -0.000530
N 1.514979 0.922361 -0.756310 0.000530 -0.000327 -0.000195
N 0.000456 3.629457 4.354040 0.000397 -0.000290 -0.000511
N -0.051876 3.642026 -5.960357 0.000200 -0.000552 -0.000147
N -0.043175 3.615145 -0.814761 0.000357 -0.001090 -0.000903
N 3.217763 -1.914298 4.426146 0.000321 -0.000203 0.000560
N 3.166536 -1.867348 -5.981429 0.000254 -0.000586 0.000381
N 3.173258 -1.881143 -0.822963 0.000204 -0.000466 0.000994
N -4.821732 0.860487 4.425574 0.000372 0.000115 0.000097
N -4.873099 0.911620 -5.970885 0.000398 -0.000169 0.000183
N -4.854200 0.904922 -0.766895 0.000577 0.000158 0.000875
N -6.426119 3.632056 4.424488 0.000127 -0.000104 0.000068
N -6.481824 3.692691 -5.984028 -0.000049 -0.000149 -0.000146
N -6.460212 3.679197 -0.824762 0.000353 -0.000199 0.000935
N -3.161005 -1.892046 4.436192 0.000444 -0.000080 0.000125
N -3.252670 -1.864406 -5.980603 0.000330 -0.000585 -0.000013
N -3.238789 -1.875351 -0.827823 0.000669 -0.000450 0.001031
N -1.602188 0.816428 4.373564 0.000876 -0.000115 -0.000708
N -1.614213 0.938087 -5.973946 0.000584 -0.000836 -0.000622
N -1.599397 0.931791 -0.748385 0.000333 -0.001149 -0.000585
N -3.212639 3.639404 4.363516 0.000056 -0.000421 -0.000043
N -3.264040 3.696538 -5.975372 0.000477 -0.000354 -0.000164
N -3.256511 3.678850 -0.762972 0.000016 -0.000619 0.000352
N -0.032828 -1.884843 4.384210 0.000229 -0.000470 -0.000153
N -0.050336 -1.856179 -5.984789 0.000662 -0.000732 -0.000175
N -0.034362 -1.873739 -0.768878 0.000359 -0.000917 0.000207
N -0.011169 1.793114 1.809380 -0.000636 0.000599 0.000891
N 0.052667 1.749829 7.018553 -0.000155 0.000591 -0.000540
N -0.045091 1.873435 -3.427464 -0.000598 0.001204 -0.000570
N 3.216557 -3.812252 1.846923 -0.000289 0.001294 -0.001185
N 3.233105 -3.782921 7.018110 0.000112 0.000663 -0.000438
N 3.218588 -3.704220 -3.331923 0.000351 0.000497 0.000334
N 1.564053 -0.966004 1.856807 -0.000971 0.001212 -0.001007
N 1.619320 -0.945147 7.036758 -0.000526 0.000193 -0.000284
N 1.609290 -0.967850 -3.358973 -0.000013 0.000324 0.000209
N 3.158466 1.765590 1.832265 -0.000864 0.001303 -0.001132
N 3.168179 1.748166 7.045418 -0.000386 0.000084 0.000101
N 3.157781 1.876879 -3.359147 0.000034 0.000683 0.000074
N 6.379562 -3.786349 1.823705 -0.000787 0.001011 -0.001132
N 6.431079 -3.776947 7.021773 -0.000115 0.000163 -0.000311
N 6.381820 -3.724608 -3.316824 -0.000114 0.000167 0.000293
N 4.817856 -0.992245 1.814222 -0.001053 0.001082 -0.000063
N 4.832919 -0.999153 7.030497 -0.000470 0.000100 0.000193
N 4.778006 -0.995733 -3.336469 -0.000127 -0.000164 0.000244
N -3.173947 1.812132 1.869953 -0.000538 0.001138 -0.000624
N -3.200767 1.777512 7.018202 -0.000486 0.000208 0.000194
N -3.255730 1.831585 -3.373308 -0.000476 0.000290 0.000263
N 0.041258 -3.735491 1.867221 -0.000716 0.001374 -0.000360
N 0.017049 -3.769924 7.013538 -0.000411 0.000184 0.000099
N -0.081516 -3.744835 -3.359297 -0.000479 -0.000179 0.000053
N -1.563580 -0.960782 1.852983 -0.001205 0.001197 -0.000806
N -1.589055 -0.992709 6.955109 -0.000829 0.000465 -0.000488
N -1.687835 -0.964293 -3.351763 -0.001272 0.000179 0.000301
