108
Energy=-2771214.570368 Lattice="9.686971 0.000000 0.000000 -4.843431 8.387921 0.000000 -0.001036 -0.000396 15.733121" Stress="-0.000000 0.000000 -0.000000 0.000000 0.000000 0.000000 -0.000000 0.000000 0.000000" Properties=species:S:1:pos:R:3:forces:R:3
Al 1.590060 0.893402 2.478157 0.000013 0.000014 0.000011
Ga 1.586437 0.899206 7.719793 -0.000010 -0.000000 -0.000001
Ga 1.590304 0.892553 -2.772115 -0.000005 0.000016 -0.000002
Ga -0.018854 3.679697 2.476811 -0.000007 -0.000014 -0.000007
Al -0.017538 3.689657 7.728136 -0.000004 -0.000001 -0.000014
Ga -0.015934 3.690123 -2.779659 0.000005 0.000006 -0.000002
Ga 3.202277 -1.898843 2.479134 -0.000023 0.000011 -0.000030
Ga 3.208266 -1.910686 7.717147 -0.000000 -0.000002 -0.000007
Ga 3.204642 -1.904691 -2.770018 -0.000000 -0.000004 -0.000006
Ga -4.876547 0.891462 2.474333 0.000010 0.000001 -0.000045
Ga -4.867982 0.892710 7.719060 -0.000017 0.000009 -0.000000
Ga -4.867903 0.892873 -2.765780 0.000002 -0.000010 -0.000010
Ga -6.487226 3.680505 2.479010 0.000015 0.000009 -0.000037
Ga -6.496435 3.689185 7.728789 -0.000001 0.000004 -0.000002
Ga -6.490361 3.690667 -2.782221 -0.000002 0.000013 -0.000010
Ga -3.252160 -1.905670 2.480391 -0.000008 -0.000009 0.000003
Ga -3.257261 -1.917852 7.732967 -0.000018 0.000005 -0.000013
Ga -3.252609 -1.914300 -2.787324 0.000002 0.000007 0.000002
Ga -1.626016 0.892379 2.479501 -0.000012 -0.000016 -0.000005
Ga -1.631971 0.900478 7.717639 -0.000027 -0.000006 -0.000035
Ga -1.634913 0.893653 -2.770136 0.000007 0.000013 -0.000015
Ga -3.250920 3.689350 2.481309 0.000022 -0.000000 -0.000023
Ga -3.243392 3.687573 7.722092 0.000005 -0.000004 0.000013
Ga -3.250594 3.688284 -2.773578 0.000013 0.000021 -0.000021
Ga -0.019657 -1.896977 2.475576 -0.000020 -0.000016 0.000023
Ga -0.022195 -1.902880 7.719521 0.000002 0.000007 -0.000016
Ga -0.021442 -1.903328 -2.765938 -0.000003 0.000016 -0.000009
Ga -0.015896 1.827417 5.102038 -0.000003 -0.000012 -0.000010
Ga -0.017908 1.839873 -5.405009 0.000011 -0.000007 -0.000028
Ga -0.017576 1.822501 -0.136931 -0.000003 -0.000028 -0.000015
Ga 3.212005 -3.771950 5.114068 0.000003 0.000003 -0.000031
Ga 3.223084 -3.770965 -5.404993 0.000014 -0.000001 -0.000009
Ga 3.206937 -3.768613 -0.148390 -0.000000 -0.000015 -0.000015
Ga 1.590484 -0.963981 5.085370 0.000027 -0.000007 -0.000013
Ga 1.591583 -0.972068 -5.391434 0.000009 -0.000015 0.000002
Ga 1.592161 -0.966048 -0.132564 -0.000005 -0.000012 -0.000011
Ga 3.198543 1.821313 5.090335 0.000016 -0.000005 -0.000026
Ga 3.202185 1.832035 -5.392931 0.000004 0.000002 0.000002
Ga 3.199405 1.823038 -0.137165 0.000034 0.000010 -0.000018
Ga 6.429513 -3.770435 5.111274 0.000019 -0.000003 -0.000022
Al 6.427646 -3.773111 -5.406598 0.000005 0.000006 -0.000019
Ga 6.435066 -3.767474 -0.146326 -0.000006 -0.000007 0.000007
Ga 4.821708 -0.972584 5.102446 0.000021 0.000006 -0.000031
Ga 4.824248 -0.978556 -5.393199 0.000015 -0.000009 -0.000019
Ga 4.822112 -0.974529 -0.148672 -0.000016 -0.000006 0.000014
Ga -3.252760 1.823790 5.099176 0.000013 -0.000004 -0.000023
Ga -3.251816 1.823436 -5.390585 0.000018 -0.000021 -0.000005
Ga -3.250862 1.825065 -0.144080 0.000014 0.000007 -0.000015
Ga -0.024969 -3.768360 5.102588 0.000019 -0.000014 -0.000021
Ga -0.033122 -3.767625 -5.392872 0.000021 0.000001 -0.000008
Ga -0.024306 -3.769574 -0.148318 -0.000004 -0.000014 -0.000006
Ga -1.639276 -0.973165 5.102684 0.000025 -0.000015 -0.000031
Ga -1.641194 -0.979262 -5.393400 0.000026 -0.000007 0.000000
Ga -1.639623 -0.972900 -0.148425 -0.000007 -0.000004 0.000013
N 1.588222 0.894969 4.404426 -0.000012 0.000001 0.000008
N 1.592148 0.891878 -6.034270 0.000001 0.000002 0.000018
N 1.590857 0.891882 -0.791174 -0.000004 0.000013 0.000016
N -0.023133 3.688225 4.455826 0.000010 -0.000011 -0.000003
N 0.021184 3.712622 -6.074559 -0.000019 -0.000002 0.000010
N -0.020149 3.686776 -0.792523 -0.000007 0.000005 0.000010
N 3.206663 -1.907650 4.464072 0.000000 -0.000009 0.000041
N 3.205467 -1.902896 -6.035483 -0.000008 -0.000002 0.000009
N 3.202930 -1.902883 -0.784571 -0.000003 -0.000005 0.000015
N -4.867780 0.891573 4.457118 -0.000015 -0.000003 0.000030
N -4.867502 0.892482 -6.032300 0.000003 -0.000004 -0.000005
N -4.868789 0.894053 -0.780889 -0.000021 -0.000001 0.000035
N -6.484260 3.689958 4.462376 -0.000023 -0.000008 0.000037
N -6.524889 3.712705 -6.015202 -0.000010 -0.000012 0.000021
N -6.484471 3.687028 -0.793520 -0.000001 0.000002 -0.000012
N -3.252165 -1.906981 4.463091 -0.000021 0.000001 0.000031
N -3.252127 -1.954280 -6.011637 -0.000007 0.000010 0.000002
N -3.251857 -1.907935 -0.800544 -0.000013 -0.000004 -0.000026
N -1.633931 0.893014 4.464456 0.000002 0.000006 0.000055
N -1.635750 0.892296 -6.033059 -0.000017 0.000009 -0.000002
N -1.634321 0.894327 -0.784513 -0.000020 -0.000006 0.000008
N -3.249754 3.690841 4.465514 -0.000007 0.000006 0.000025
N -3.251622 3.689473 -6.029461 -0.000015 0.000004 0.000024
N -3.251420 3.688287 -0.790004 -0.000024 -0.000006 -0.000005
N -0.024770 -1.904479 4.458403 -0.000011 0.000008 -0.000000
N -0.022032 -1.903264 -6.033971 -0.000016 -0.000006 0.000004
N -0.019914 -1.902344 -0.781189 -0.000016 -0.000005 0.000024
N 0.020968 1.799066 1.853264 0.000012 0.000002 0.000001
N -0.020353 1.875793 7.096356 0.000005 0.000023 0.000021
N -0.022695 1.826970 -3.420544 0.000002 -0.000014 0.000021
N 3.207213 -3.768448 1.835039 0.000014 0.000003 0.000013
N 3.251730 -3.795350 7.105100 0.000008 0.000007 -0.000009
N 3.209869 -3.769336 -3.418967 -0.000007 0.000002 0.000024
N 1.592192 -0.921460 1.858650 -0.000011 0.000000 -0.000018
N 1.591635 -0.968259 7.070378 -0.000023 0.000005 0.000011
N 1.591150 -0.972336 -3.410756 0.000011 -0.000002 -0.000008
N 3.160813 1.799574 1.854447 -0.000017 -0.000023 0.000025
N 3.202864 1.824765 7.075265 0.000001 0.000000 0.000010
N 3.205897 1.823401 -3.411671 -0.000004 -0.000006 0.000005
N 6.434451 -3.768129 1.833794 0.000014 0.000015 0.000026
N 6.390340 -3.793130 7.097348 0.000003 0.000010 0.000015
N 6.431156 -3.771723 -3.478458 -0.000007 -0.000011 0.000005
N 4.821004 -0.974280 1.834252 0.000021 0.000018 0.000023
N 4.822952 -0.973455 7.084278 0.000001 -0.000002 0.000020
N 4.819139 -0.971336 -3.410369 0.000004 0.000019 0.000002
N -3.250792 1.823088 1.840068 -0.000011 0.000023 0.000006
N -3.252577 1.823851 7.079088 0.000000 -0.000000 0.000000
N -3.252208 1.822548 -3.408649 -0.000006 0.000002 0.000009
N -0.024893 -3.769313 1.836753 0.000018 0.000010 0.000001
N -0.026180 -3.771289 7.086644 -0.000009 0.000011 0.000002
N -0.024378 -3.767610 -3.409923 -0.000003 -0.000016 0.000011
N -1.639407 -0.972288 1.834608 0.000024 0.000034 -0.000002
N -1.642156 -0.973378 7.086500 0.000014 0.000002 0.000018
N -1.636264 -0.972056 -3.410379 0.000010 0.000007 -0.000004
