108
Energy=-528214.789361 Lattice="9.447184 0.000000 0.000000 -4.733772 8.178108 0.000000 0.033603 -0.012013 15.149059" Stress="0.000078 0.000008 0.000006 0.000008 0.000089 -0.000004 0.000006 -0.000004 0.000064" Properties=species:S:1:pos:R:3:forces:R:3
Al 1.558667 0.869514 2.397472 -0.000432 -0.003636 -0.003832
Al 1.566089 0.867754 7.429449 0.000826 -0.004338 -0.000662
Al 1.541224 0.882365 -2.694858 -0.001002 -0.003838 -0.000491
Al -0.011833 3.587213 2.394403 -0.000936 -0.001587 -0.003305
Al -0.002237 3.585854 7.431469 -0.000504 -0.000414 0.000134
Al -0.030902 3.596934 -2.691840 -0.000552 -0.001511 -0.001078
Al 3.154973 -1.870244 2.397989 -0.001114 -0.000465 -0.002116
Al 3.163882 -1.873527 7.428094 -0.000618 0.000086 -0.000136
Al 3.142193 -1.861822 -2.696061 -0.000448 -0.000803 0.000980
Al -4.750468 0.873396 2.394213 0.000696 -0.003576 -0.003471
Al -4.743026 0.872474 7.431810 0.001253 -0.003875 -0.000604
Al -4.773279 0.883245 -2.688915 0.001689 -0.004215 -0.001979
Al -6.319311 3.594754 2.396499 0.000539 0.000097 -0.002849
Al -6.311424 3.590538 7.430804 0.000241 -0.000250 -0.000243
Al -6.342075 3.595343 -2.689358 -0.000671 0.000293 0.000179
Al -3.170268 -1.873002 2.406487 0.008679 0.004977 -0.006819
Al -3.145866 -1.868283 7.430229 0.000172 0.000394 0.000124
Al -3.184161 -1.858466 -2.695310 0.001189 0.000227 -0.000588
Al -1.609573 0.878132 2.409442 0.006414 0.000420 -0.003821
Al -1.605526 0.877959 7.431895 0.005177 -0.003035 -0.001043
Al -1.637587 0.894461 -2.680129 0.006866 -0.003114 -0.036120
Al -3.179825 3.597400 2.394189 0.003758 0.001430 -0.003454
Al -3.172587 3.595613 7.430931 0.004052 0.000811 -0.000724
Al -3.202157 3.600319 -2.688704 0.005352 0.000949 -0.001029
Al -0.003973 -1.857402 2.398730 0.003759 0.000482 -0.003426
Al -0.007605 -1.862836 7.431249 0.004117 0.001369 -0.000550
Ga -0.034468 -1.860222 -2.687321 0.004082 0.003508 -0.001010
Al -0.005390 1.773655 4.920288 -0.003479 -0.001249 -0.001261
Al -0.034029 1.782499 -5.207003 -0.003821 -0.001216 0.000585
Al -0.044427 1.779524 -0.185895 0.007183 0.001980 0.006847
Al 3.160640 -3.687312 4.918679 -0.004336 -0.000710 -0.001430
Al 3.131633 -3.676555 -5.206810 -0.004166 -0.000776 -0.000627
Al 3.138420 -3.678973 -0.158450 -0.003763 -0.000230 0.001582
Al 1.592825 -0.967513 4.917691 -0.005500 0.003430 -0.002010
Al 1.568745 -0.954891 -5.211857 -0.006087 0.002857 -0.001320
Al 1.580027 -0.959395 -0.173828 -0.004531 0.004075 0.010551
Al 3.133441 1.777991 4.917025 -0.000656 -0.000368 -0.000771
Al 3.104175 1.787772 -5.207192 -0.000337 -0.000426 0.000075
Al 3.107302 1.785938 -0.158295 -0.000777 -0.000747 0.002461
Al 6.297057 -3.682549 4.919871 -0.000209 -0.000882 -0.000643
Al 6.269707 -3.671628 -5.206533 -0.000284 0.000184 -0.000187
Al 6.273409 -3.676943 -0.159141 0.000226 0.000205 0.002762
Al 4.729513 -0.963061 4.921170 -0.002469 0.004740 -0.001034
Al 4.701508 -0.951940 -5.208267 -0.001393 0.004099 -0.000541
Al 4.703533 -0.954769 -0.155559 -0.001235 0.003582 0.000996
Al -3.176397 1.783118 4.917182 -0.000304 0.000231 -0.000146
Al -3.204709 1.792694 -5.206470 0.000175 -0.000110 0.000793
Al -3.196126 1.792916 -0.172255 0.004958 -0.001452 -0.000310
Al -0.010811 -3.676751 4.917808 0.000157 0.000637 -0.000798
Al -0.039049 -3.671459 -5.211908 0.000210 0.001252 -0.000592
Al -0.034156 -3.676712 -0.149943 0.001072 -0.002002 0.003407
Al -1.580515 -0.957289 4.918230 -0.000103 0.004165 -0.000613
Al -1.610879 -0.944184 -5.209102 -0.000209 0.003748 0.000253
Ga -1.597197 -0.926292 -0.168795 0.000154 0.002129 0.000664
N 1.561925 0.870819 4.321935 0.000735 -0.004143 -0.000186
N 1.534635 0.879484 -5.804177 0.000854 -0.003961 0.000305
N 1.536480 0.876918 -0.772600 0.002303 -0.004701 0.003940
N -0.005870 3.587213 4.317669 -0.000206 -0.000199 -0.000657
N -0.033888 3.598416 -5.802639 -0.000200 -0.000340 -0.000125
N -0.027992 3.597540 -0.772254 -0.000556 0.000486 0.003294
N 3.160900 -1.872584 4.321893 -0.000014 0.000035 -0.000774
N 3.132876 -1.861987 -5.805885 -0.000128 -0.000180 -0.000092
N 3.140502 -1.863771 -0.769984 -0.000084 -0.000379 0.001818
N -4.746571 0.872632 4.317882 0.001739 -0.004331 -0.000587
N -4.775525 0.882831 -5.801680 0.001424 -0.003971 0.000756
N -4.771203 0.881539 -0.768007 0.003801 -0.004832 0.004123
N -6.314553 3.592699 4.317927 0.000061 -0.000079 -0.000521
N -6.343812 3.601257 -5.804975 0.000048 -0.000331 0.000137
N -6.338067 3.599329 -0.766936 0.000361 0.000115 0.002538
N -3.154246 -1.869580 4.323743 0.001384 0.001184 -0.001728
N -3.178999 -1.857286 -5.804286 0.000114 0.000043 -0.000040
N -3.192136 -1.867394 -0.778320 -0.006754 -0.003275 0.000253
N -1.608910 0.881967 4.326837 0.004826 -0.004228 0.000386
N -1.637908 0.889712 -5.800580 0.005266 -0.002894 0.000185
N -1.579465 0.922621 -0.891060 -0.013939 0.003633 0.050844
N -3.176945 3.597569 4.317569 0.004227 0.000523 -0.000309
N -3.203518 3.607154 -5.804231 0.004425 0.000613 0.000559
N -3.201439 3.607753 -0.768173 0.005478 -0.000418 0.003705
N -0.012003 -1.862091 4.322886 0.003371 0.001323 -0.000412
N -0.039465 -1.851249 -5.799848 0.004016 0.001194 0.000447
N -0.005545 -1.878352 -0.730519 0.010996 0.000284 0.003836
N -0.013647 1.773891 1.782790 -0.005359 -0.001154 -0.004932
N -0.002625 1.772107 6.836900 -0.004149 -0.001371 0.000152
N -0.030409 1.782747 -3.290322 -0.002575 -0.000636 -0.001144
N 3.154633 -3.684542 1.785162 -0.004618 -0.000700 -0.001403
N 3.162566 -3.689013 6.835140 -0.004077 -0.000758 0.000151
N 3.132844 -3.677905 -3.289647 -0.004526 -0.000561 0.002072
N 1.591944 -0.964786 1.813115 -0.004156 0.003878 -0.009609
N 1.594913 -0.968470 6.836260 -0.005169 0.003016 0.000840
N 1.594321 -0.943357 -3.298680 0.000938 0.006481 -0.000672
N 3.127288 1.781893 1.784930 0.000031 -0.000637 -0.001876
N 3.136246 1.777500 6.833882 -0.000025 -0.000439 -0.000470
N 3.106786 1.788282 -3.289363 0.000605 -0.000690 0.000759
N 6.288765 -3.679851 1.786845 0.000504 0.001177 -0.002341
N 6.300368 -3.683031 6.834998 -0.000310 0.000461 -0.000395
N 6.271681 -3.672749 -3.290914 0.000197 0.000242 0.001314
N 4.720608 -0.963321 1.784832 0.000018 0.005280 -0.000773
N 4.733232 -0.962258 6.836238 -0.001157 0.004111 0.000142
N 4.703349 -0.951388 -3.291943 -0.001463 0.004804 0.001282
N -3.176456 1.780471 1.780420 0.001208 -0.001368 -0.004854
N -3.174033 1.781849 6.834359 0.000442 -0.000307 -0.000514
N -3.204786 1.792440 -3.287505 -0.000554 -0.000465 -0.000561
N -0.015707 -3.674229 1.783409 -0.000498 -0.000605 0.000905
N -0.008487 -3.678456 6.835001 0.000373 0.000459 -0.000274
N -0.037975 -3.699968 -3.301086 0.000319 -0.008054 -0.002168
N -1.551504 -0.930624 1.790719 -0.014244 -0.002319 0.015285
N -1.576344 -0.958445 6.836400 -0.000943 0.004253 -0.000030
N -1.630366 -0.935048 -3.292894 -0.007419 0.007203 -0.003339
