108
Energy=-1123296.458693 Lattice="9.476381 0.000000 0.000000 -4.746996 8.201626 0.000000 -0.003264 -0.065126 15.284697" Stress="-0.000001 -0.000004 -0.000000 -0.000004 -0.000003 -0.000015 -0.000001 -0.000015 0.000010" Properties=species:S:1:pos:R:3:forces:R:3
Al 1.551778 0.868576 2.400303 -0.000741 -0.003088 -0.000131
Al 1.558671 0.830998 7.471042 -0.000456 -0.000059 -0.000995
Al 1.553054 0.885526 -2.680386 0.000427 0.000192 0.001060
Al -0.043040 3.589860 2.390915 0.000032 0.000962 -0.000412
Al -0.018662 3.556121 7.475375 -0.000640 0.000400 0.000914
Al -0.024899 3.623019 -2.672877 0.001370 -0.000525 0.000924
Al 3.134430 -1.881017 2.384704 -0.001350 -0.001373 -0.001126
Al 3.139817 -1.894416 7.498029 0.000717 -0.001244 0.001958
Ga 3.148560 -1.839686 -2.686475 -0.000627 0.000290 0.001031
Al -4.776801 0.870665 2.421715 0.000809 -0.002974 -0.000998
Al -4.761332 0.833923 7.483803 0.000139 0.002020 0.001349
Al -4.763587 0.889861 -2.699850 0.000270 -0.000148 -0.000506
Ga -6.343714 3.594110 2.385587 -0.000059 0.000309 0.000416
Al -6.339585 3.564295 7.493294 -0.000379 0.000355 0.000385
Ga -6.350927 3.621773 -2.685038 -0.000396 0.000134 0.000841
Al -3.176238 -1.860253 2.407607 0.000371 -0.001505 -0.002341
Ga -3.171678 -1.897230 7.506894 0.000570 0.000251 0.000718
Al -3.179091 -1.842680 -2.704734 -0.001979 0.000008 -0.000315
Al -1.599941 0.859286 2.412409 0.000229 0.000194 -0.000353
Al -1.601007 0.836679 7.472818 0.000134 -0.000168 0.002127
Ga -1.616488 0.898085 -2.683101 0.000506 -0.000226 -0.000544
Al -3.178681 3.610360 2.426280 0.000160 -0.000192 0.000092
Ga -3.185949 3.567227 7.473416 -0.000347 -0.000393 0.000343
Al -3.189640 3.620454 -2.696089 -0.000086 -0.000423 -0.000036
Al -0.025807 -1.866864 2.394327 0.001603 0.001016 -0.000727
Al -0.014604 -1.892003 7.495885 -0.001412 -0.000462 0.000898
Ga -0.022302 -1.836224 -2.695272 0.000853 -0.000284 0.001666
Al -0.030662 1.752095 4.941766 -0.000383 0.000065 0.000141
Ga -0.025110 1.799064 -5.258036 -0.000020 -0.000002 0.001101
Al -0.022493 1.788513 -0.132519 0.003274 0.001618 -0.000682
Al 3.143331 -3.730748 4.940844 -0.000390 0.002180 0.000016
Ga 3.146329 -3.662431 -5.244527 -0.000097 0.000564 0.000430
Al 3.134813 -3.685784 -0.135534 0.000553 0.000310 -0.001127
Ga 1.559736 -0.989508 4.937314 -0.001563 0.001054 0.000799
Al 1.556463 -0.931459 -5.267902 0.000259 0.000313 -0.000134
Al 1.547192 -0.935408 -0.120833 0.000152 0.000079 0.000407
Al 3.136960 1.758790 4.963153 -0.000031 0.000510 0.000312
Ga 3.139696 1.801844 -5.260101 0.000161 -0.000602 0.001156
Al 3.114268 1.785553 -0.152464 0.000049 -0.000189 0.000211
Ga 6.302519 -3.725124 4.942655 0.000003 0.000071 -0.000089
Al 6.305872 -3.652775 -5.242063 -0.001613 -0.000367 -0.000169
Al 6.289499 -3.674940 -0.143930 -0.000471 0.000443 0.000527
Ga 4.721415 -0.972241 4.932903 -0.000768 0.000174 0.001436
Al 4.728039 -0.920723 -5.245510 -0.000543 -0.000234 -0.000288
Ga 4.723172 -0.937431 -0.115877 -0.000113 -0.001815 -0.006108
Al -3.181428 1.760367 4.928781 0.000876 0.000006 -0.000572
Al -3.194117 1.799251 -5.243442 0.000268 -0.000899 -0.001172
Ga -3.191898 1.811076 -0.114861 -0.000356 -0.000211 -0.000417
Al -0.014113 -3.708298 4.947230 -0.000354 -0.000177 -0.000143
Al -0.025075 -3.648086 -5.256165 0.001171 -0.000681 -0.000071
Al -0.013655 -3.664983 -0.137158 0.000128 -0.000419 0.000673
Al -1.583252 -0.969339 4.942113 -0.000720 0.000266 0.000153
Al -1.602357 -0.930973 -5.254415 0.000151 0.000981 -0.001585
Al -1.595064 -0.949952 -0.124925 -0.000886 -0.000968 -0.000218
N 1.558809 0.893406 4.327330 0.000168 0.000128 -0.000828
N 1.554813 0.850087 -5.915344 0.000190 0.000397 0.001175
N 1.542918 0.874805 -0.754813 0.000774 -0.000007 0.000704
N -0.064967 3.548871 4.310098 -0.000511 0.000275 -0.000495
N 0.015986 3.649472 -5.902396 0.000846 0.000183 0.000164
N -0.030918 3.611995 -0.746939 0.000358 -0.000114 0.000582
N 3.140362 -1.942240 4.289921 0.000867 -0.000752 0.000183
N 3.144868 -1.795349 -5.865996 0.000230 -0.000144 -0.000044
N 3.099312 -1.870175 -0.704692 -0.001075 -0.000240 -0.000705
N -4.772252 0.899470 4.329725 0.000308 -0.000717 -0.001331
N -4.720713 0.873580 -5.884066 0.000291 0.000175 -0.000344
N -4.800254 0.906026 -0.789948 -0.000128 0.000745 0.000307
N -6.298700 3.550952 4.359969 0.000072 0.000631 -0.000121
N -6.343831 3.677839 -5.867427 0.000149 -0.000218 -0.001271
N -6.346478 3.621098 -0.696205 0.000024 -0.000496 0.001095
N -3.130123 -1.868406 4.308512 0.000203 0.001196 0.000976
N -3.177457 -1.839248 -5.802612 0.000178 0.000238 -0.000368
N -3.139549 -1.869377 -0.776778 0.000815 -0.000421 -0.001207
N -1.599147 0.845531 4.337492 -0.000026 -0.000172 -0.001242
N -1.650972 0.877877 -5.877411 0.000741 -0.000875 -0.002076
N -1.571601 0.862523 -0.705305 -0.001720 -0.001380 -0.000236
N -3.185462 3.588967 4.352474 0.000162 -0.000253 -0.000263
N -3.225307 3.603254 -5.837501 -0.000770 0.001185 0.000220
N -3.190571 3.664608 -0.778157 -0.000587 -0.000509 0.000096
N -0.059319 -1.911696 4.310485 -0.000169 0.000070 -0.000986
N -0.021968 -1.834214 -5.862248 -0.000189 -0.000582 -0.000275
N -0.022243 -1.845187 -0.707149 -0.000009 -0.000495 0.000308
N -0.025115 1.773984 1.790253 -0.000313 -0.000476 0.001067
N -0.022475 1.740935 6.870204 -0.000380 0.000733 -0.000929
N 0.015478 1.823463 -3.275011 -0.000059 0.000250 0.000427
N 3.135936 -3.701601 1.784040 -0.000667 -0.000657 0.000816
N 3.187351 -3.695455 6.863458 0.000493 -0.000288 -0.001592
N 3.146589 -3.717177 -3.267933 -0.000697 0.000504 -0.000203
N 1.559344 -0.955691 1.800862 -0.002115 0.001861 0.002013
N 1.565663 -1.002723 6.922632 -0.000643 0.002785 -0.001480
N 1.562880 -0.887098 -3.349895 -0.000924 0.000503 -0.000963
N 3.127912 1.723660 1.765319 0.000642 0.000196 -0.001203
N 3.139469 1.747321 6.888774 -0.000120 -0.000271 -0.000695
N 3.126259 1.753975 -3.278563 0.000240 0.000075 0.000050
N 6.247427 -3.661609 1.778496 0.000937 -0.001209 0.000225
N 6.303750 -3.766155 6.908501 0.000159 0.000019 -0.000103
N 6.253627 -3.646622 -3.318033 0.000214 -0.000302 -0.000264
N 4.716934 -0.964506 1.838367 0.001188 0.005811 0.008339
N 4.681213 -0.965871 6.908734 0.000050 -0.000798 -0.001288
N 4.756113 -0.904976 -3.326737 0.001085 -0.000499 0.001608
N -3.192127 1.782614 1.872534 0.000794 -0.000366 -0.000897
N -3.182652 1.699113 6.844535 0.000083 -0.000325 -0.000830
N -3.228539 1.827093 -3.325330 0.000147 -0.000320 0.000996
N 0.027857 -3.668523 1.779526 0.000237 -0.000441 -0.000472
N -0.058923 -3.690139 6.863800 0.000050 0.000025 -0.000527
N 0.016145 -3.683951 -3.342845 -0.000117 -0.000005 -0.000131
N -1.606193 -0.956759 1.794212 0.000480 0.000574 0.000494
N -1.552160 -0.963672 6.862513 -0.000585 -0.000347 -0.000941
N -1.637688 -0.948548 -3.349801 0.000169 -0.000014 0.001636
