108
Energy=-5.282153e+05 Lattice="9.407438e+00 0.000000e+00 0.000000e+00 -4.704538e+00 8.147167e+00 0.000000e+00 6.402175e-04 3.501032e-03 1.508296e+01" Stress="1.449902e-05 -5.651298e-05 3.834133e-05 -5.666673e-05 -1.002395e-04 1.405900e-04 3.749110e-05 1.388737e-04 3.127302e-04" Properties=species:S:1:pos:R:3:forces:R:3 Config_type=AlGaN_super3_2_1_18.xyz
Al 1.546044e+00 8.672534e-01 2.367792e+00 -3.589946e-05 9.898814e-05 1.415344e-05
Al 1.543912e+00 8.690352e-01 7.392201e+00 7.630807e-06 5.753857e-05 3.256003e-05
Al 1.546204e+00 8.642755e-01 -2.669794e+00 2.175331e-05 5.251133e-05 2.887605e-05
Al -2.227430e-02 3.583457e+00 2.367640e+00 -9.213779e-06 2.279261e-05 -7.628470e-06
Al -2.230427e-02 3.581705e+00 7.392286e+00 -7.949651e-06 1.743540e-06 1.448295e-05
Al -2.293683e-02 3.582033e+00 -2.669946e+00 1.854282e-06 1.859566e-05 1.673164e-05
Al 3.106842e+00 -1.852293e+00 2.382061e+00 -3.707635e-04 -3.022839e-04 -1.588123e-06
Al 3.115511e+00 -1.847036e+00 7.391401e+00 -1.673337e-06 -1.073905e-05 2.214830e-05
Al 3.108331e+00 -1.853841e+00 -2.680263e+00 -2.422756e-05 -8.457783e-07 8.207256e-05
Al -4.725863e+00 8.746716e-01 2.381117e+00 -8.771545e-05 4.042100e-04 2.382706e-04
Al -4.726092e+00 8.667322e-01 7.391460e+00 1.285431e-05 4.374836e-05 3.610395e-05
Al -4.726550e+00 8.714220e-01 -2.679804e+00 -7.238545e-05 1.125968e-05 -2.712495e-04
Al -6.301004e+00 3.578760e+00 2.382410e+00 1.063150e-04 2.380390e-04 -1.384772e-04
Al -6.293319e+00 3.584351e+00 7.391495e+00 1.956578e-07 -1.074324e-05 1.644431e-05
Al -6.300218e+00 3.577607e+00 -2.680270e+00 -9.586263e-07 2.131649e-05 1.019828e-05
Al -3.150683e+00 -1.852251e+00 2.382136e+00 1.272503e-04 -1.703576e-04 -2.730457e-05
Al -3.158775e+00 -1.846864e+00 7.391446e+00 -1.203105e-05 -1.213583e-05 2.568947e-05
Al -3.152950e+00 -1.853657e+00 -2.680408e+00 1.577419e-05 -2.086368e-05 8.996827e-06
Al -1.590552e+00 8.675636e-01 2.367757e+00 1.559961e-05 5.589447e-05 -2.241192e-05
Al -1.588598e+00 8.693666e-01 7.392269e+00 -2.030018e-05 3.976452e-05 3.245782e-05
Al -1.592147e+00 8.646778e-01 -2.669829e+00 1.713860e-05 -4.758747e-06 4.119141e-05
Al -3.151548e+00 3.578855e+00 2.381734e+00 -8.631147e-05 2.435163e-04 -1.979292e-05
Al -3.159151e+00 3.584542e+00 7.391443e+00 -2.236374e-05 -4.080186e-05 2.643978e-05
Al -3.153482e+00 3.577831e+00 -2.680187e+00 -3.190125e-05 2.295775e-05 2.843609e-05
Al -2.193220e-02 -1.838876e+00 2.382496e+00 -6.246689e-05 -8.952156e-05 -2.330762e-05
Al -2.181354e-02 -1.848323e+00 7.391483e+00 -2.643422e-05 -4.752606e-05 1.726748e-05
Al -2.241074e-02 -1.844258e+00 -2.680029e+00 -3.622685e-05 -9.036706e-06 1.549240e-05
Al -2.239027e-02 1.773122e+00 4.878494e+00 2.256625e-05 2.471420e-05 1.554202e-05
Al -2.306211e-02 1.769923e+00 -5.177788e+00 2.532902e-05 2.946622e-05 2.664212e-05
Al -2.268703e-02 1.770928e+00 -1.546789e-01 -2.216813e-05 7.929352e-06 6.216273e-05
Al 3.115516e+00 -3.659830e+00 4.887220e+00 -1.752766e-05 -2.076485e-05 3.305786e-06
Al 3.114846e+00 -3.662292e+00 -5.186182e+00 1.069086e-05 2.840046e-05 3.190981e-05
Al 3.117834e+00 -3.667853e+00 -1.499620e-01 -5.549146e-05 1.086371e-04 7.304107e-05
Al 1.545647e+00 -9.408806e-01 4.887344e+00 -3.843157e-06 6.962933e-06 3.517517e-05
Al 1.545568e+00 -9.443214e-01 -5.186157e+00 5.660026e-06 -1.258958e-05 5.559126e-05
Al 1.541546e+00 -9.379141e-01 -1.498270e-01 -6.807950e-06 -1.016177e-05 1.412505e-04
Al 3.111631e+00 1.772656e+00 4.887200e+00 1.342272e-05 -2.108706e-05 2.873264e-05
Al 3.111431e+00 1.769279e+00 -5.186172e+00 -5.704809e-06 -5.443610e-06 4.973418e-05
Al 3.105237e+00 1.770477e+00 -1.501250e-01 -3.202474e-04 2.871497e-04 1.290995e-04
Al 6.248553e+00 -3.659624e+00 4.887350e+00 -1.290964e-05 -3.854740e-05 -8.928332e-06
Al 6.247909e+00 -3.662118e+00 -5.186218e+00 -9.416949e-06 -1.031075e-06 1.797494e-05
Al 6.245453e+00 -3.667574e+00 -1.504218e-01 4.821306e-05 3.640854e-05 2.670769e-04
Al 4.681869e+00 -9.425698e-01 4.879107e+00 -4.520613e-05 -2.942333e-05 1.247122e-04
Al 4.681265e+00 -9.456304e-01 -5.179549e+00 -2.715458e-05 -2.694722e-05 3.094735e-05
Ga 4.681420e+00 -9.446291e-01 -1.469623e-01 -8.607685e-05 -2.805015e-04 -3.784943e-04
Al -3.156576e+00 1.772846e+00 4.887076e+00 -6.483185e-05 -7.562352e-06 3.977833e-05
Al -3.157838e+00 1.769473e+00 -5.186200e+00 -2.253470e-05 -1.010026e-05 1.121693e-05
Al -3.151595e+00 1.770743e+00 -1.506280e-01 4.126516e-04 2.229833e-04 2.165779e-04
Al -2.186055e-02 -3.658186e+00 4.879489e+00 -2.241288e-06 1.512630e-05 -7.061434e-07
Al -2.254446e-02 -3.661276e+00 -5.180686e+00 -1.745043e-05 -8.969778e-06 2.119878e-05
Ga -2.241309e-02 -3.660802e+00 -1.482610e-01 -4.810302e-05 1.564189e-04 1.871545e-04
Al -1.589423e+00 -9.404685e-01 4.887329e+00 -2.422888e-05 -4.909111e-05 -5.101994e-06
Al -1.590586e+00 -9.439633e-01 -5.186206e+00 -2.637554e-05 -5.191544e-05 4.080892e-05
Al -1.586310e+00 -9.377169e-01 -1.504089e-01 4.113167e-05 1.483888e-05 3.604148e-04
N 1.546111e+00 8.676218e-01 4.285347e+00 3.281685e-05 3.166478e-05 -3.018960e-05
N 1.542761e+00 8.659577e-01 -5.777477e+00 3.377111e-05 4.407544e-05 -3.341625e-05
N 1.545705e+00 8.651713e-01 -7.489533e-01 2.086484e-05 5.361886e-05 -3.201678e-05
N -2.241876e-02 3.584045e+00 4.285144e+00 3.435112e-05 4.380721e-06 -4.419501e-06
N -2.308041e-02 3.577877e+00 -5.777490e+00 2.084065e-05 1.232868e-06 -1.717012e-05
N -2.288228e-02 3.581752e+00 -7.491855e-01 4.667660e-05 1.442545e-05 8.698382e-07
N 3.109894e+00 -1.850446e+00 4.295411e+00 7.108697e-05 -9.860760e-07 -7.328515e-05
N 3.114571e+00 -1.850532e+00 -5.776236e+00 3.548991e-05 -5.906183e-06 -1.836210e-05
N 3.070756e+00 -1.874946e+00 -7.668977e-01 1.421833e-04 4.318243e-05 -9.376159e-05
N -4.726191e+00 8.723766e-01 4.294959e+00 2.562221e-05 4.755500e-05 -1.272730e-04
N -4.726914e+00 8.635133e-01 -5.776175e+00 3.383635e-05 3.832609e-05 -4.542896e-05
N -4.726970e+00 9.157750e-01 -7.675745e-01 9.367463e-05 -3.053926e-04 6.665530e-05
N -6.298299e+00 3.581139e+00 4.295383e+00 1.244869e-06 -8.941984e-06 -2.478799e-05
N -6.294090e+00 3.580927e+00 -5.776454e+00 1.023162e-05 4.018192e-06 -1.275247e-05
N -6.336467e+00 3.556883e+00 -7.693218e-01 3.259918e-05 5.181914e-05 8.610856e-05
N -3.153770e+00 -1.850293e+00 4.295470e+00 2.703877e-05 -6.230754e-06 -8.745704e-05
N -3.159465e+00 -1.850416e+00 -5.776237e+00 2.448419e-05 -1.130046e-06 -1.181441e-05
N -3.115427e+00 -1.874770e+00 -7.672920e-01 -8.952213e-05 5.956395e-05 2.608307e-05
N -1.591135e+00 8.679239e-01 4.285230e+00 2.968030e-05 -1.208586e-05 -3.089375e-05
N -1.589150e+00 8.662323e-01 -5.777446e+00 1.264931e-05 1.691882e-05 -3.279435e-05
N -1.591562e+00 8.654945e-01 -7.489497e-01 -2.859466e-05 4.065490e-05 -5.717364e-05
N -3.154554e+00 3.581283e+00 4.295108e+00 1.737644e-05 -3.609912e-05 -6.551088e-05
N -3.160082e+00 3.581116e+00 -5.776466e+00 9.351911e-06 -2.686099e-05 -1.807253e-05
N -3.117489e+00 3.557273e+00 -7.691463e-01 3.971862e-05 3.469571e-07 4.970771e-05
N -2.207164e-02 -1.842946e+00 4.295433e+00 -1.851120e-05 -4.416513e-05 4.265846e-05
N -2.273976e-02 -1.851890e+00 -5.776419e+00 5.366076e-06 -1.849664e-05 -3.043873e-05
N -2.249969e-02 -1.802149e+00 -7.690628e-01 -1.232447e-06 -2.079194e-05 1.839091e-05
N -2.215453e-02 1.772700e+00 1.769052e+00 1.710979e-05 4.651764e-05 -4.802475e-05
N -2.219447e-02 1.773462e+00 6.793647e+00 1.373258e-05 1.648450e-05 -1.574750e-05
N -2.286313e-02 1.770312e+00 -3.259834e+00 2.897617e-05 3.110991e-05 -3.689892e-05
N 3.113731e+00 -3.658625e+00 1.772000e+00 3.143019e-05 -8.458443e-05 2.160282e-05
N 3.115181e+00 -3.658713e+00 6.801046e+00 1.284767e-05 4.607749e-05 -4.198110e-05
N 3.116453e+00 -3.662589e+00 -3.273546e+00 1.690806e-05 4.960305e-05 -2.617245e-05
N 1.545963e+00 -9.431755e-01 1.772564e+00 7.526039e-05 -7.078466e-05 -1.669654e-04
N 1.546398e+00 -9.415752e-01 6.801114e+00 1.140518e-05 -1.999773e-05 -3.562564e-05
N 1.545920e+00 -9.425846e-01 -3.273459e+00 1.813092e-05 -3.359984e-06 -5.631165e-05
N 3.113904e+00 1.772651e+00 1.771951e+00 1.415414e-04 1.172009e-04 -3.378742e-05
N 3.112691e+00 1.773001e+00 6.801031e+00 -8.441066e-06 6.518900e-06 -4.096004e-05
N 3.110308e+00 1.768762e+00 -3.273510e+00 3.871012e-06 -2.847915e-05 -4.065380e-05
N 6.250734e+00 -3.658570e+00 1.772471e+00 -7.312178e-05 -3.177266e-05 -2.180916e-04
N 6.249148e+00 -3.658504e+00 6.801095e+00 1.112097e-05 9.671963e-06 -3.250523e-05
N 6.246576e+00 -3.662437e+00 -3.273674e+00 1.743040e-05 2.262224e-05 4.995334e-06
N 4.680706e+00 -9.436218e-01 1.832675e+00 4.271394e-04 -3.859483e-05 2.248645e-04
N 4.682055e+00 -9.422916e-01 6.795556e+00 -2.348463e-05 -5.455734e-05 -1.748210e-05
N 4.681355e+00 -9.453740e-01 -3.260719e+00 -1.096125e-05 2.684569e-05 -1.609500e-06
N -3.158544e+00 1.772640e+00 1.771642e+00 -2.587287e-04 9.143751e-05 -5.807341e-05
N -3.157558e+00 1.773139e+00 6.800957e+00 -1.432957e-05 2.867754e-06 -4.197085e-05
N -3.156402e+00 1.768939e+00 -3.273618e+00 -2.810972e-05 -1.253727e-05 6.279909e-06
N -2.179167e-02 -3.656329e+00 1.833722e+00 -7.030336e-05 -8.658966e-04 -6.791553e-05
N -2.181801e-02 -3.657969e+00 6.795978e+00 -1.334970e-05 2.782228e-05 -1.344392e-05
N -2.243231e-02 -3.661063e+00 -3.261896e+00 -6.179719e-06 1.164452e-05 -1.738269e-05
N -1.590053e+00 -9.430053e-01 1.772958e+00 -1.264147e-04 -1.518974e-04 -3.959280e-04
N -1.589830e+00 -9.412705e-01 6.801096e+00 -2.703557e-05 -5.231749e-05 -4.069998e-05
N -1.590690e+00 -9.423055e-01 -3.273570e+00 -8.428328e-06 -3.450291e-05 -2.603653e-05
