108
Energy=-7.113171e+05 Lattice="9.428418e+00 0.000000e+00 0.000000e+00 -4.716188e+00 8.164711e+00 0.000000e+00 -5.193083e-03 5.013432e-04 1.513976e+01" Stress="-6.678226e-05 -3.962567e-05 -2.059508e-04 -4.450998e-05 -8.592746e-05 1.170224e-05 -2.057157e-04 1.175547e-05 -4.186898e-04" Properties=species:S:1:pos:R:3:forces:R:3 Config_type=AlGaN_super3_6_1_16.xyz
Al 1.545374e+00 8.700800e-01 2.367092e+00 1.805862e-04 -1.755039e-04 -1.049821e-04
Al 1.551169e+00 8.810789e-01 7.406227e+00 -4.441442e-05 -3.016997e-04 -9.311037e-05
Al 1.551211e+00 8.776892e-01 -2.653905e+00 8.484947e-05 -3.964704e-05 -6.479936e-06
Al -1.221282e-02 3.585474e+00 2.367533e+00 -4.183701e-05 -7.340284e-05 -2.498637e-05
Al -1.952298e-02 3.584635e+00 7.428814e+00 3.889971e-05 9.360289e-06 -3.849435e-05
Al -2.372772e-02 3.581466e+00 -2.674923e+00 -1.157246e-05 -3.298185e-05 -9.560040e-05
Al 3.124882e+00 -1.840892e+00 2.362063e+00 -5.291912e-05 -3.440625e-04 -1.194746e-04
Al 3.130414e+00 -1.847993e+00 7.420925e+00 1.884279e-04 -1.315476e-04 -3.332499e-05
Al 3.123817e+00 -1.857127e+00 -2.656367e+00 4.889209e-05 -4.827596e-05 -1.758496e-04
Al -4.742081e+00 8.623708e-01 2.377036e+00 1.478934e-04 -3.030200e-05 -4.176055e-05
Al -4.742264e+00 8.687921e-01 7.414915e+00 1.482342e-04 2.769202e-05 -1.320400e-04
Al -4.742788e+00 8.748377e-01 -2.674601e+00 1.570075e-04 -2.925602e-05 -1.378272e-05
Al -6.319104e+00 3.589800e+00 2.373663e+00 -1.332278e-05 3.213597e-05 -1.214858e-04
Al -6.320917e+00 3.578756e+00 7.406842e+00 2.256904e-05 -1.435444e-05 -3.494029e-05
Al -6.312767e+00 3.575809e+00 -2.655915e+00 -4.915271e-05 8.847761e-06 -9.746887e-05
Al -3.168727e+00 -1.854310e+00 2.368173e+00 8.688261e-05 5.892012e-05 -1.513125e-04
Al -3.175636e+00 -1.852557e+00 7.415008e+00 1.239399e-04 -2.380908e-05 -7.901012e-05
Ga -3.163162e+00 -1.854170e+00 -2.660706e+00 6.672242e-05 1.288131e-05 -1.297041e-04
Al -1.592959e+00 8.670553e-01 2.373097e+00 2.010159e-04 -9.355239e-05 9.159729e-07
Al -1.601122e+00 8.758312e-01 7.417001e+00 1.741219e-04 -1.414550e-04 3.922506e-06
Al -1.588216e+00 8.754734e-01 -2.670098e+00 2.244851e-04 -1.115359e-04 -3.503868e-05
Ga -3.173432e+00 3.585931e+00 2.362710e+00 2.558825e-04 -9.385697e-05 -4.273213e-05
Al -3.167642e+00 3.576520e+00 7.422679e+00 1.510011e-04 -5.566154e-06 -1.477811e-04
Al -3.156924e+00 3.585477e+00 -2.656703e+00 1.226102e-04 -9.503494e-05 -2.218508e-04
Al -2.507120e-02 -1.846914e+00 2.374084e+00 5.420966e-05 4.283593e-04 2.646820e-05
Ga -2.858537e-02 -1.849737e+00 7.401574e+00 2.068509e-04 4.195163e-05 -1.165017e-04
Al -2.017628e-02 -1.846892e+00 -2.644261e+00 7.425048e-05 -2.447801e-05 -2.717243e-04
Al -2.194090e-02 1.768312e+00 4.891593e+00 -1.266088e-04 7.885786e-05 -1.466944e-05
Al -2.429405e-02 1.779741e+00 -5.194747e+00 -1.208726e-04 1.197408e-04 -5.131619e-05
Al -2.385323e-02 1.775844e+00 -1.510780e-01 -7.170899e-05 5.673581e-05 2.027167e-05
Ga 3.126849e+00 -3.664342e+00 4.906699e+00 -6.580974e-05 5.296529e-05 -1.546394e-04
Al 3.136381e+00 -3.675592e+00 -5.196119e+00 -9.585558e-05 1.785338e-04 -2.434557e-04
Al 3.131347e+00 -3.667824e+00 -1.548226e-01 -2.260029e-04 1.169690e-04 -5.837235e-05
Al 1.550421e+00 -9.354865e-01 4.881652e+00 -2.139269e-04 8.356767e-05 -1.606467e-04
Ga 1.563922e+00 -9.338595e-01 -5.172890e+00 -1.920774e-04 1.871286e-04 -1.169777e-04
Al 1.551532e+00 -9.458478e-01 -1.505710e-01 -3.168185e-04 2.097503e-04 -9.438660e-05
Al 3.117715e+00 1.775147e+00 4.886760e+00 -9.250142e-06 -1.044865e-05 -1.754495e-04
Al 3.119863e+00 1.776057e+00 -5.196889e+00 -6.336953e-06 -5.045712e-05 4.604570e-05
Al 3.122592e+00 1.774313e+00 -1.429821e-01 -1.947223e-04 5.944431e-05 -1.534422e-04
Al 6.268914e+00 -3.666581e+00 4.891543e+00 8.438194e-06 1.140041e-04 -8.812654e-05
Al 6.259687e+00 -3.672410e+00 -5.205351e+00 -5.149869e-05 6.268059e-05 -1.070609e-04
Al 6.263764e+00 -3.676640e+00 -1.360238e-01 -9.520018e-06 5.370775e-05 -8.653958e-05
Al 4.695344e+00 -9.390515e-01 4.892901e+00 -2.504577e-05 4.738453e-05 -9.438228e-05
Al 4.699845e+00 -9.427503e-01 -5.204295e+00 -1.331864e-04 -5.543088e-06 -1.041829e-04
Al 4.689751e+00 -9.405045e-01 -1.365332e-01 -2.273770e-04 1.147911e-04 -2.544457e-04
Al -3.172666e+00 1.760624e+00 4.907286e+00 8.420529e-05 -5.424962e-05 -4.220458e-05
Al -3.161078e+00 1.766750e+00 -5.195090e+00 -5.721409e-05 6.773255e-06 -1.204965e-04
Al -3.165388e+00 1.765876e+00 -1.612371e-01 -2.028865e-04 1.255638e-04 -3.139678e-04
Al -3.858756e-02 -3.670241e+00 4.895947e+00 1.661103e-04 -1.612999e-05 -1.766571e-04
Ga -2.652169e-02 -3.683067e+00 -5.174230e+00 -2.964691e-05 -6.131844e-05 -1.863251e-04
Al -2.763801e-02 -3.665991e+00 -1.599599e-01 -1.174590e-04 1.985209e-04 -5.279794e-04
Al -1.603296e+00 -9.413281e-01 4.876668e+00 -3.191360e-05 6.221176e-05 -1.957439e-04
Al -1.607285e+00 -9.323139e-01 -5.192259e+00 -2.185770e-04 1.543174e-04 -3.188539e-05
Al -1.587355e+00 -9.402506e-01 -1.282910e-01 -1.361525e-04 7.275063e-05 -1.962870e-05
N 1.545239e+00 8.720093e-01 4.285105e+00 1.143416e-04 -5.351297e-05 1.193440e-04
N 1.549158e+00 9.165828e-01 -5.818227e+00 1.782134e-04 -1.150705e-04 -1.621609e-05
N 1.550266e+00 8.734194e-01 -7.381946e-01 1.730068e-04 -6.324717e-05 -2.738373e-05
N 1.659475e-02 3.565128e+00 4.277132e+00 7.131262e-05 -1.206444e-04 1.134450e-04
N -1.953122e-02 3.585368e+00 -5.794651e+00 6.589660e-05 -1.270785e-04 1.513969e-04
N -1.907390e-02 3.587806e+00 -7.561445e-01 7.076370e-05 -4.531876e-05 2.925794e-05
N 3.122343e+00 -1.806467e+00 4.271006e+00 9.520508e-05 -7.224226e-05 1.665742e-04
N 3.162355e+00 -1.874953e+00 -5.809180e+00 1.416543e-04 -1.022173e-04 1.588676e-04
N 3.127379e+00 -1.853561e+00 -7.425933e-01 1.108811e-04 -7.066800e-05 1.280031e-04
N -4.738723e+00 8.689313e-01 4.294829e+00 1.149914e-04 -2.988521e-05 1.105009e-04
N -4.737387e+00 8.710808e-01 -5.800427e+00 1.432431e-04 1.432538e-05 5.100335e-05
N -4.740539e+00 8.665876e-01 -7.570706e-01 7.346977e-05 1.382474e-05 -2.668703e-06
N -6.313699e+00 3.589205e+00 4.290283e+00 2.903849e-05 -3.245180e-05 4.657630e-05
N -6.347556e+00 3.564549e+00 -5.821338e+00 1.155489e-05 2.359050e-05 4.830768e-05
N -6.315334e+00 3.584120e+00 -7.440111e-01 1.687586e-05 -3.247616e-05 5.724625e-05
N -3.171164e+00 -1.855385e+00 4.287286e+00 3.733670e-05 -7.553483e-05 1.316319e-04
N -3.162032e+00 -1.853804e+00 -5.798266e+00 1.094927e-05 -1.193196e-05 8.808364e-05
N -3.162533e+00 -1.853833e+00 -6.849064e-01 2.863302e-05 4.618983e-05 4.507060e-05
N -1.598362e+00 8.752120e-01 4.289911e+00 1.767553e-04 -1.582310e-04 9.400707e-05
N -1.592528e+00 8.708582e-01 -5.800368e+00 1.496282e-04 -9.783714e-05 6.987717e-05
N -1.591585e+00 8.659071e-01 -7.534810e-01 1.764801e-04 -1.014284e-04 2.429639e-05
N -3.208313e+00 3.563123e+00 4.328923e+00 -1.451318e-04 1.520380e-04 2.165354e-04
N -3.126837e+00 3.564540e+00 -5.803418e+00 1.004594e-04 -1.238934e-04 1.903434e-04
N -3.161167e+00 3.587795e+00 -7.392603e-01 3.765763e-05 -1.545249e-04 6.987546e-05
N -2.323151e-02 -1.853673e+00 4.298339e+00 1.092173e-04 -9.188420e-05 1.000759e-04
N -5.924143e-02 -1.829911e+00 -5.777112e+00 2.940580e-04 -2.835760e-04 7.531466e-05
N -2.607130e-02 -1.847248e+00 -7.351527e-01 1.083424e-04 -1.113609e-04 6.154495e-05
N -2.564984e-02 1.774620e+00 1.767784e+00 -1.786603e-04 1.111044e-04 6.974368e-05
N -2.711121e-02 1.775691e+00 6.812734e+00 -1.492595e-04 1.263068e-04 5.457951e-05
N -1.895629e-02 1.772816e+00 -3.272382e+00 -1.497038e-04 7.463447e-05 -3.724686e-06
N 3.163881e+00 -3.645831e+00 1.757538e+00 2.257068e-04 5.175460e-04 1.613539e-04
N 3.122810e+00 -3.668078e+00 6.877687e+00 -1.210471e-04 1.968632e-05 1.354887e-04
N 3.123976e+00 -3.667993e+00 -3.269861e+00 -1.145523e-04 1.021884e-04 1.504827e-04
N 1.547265e+00 -9.451634e-01 1.770843e+00 -5.715580e-05 1.406567e-06 6.510656e-05
N 1.593138e+00 -9.213445e-01 6.794372e+00 -1.010881e-04 4.923986e-04 6.170045e-05
N 1.554608e+00 -9.433594e-01 -3.199189e+00 -1.635679e-04 9.500730e-05 1.466260e-04
N 3.120805e+00 1.775816e+00 1.777428e+00 1.535616e-05 1.403599e-06 1.310752e-04
N 3.119779e+00 1.774153e+00 6.803802e+00 -1.213726e-04 -1.226426e-04 6.936218e-05
N 3.119058e+00 1.775224e+00 -3.274690e+00 -8.812838e-05 2.943197e-06 -2.727258e-05
N 6.263734e+00 -3.670140e+00 1.776518e+00 -9.098267e-05 -6.039422e-05 1.067829e-04
N 6.259047e+00 -3.666056e+00 6.814201e+00 -8.892119e-05 -3.344052e-05 5.866062e-05
N 6.267536e+00 -3.715278e+00 -3.291769e+00 3.554350e-05 1.736586e-05 1.259397e-04
N 4.691428e+00 -9.407685e-01 1.775106e+00 -3.308104e-05 -1.524510e-04 2.589488e-04
N 4.691644e+00 -9.443694e-01 6.813575e+00 -2.165520e-04 5.273137e-05 1.344093e-04
N 4.653858e+00 -9.232915e-01 -3.291265e+00 -1.625812e-04 5.259226e-05 8.567000e-05
N -3.169126e+00 1.722988e+00 1.747222e+00 3.894456e-05 -6.728118e-05 3.688544e-04
N -3.169630e+00 1.770218e+00 6.822242e+00 -9.508507e-05 5.028633e-05 9.962959e-05
N -3.164265e+00 1.774550e+00 -3.270199e+00 -1.555837e-04 4.554016e-05 8.833664e-05
N -6.889387e-02 -3.640249e+00 1.750906e+00 8.478093e-05 -6.430862e-04 4.449929e-04
N -2.622413e-02 -3.717913e+00 6.804252e+00 -1.098581e-04 2.487217e-05 1.198155e-04
N -2.161814e-02 -3.670342e+00 -3.197407e+00 -1.561404e-05 5.736727e-05 2.897754e-04
N -1.592532e+00 -9.427845e-01 1.788113e+00 -7.321621e-05 7.481091e-05 9.765371e-05
N -1.642845e+00 -9.187327e-01 6.787950e+00 -2.330688e-04 1.459822e-04 6.617748e-05
N -1.552603e+00 -9.211567e-01 -3.283313e+00 -3.004855e-04 7.009034e-05 1.437146e-04
