108
Energy=-1.581051e+06 Lattice="9.534582e+00 0.000000e+00 0.000000e+00 -4.771704e+00 8.250702e+00 0.000000e+00 -1.838044e-04 1.589046e-02 1.539650e+01" Stress="-5.907601e-04 -3.505343e-05 1.656882e-04 -3.926330e-05 -1.243938e-03 5.912021e-04 1.746194e-04 5.741561e-04 -9.995732e-04" Properties=species:S:1:pos:R:3:forces:R:3 Config_type=AlGaN_super3_25_1_32.xyz
Al 1.563068e+00 8.932106e-01 2.399710e+00 -1.856494e-03 -2.064128e-03 1.062071e-03
Al 1.561487e+00 9.005491e-01 7.558220e+00 5.356385e-04 2.221296e-04 1.054778e-03
Al 1.549469e+00 8.704212e-01 -2.697789e+00 2.992754e-03 1.196932e-03 -4.608064e-03
Al -3.635802e-02 3.611624e+00 2.419766e+00 2.276635e-03 2.193684e-04 3.917846e-04
Al -2.891352e-02 3.618034e+00 7.553764e+00 4.473268e-04 1.011031e-03 -1.717319e-03
Ga -4.411296e-02 3.609873e+00 -2.718108e+00 1.591070e-04 2.892017e-05 8.069398e-04
Al 3.166577e+00 -1.871723e+00 2.424527e+00 -4.203949e-05 5.119028e-05 -1.021253e-04
Ga 3.157916e+00 -1.871606e+00 7.560310e+00 1.657766e-04 -2.701512e-04 5.417263e-05
Al 3.152810e+00 -1.889830e+00 -2.728385e+00 3.747749e-05 6.754926e-06 -1.866136e-04
Al -4.778790e+00 8.831739e-01 2.409398e+00 -2.969240e-03 -1.464717e-03 -2.006597e-04
Al -4.793225e+00 9.037218e-01 7.559580e+00 1.365171e-03 6.371278e-04 7.572587e-04
Ga -4.794706e+00 8.769034e-01 -2.717220e+00 3.751639e-04 2.423432e-04 3.480278e-04
Ga -6.376745e+00 3.626348e+00 2.419045e+00 -1.738382e-04 4.677703e-04 7.307172e-04
Ga -6.382671e+00 3.621848e+00 7.539410e+00 7.175324e-06 1.001306e-03 2.568286e-04
Ga -6.372743e+00 3.616844e+00 -2.700395e+00 6.258283e-05 -7.059666e-04 1.046538e-04
Al -3.214806e+00 -1.866823e+00 2.432679e+00 -2.587763e-04 -5.177237e-04 -1.036533e-04
Ga -3.202890e+00 -1.864844e+00 7.551301e+00 3.010980e-04 -5.588339e-04 7.361043e-04
Al -3.189314e+00 -1.864527e+00 -2.719003e+00 1.969143e-04 2.477305e-04 -1.322387e-04
Al -1.606144e+00 8.924379e-01 2.425098e+00 -9.651355e-04 3.026753e-03 1.342703e-04
Ga -1.620004e+00 9.160588e-01 7.554737e+00 3.087060e-04 -6.993990e-04 1.275324e-03
Al -1.605518e+00 8.725835e-01 -2.739796e+00 -4.165393e-06 1.798745e-04 1.098976e-04
Al -3.200110e+00 3.624000e+00 2.429665e+00 -1.396562e-03 -8.410310e-04 9.774531e-06
Al -3.199121e+00 3.622087e+00 7.544168e+00 -3.538196e-04 -4.727942e-04 9.015892e-04
Al -3.192738e+00 3.629490e+00 -2.725528e+00 -2.238754e-04 -4.180395e-04 7.293670e-04
Ga -1.354362e-02 -1.876082e+00 2.410733e+00 8.862715e-04 -7.679012e-05 2.850855e-04
Ga -1.722066e-02 -1.859341e+00 7.558152e+00 3.373833e-04 -7.997065e-04 8.477667e-04
Al -2.226032e-02 -1.868066e+00 -2.710112e+00 -3.481217e-05 -4.378044e-04 -2.277472e-04
Al -1.881524e-02 1.804173e+00 4.983233e+00 -2.966326e-03 2.835841e-03 -2.456799e-03
Al -2.320698e-02 1.786659e+00 -5.283333e+00 -1.632962e-03 -9.211109e-04 1.099453e-03
Al -2.059875e-02 1.781198e+00 -1.474992e-01 6.978478e-05 6.319535e-04 1.200155e-03
Ga 3.159656e+00 -3.731186e+00 4.967546e+00 -2.401925e-04 5.843223e-04 5.716894e-04
Al 3.153496e+00 -3.741357e+00 -5.288633e+00 -2.392075e-04 8.634737e-04 9.237482e-04
Ga 3.145266e+00 -3.719611e+00 -1.262728e-01 -2.661748e-05 4.994546e-04 8.672645e-04
Ga 1.564117e+00 -9.377114e-01 4.978835e+00 -1.950566e-04 2.854227e-04 2.650721e-04
Ga 1.563745e+00 -9.442456e-01 -5.250748e+00 -3.481267e-04 1.133076e-03 3.217807e-04
Ga 1.576415e+00 -9.491823e-01 -1.630768e-01 -1.209812e-03 -1.995303e-05 1.992934e-04
Ga 3.150822e+00 1.800839e+00 4.976165e+00 2.256182e-04 -2.255383e-04 9.762679e-04
Al 3.145967e+00 1.780744e+00 -5.293445e+00 1.009875e-05 -4.355985e-04 1.342786e-03
Al 3.142338e+00 1.791622e+00 -1.315002e-01 1.276410e-04 2.391921e-04 3.141420e-04
Al 6.328611e+00 -3.710651e+00 4.972602e+00 -5.858004e-04 1.491071e-04 -2.179074e-04
Ga 6.325579e+00 -3.721554e+00 -5.272377e+00 3.427915e-04 6.003960e-05 7.095584e-04
Ga 6.340743e+00 -3.715689e+00 -1.367234e-01 -3.747314e-04 7.876880e-05 5.231975e-04
Ga 4.754807e+00 -9.404763e-01 4.974365e+00 -4.415507e-04 1.089929e-04 9.182082e-04
Ga 4.754744e+00 -9.500604e-01 -5.268051e+00 -8.638612e-04 7.296651e-04 -1.880301e-04
Ga 4.746807e+00 -9.617986e-01 -1.320546e-01 -5.614649e-04 3.562834e-04 -1.214241e-03
Al -3.206542e+00 1.815520e+00 4.963009e+00 9.905499e-05 -1.446853e-03 2.199605e-03
Al -3.196272e+00 1.796468e+00 -5.277500e+00 -3.356414e-04 1.438150e-04 -3.777415e-04
Ga -3.197290e+00 1.805447e+00 -1.396982e-01 -1.847510e-04 -1.510615e-04 -6.977068e-04
Al -1.603769e-02 -3.711462e+00 4.993398e+00 9.728366e-05 -4.088090e-04 2.827793e-04
Ga -5.133540e-03 -3.721224e+00 -5.270210e+00 -6.515315e-05 6.790678e-05 6.700363e-04
Al -1.181683e-02 -3.717192e+00 -1.639176e-01 -1.490449e-04 3.944493e-04 -1.944930e-04
Ga -1.614278e+00 -9.412846e-01 4.959241e+00 -5.970798e-04 6.802583e-04 1.645500e-04
Al -1.611108e+00 -9.420747e-01 -5.249055e+00 1.131921e-04 3.953516e-04 4.353916e-04
Ga -1.603697e+00 -9.494150e-01 -1.474772e-01 -8.560549e-04 4.683791e-04 -7.538570e-04
N 1.514280e+00 9.166129e-01 4.317031e+00 2.578512e-03 -1.900407e-03 -1.371094e-03
N 1.555551e+00 9.208732e-01 -5.917661e+00 1.324855e-03 -4.716072e-04 -1.229093e-03
N 1.563611e+00 9.301595e-01 -7.859314e-01 2.260420e-04 4.194901e-04 1.818113e-03
N 1.831064e-02 3.602183e+00 4.337173e+00 -2.805438e-04 -1.492155e-03 7.734370e-04
N -6.299165e-02 3.591359e+00 -5.917468e+00 -5.707777e-04 7.088483e-05 -1.303032e-05
N -3.215971e-02 3.575549e+00 -7.416427e-01 2.365243e-04 -4.474610e-04 -1.878315e-04
N 3.155913e+00 -1.870387e+00 4.329969e+00 2.385998e-04 -2.508439e-04 -6.641523e-04
N 3.154424e+00 -1.926199e+00 -5.864625e+00 2.146928e-04 -7.863148e-04 3.499022e-04
N 3.163949e+00 -1.887273e+00 -8.189597e-01 2.009138e-04 -2.251850e-04 7.681279e-04
N -4.752384e+00 9.119357e-01 4.322176e+00 -2.684271e-04 6.533373e-05 -1.281571e-03
N -4.787855e+00 9.253528e-01 -5.907834e+00 3.410615e-04 -3.112767e-05 -3.088270e-04
N -4.833023e+00 9.000115e-01 -7.399528e-01 -3.301089e-05 7.439961e-04 -1.257787e-04
N -6.377340e+00 3.680073e+00 4.406090e+00 1.505471e-05 5.800236e-04 -4.572709e-04
N -6.379790e+00 3.580038e+00 -5.880907e+00 -3.235788e-05 -2.217739e-04 -1.064987e-03
N -6.341297e+00 3.595491e+00 -7.183347e-01 4.811705e-04 -1.787651e-04 5.738478e-05
N -3.203291e+00 -1.914553e+00 4.339259e+00 4.381622e-04 -6.991417e-04 -6.384651e-04
N -3.153564e+00 -1.855081e+00 -5.874288e+00 6.784265e-04 -1.508917e-05 -2.777218e-04
N -3.195330e+00 -1.872582e+00 -8.146160e-01 3.375720e-04 -1.508832e-04 7.716772e-04
N -1.614512e+00 9.455921e-01 4.346777e+00 1.747232e-03 -1.273383e-04 1.273139e-03
N -1.618156e+00 8.772736e-01 -5.845088e+00 1.208964e-03 -1.377978e-04 -1.091235e-04
N -1.573932e+00 9.046110e-01 -8.130791e-01 5.644932e-04 -2.733407e-04 -5.303669e-04
N -3.254631e+00 3.610016e+00 4.345168e+00 6.006193e-04 1.387071e-03 -8.372966e-04
N -3.165270e+00 3.594497e+00 -5.926665e+00 3.438355e-04 -4.230069e-04 -1.023704e-03
N -3.235572e+00 3.647252e+00 -8.108135e-01 -1.363413e-04 -4.069488e-04 -5.623303e-04
N -1.970208e-02 -1.917503e+00 4.381283e+00 1.705655e-04 -8.662586e-04 -3.863755e-04
N -6.374088e-02 -1.849805e+00 -5.863527e+00 -1.365396e-04 -4.367228e-04 -3.275854e-04
N -2.384833e-02 -1.915344e+00 -7.928861e-01 4.954314e-04 -9.276342e-04 3.385267e-04
N -2.573238e-02 1.788473e+00 1.782167e+00 -6.264340e-04 -6.717863e-06 -1.729037e-04
N 1.821286e-02 1.823427e+00 6.906458e+00 -2.958066e-04 -2.321480e-04 5.444017e-04
N -1.760417e-02 1.738827e+00 -3.362889e+00 -4.419882e-04 -4.959895e-05 -3.396900e-04
N 3.152355e+00 -3.711454e+00 1.870046e+00 2.856330e-04 9.410288e-04 -1.789853e-03
N 3.159066e+00 -3.753527e+00 6.953777e+00 3.061900e-04 -1.071770e-04 2.012818e-04
N 3.118144e+00 -3.697797e+00 -3.364572e+00 -1.652291e-04 6.232926e-04 -9.144633e-04
N 1.614190e+00 -9.312310e-01 1.820910e+00 1.062513e-04 1.069638e-03 -1.178042e-04
N 1.573483e+00 -8.958825e-01 6.954879e+00 -7.384790e-04 7.000890e-04 -8.014868e-04
N 1.569200e+00 -9.549492e-01 -3.265040e+00 -6.881362e-04 3.677515e-05 9.149811e-04
N 3.149666e+00 1.748973e+00 1.788575e+00 2.114687e-03 -5.509756e-05 8.514425e-05
N 3.152058e+00 1.748066e+00 6.958008e+00 -3.841015e-04 -8.802072e-04 -4.271052e-04
N 3.109098e+00 1.762854e+00 -3.375229e+00 -1.931635e-03 -9.435011e-04 -2.459030e-05
N 6.290384e+00 -3.680222e+00 1.843592e+00 -1.316526e-04 -2.018837e-04 -1.524941e-03
N 6.288392e+00 -3.721848e+00 6.897479e+00 -7.451927e-04 -4.991839e-04 -2.193928e-04
N 6.333242e+00 -3.670718e+00 -3.302337e+00 -2.360423e-04 3.295408e-04 -6.622682e-05
N 4.746384e+00 -9.552601e-01 1.849062e+00 2.321891e-04 7.715153e-05 1.146484e-03
N 4.746503e+00 -8.942814e-01 6.953711e+00 -7.902078e-04 2.515989e-04 -7.458167e-04
N 4.748471e+00 -1.002992e+00 -3.296516e+00 -4.715822e-04 -6.652889e-04 1.504797e-04
N -3.198686e+00 1.797862e+00 1.843855e+00 2.562081e-03 5.795417e-04 3.406846e-04
N -3.247848e+00 1.825802e+00 6.901917e+00 -4.093165e-04 1.349936e-04 -1.403545e-03
N -3.164007e+00 1.816257e+00 -3.353706e+00 1.602884e-04 1.676379e-04 2.687016e-04
N 2.689860e-02 -3.731522e+00 1.749560e+00 2.514245e-04 -3.497137e-04 6.973411e-05
N 2.442693e-02 -3.719491e+00 6.910272e+00 3.716432e-04 -7.102045e-05 -6.810358e-04
N 2.198632e-02 -3.688602e+00 -3.295082e+00 2.699402e-04 7.015280e-04 3.728915e-05
N -1.653514e+00 -9.248890e-01 1.839015e+00 -3.316167e-04 -8.610462e-04 2.999229e-04
N -1.610429e+00 -9.351135e-01 6.922512e+00 -3.229035e-04 4.222035e-04 -6.581157e-04
N -1.607404e+00 -9.572688e-01 -3.323208e+00 -3.231870e-04 -2.184073e-04 -1.280312e-04
