108
Energy=-1.352174e+06 Lattice="9.492611e+00 0.000000e+00 0.000000e+00 -4.752063e+00 8.224147e+00 0.000000e+00 3.244617e-03 2.408629e-03 1.533472e+01" Stress="-4.583835e-03 -2.596232e-04 2.282890e-04 -2.673566e-04 -2.756697e-03 2.626329e-04 2.208597e-04 2.621756e-04 -8.118616e-04" Properties=species:S:1:pos:R:3:forces:R:3 Config_type=AlGaN_super3_20_1_9.xyz
Al 1.569032e+00 8.770455e-01 2.418227e+00 1.543238e-03 -1.177595e-03 -8.214433e-03
Al 1.563463e+00 8.700940e-01 7.529090e+00 -1.647064e-03 5.004082e-03 1.547173e-03
Al 1.562601e+00 8.672421e-01 -2.725562e+00 2.134999e-04 -5.335865e-04 2.828288e-04
Al -1.760509e-03 3.617335e+00 2.439638e+00 1.842071e-03 -8.254738e-04 -2.696903e-03
Al -1.678379e-02 3.610635e+00 7.509537e+00 3.314146e-03 -4.181761e-03 -8.244040e-04
Al -2.212384e-02 3.605605e+00 -2.709869e+00 -2.529449e-04 -4.285729e-04 -2.539853e-04
Al 3.159181e+00 -1.852921e+00 2.403067e+00 -1.345173e-03 4.421511e-03 4.400984e-04
Al 3.136921e+00 -1.857447e+00 7.525917e+00 3.816763e-03 -5.871061e-04 1.398459e-04
Ga 3.136620e+00 -1.865730e+00 -2.707593e+00 -7.843391e-04 2.181639e-04 8.697386e-04
Al -4.793916e+00 8.697343e-01 2.422224e+00 1.002881e-03 -1.986014e-03 -1.044045e-03
Al -4.793830e+00 8.750294e-01 7.496666e+00 9.298068e-05 -9.351643e-04 8.321977e-04
Al -4.795345e+00 8.756807e-01 -2.690868e+00 -5.446326e-04 -9.816790e-04 -5.431008e-04
Al -6.360864e+00 3.624337e+00 2.392921e+00 -2.563424e-03 -7.040082e-04 9.868519e-04
Al -6.361855e+00 3.607466e+00 7.496797e+00 -4.677030e-04 1.212851e-04 3.208500e-03
Ga -6.361897e+00 3.596978e+00 -2.684892e+00 9.294071e-05 -4.912191e-04 7.061226e-04
Al -3.185065e+00 -1.871163e+00 2.410672e+00 -2.053588e-03 -1.684605e-03 9.434693e-04
Ga -3.180323e+00 -1.876217e+00 7.486652e+00 -1.011736e-03 -2.966243e-04 1.250983e-03
Ga -3.175553e+00 -1.866165e+00 -2.684809e+00 -1.926380e-07 2.653949e-04 8.647210e-04
Ga -1.595028e+00 8.687324e-01 2.441051e+00 6.630229e-04 -3.154971e-04 -1.705060e-03
Ga -1.591619e+00 8.696594e-01 7.500855e+00 1.881839e-03 1.119854e-03 5.275639e-04
Ga -1.598228e+00 8.686071e-01 -2.706840e+00 1.501991e-03 -2.169429e-04 2.894838e-05
Ga -3.215487e+00 3.627603e+00 2.449916e+00 1.821128e-04 9.759443e-04 -2.866045e-03
Ga -3.200339e+00 3.628363e+00 7.502667e+00 2.377803e-04 -7.438650e-04 1.719835e-03
Ga -3.190247e+00 3.624846e+00 -2.695021e+00 7.382958e-04 -1.543660e-05 -6.203960e-04
Al 7.841210e-04 -1.839922e+00 2.408729e+00 -7.252777e-03 -9.791428e-03 -1.445306e-03
Al -2.256552e-02 -1.861005e+00 7.504015e+00 3.771907e-03 -2.185925e-03 4.166739e-03
Al -1.881982e-02 -1.852030e+00 -2.696160e+00 1.169592e-03 5.383902e-04 9.423950e-04
Al -1.521557e-02 1.777503e+00 4.960606e+00 9.786672e-04 6.457987e-03 1.104629e-03
Al -1.838924e-02 1.784292e+00 -5.265658e+00 3.295608e-03 1.239472e-03 8.191160e-04
Ga 3.394324e-03 1.784140e+00 -1.474668e-01 7.066687e-04 -8.288962e-04 -1.802694e-03
Ga 3.159632e+00 -3.697364e+00 4.967008e+00 1.252713e-03 1.168720e-03 -1.107422e-03
Al 3.156040e+00 -3.698710e+00 -5.279074e+00 -4.138830e-04 3.141620e-04 8.761936e-04
Ga 3.160980e+00 -3.688343e+00 -1.089734e-01 -2.679227e-04 3.998060e-05 5.318251e-04
Ga 1.559159e+00 -9.489131e-01 4.971592e+00 -1.971348e-04 -5.295059e-04 3.768746e-04
Al 1.549824e+00 -9.494711e-01 -5.285435e+00 -1.155226e-03 5.606426e-04 1.801431e-03
Al 1.565056e+00 -9.546673e-01 -1.537278e-01 -1.780032e-03 2.659340e-03 2.858859e-03
Ga 3.134487e+00 1.796298e+00 4.954404e+00 1.112873e-03 2.148213e-03 5.692241e-04
Al 3.124367e+00 1.776249e+00 -5.279045e+00 -9.793093e-05 -8.699867e-04 5.920211e-04
Al 3.151894e+00 1.777695e+00 -1.481152e-01 -6.187297e-03 1.553977e-03 6.173547e-03
Al 6.313744e+00 -3.694741e+00 4.948694e+00 5.020009e-04 -4.125289e-04 4.290241e-05
Ga 6.300752e+00 -3.711550e+00 -5.274674e+00 -2.650300e-04 -7.434042e-05 1.381810e-03
Al 6.310212e+00 -3.690074e+00 -1.308768e-01 9.651892e-04 -8.173813e-04 3.432148e-03
Al 4.744858e+00 -9.437301e-01 4.956291e+00 -2.655535e-03 -2.089708e-03 -1.882908e-03
Ga 4.715894e+00 -9.469421e-01 -5.275433e+00 -4.104869e-04 9.329792e-05 1.604293e-03
Al 4.728897e+00 -9.461132e-01 -1.308952e-01 1.525501e-04 -1.086209e-04 1.955931e-03
Al -3.201023e+00 1.792743e+00 4.970614e+00 2.793886e-03 -6.533316e-03 3.415510e-04
Ga -3.195243e+00 1.781129e+00 -5.266617e+00 -3.993915e-04 -2.732212e-04 8.421748e-04
Ga -3.214732e+00 1.778636e+00 -1.249768e-01 1.579777e-03 -1.390694e-04 -2.024893e-03
Al -4.082880e-02 -3.679896e+00 4.966454e+00 -4.897356e-03 1.106994e-03 2.197864e-04
Ga -3.132858e-02 -3.676339e+00 -5.271865e+00 -2.078736e-05 3.020728e-04 1.385052e-03
Al -3.600055e-02 -3.673998e+00 -1.372469e-01 -9.033574e-04 9.971031e-06 2.426718e-03
Al -1.604275e+00 -9.645461e-01 4.952547e+00 1.205225e-04 2.715740e-03 -1.790701e-03
Al -1.581792e+00 -9.526143e-01 -5.269848e+00 1.747705e-04 4.961446e-04 1.439201e-03
Al -1.595112e+00 -9.745127e-01 -1.246328e-01 -4.313208e-04 1.007704e-03 2.345563e-03
N 1.517533e+00 8.966360e-01 4.304515e+00 2.268445e-03 -2.465279e-03 3.254438e-03
N 1.549637e+00 8.726924e-01 -5.877366e+00 6.871687e-04 1.499037e-04 -1.286155e-03
N 1.607822e+00 8.485578e-01 -7.972759e-01 9.802654e-04 -1.387972e-03 -4.472507e-04
N 1.946242e-02 3.583607e+00 4.342091e+00 3.961359e-04 5.278161e-04 -2.690108e-04
N -6.358190e-02 3.583846e+00 -5.906881e+00 -8.135131e-04 -5.758512e-04 -1.939933e-03
N 1.529534e-02 3.637125e+00 -7.980175e-01 -1.618845e-04 7.430756e-04 1.348471e-04
N 3.179401e+00 -1.838828e+00 4.314603e+00 2.565541e-03 1.442377e-03 7.441063e-04
N 3.102530e+00 -1.891006e+00 -5.886831e+00 -3.769335e-04 -3.915003e-04 -1.733509e-03
N 3.149478e+00 -1.829203e+00 -7.246463e-01 -3.186120e-04 1.231713e-03 1.220052e-03
N -4.738665e+00 8.581854e-01 4.333396e+00 1.324297e-03 -1.446462e-03 4.067663e-04
N -4.815267e+00 8.962075e-01 -5.931162e+00 -5.504611e-04 1.362913e-04 -7.558054e-04
N -4.819220e+00 8.517416e-01 -7.763536e-01 1.674015e-03 -1.834488e-03 1.914766e-04
N -6.350794e+00 3.662270e+00 4.317326e+00 -1.245349e-03 8.361166e-04 4.720436e-04
N -6.356553e+00 3.564932e+00 -5.910604e+00 2.170332e-04 1.726762e-04 -4.243645e-03
N -6.356627e+00 3.612223e+00 -7.003183e-01 3.447614e-04 -7.332933e-04 1.416543e-03
N -3.184624e+00 -1.868700e+00 4.349902e+00 -2.247263e-04 7.626934e-04 7.963528e-05
N -3.143825e+00 -1.846458e+00 -5.872537e+00 6.563393e-04 7.815430e-04 -1.192941e-03
N -3.181666e+00 -1.866680e+00 -6.968884e-01 -1.595175e-04 5.175111e-04 6.596302e-04
N -1.585492e+00 8.896047e-01 4.416058e+00 -9.420999e-03 -4.919520e-03 1.434010e-03
N -1.560336e+00 8.591888e-01 -5.848225e+00 -2.545545e-03 -2.990303e-03 -5.712254e-04
N -1.608270e+00 8.291689e-01 -7.338569e-01 7.355855e-04 -2.076769e-03 4.605743e-04
N -3.253142e+00 3.600960e+00 4.422560e+00 5.491852e-03 9.674554e-04 -1.337353e-03
N -3.159633e+00 3.638952e+00 -5.861470e+00 8.813074e-04 3.484610e-04 -7.496946e-04
N -3.226595e+00 3.645493e+00 -7.234854e-01 6.829917e-06 3.285284e-04 4.449656e-04
N -5.208354e-02 -1.883473e+00 4.328719e+00 7.493965e-04 1.177184e-04 -1.487807e-03
N -2.610266e-02 -1.820633e+00 -5.914223e+00 6.484148e-04 1.832085e-04 -1.519498e-03
N -1.962991e-02 -1.859375e+00 -7.618526e-01 7.217291e-04 7.893809e-05 -3.697448e-05
N 2.635193e-02 1.806027e+00 1.812918e+00 -2.251385e-03 3.474550e-03 6.271998e-03
N 2.707754e-02 1.806066e+00 6.860861e+00 3.997514e-04 3.697671e-04 7.349079e-03
N 1.914119e-02 1.810205e+00 -3.342304e+00 1.882221e-04 2.593870e-04 8.714975e-04
N 3.187953e+00 -3.671531e+00 1.878903e+00 -3.417680e-04 -3.343736e-03 -3.650089e-03
N 3.198132e+00 -3.672249e+00 6.937671e+00 -3.362434e-03 3.297965e-03 -6.669778e-04
N 3.188708e+00 -3.720572e+00 -3.357703e+00 2.800705e-04 2.195060e-04 -9.554583e-04
N 1.561980e+00 -9.467413e-01 1.788645e+00 2.960821e-03 3.557306e-04 -3.897605e-04
N 1.565851e+00 -9.450045e-01 6.963647e+00 -9.023518e-04 -2.781145e-03 -3.546155e-03
N 1.520826e+00 -9.388466e-01 -3.351764e+00 -1.276054e-03 8.022223e-04 -5.235238e-04
N 3.135456e+00 1.790407e+00 1.805077e+00 2.070073e-03 -1.060427e-03 -3.102161e-03
N 3.128640e+00 1.789260e+00 6.935343e+00 6.070843e-04 -1.413662e-03 -5.066086e-04
N 3.136880e+00 1.742476e+00 -3.349679e+00 8.312832e-04 -8.947226e-04 -1.320267e-03
N 6.302341e+00 -3.692193e+00 1.804251e+00 -7.033995e-04 3.145502e-04 -1.620932e-03
N 6.307405e+00 -3.744951e+00 6.873835e+00 1.375901e-04 -1.759285e-04 -1.211075e-03
N 6.272855e+00 -3.717996e+00 -3.303860e+00 -6.566135e-04 2.564009e-05 -6.736597e-04
N 4.735542e+00 -9.459050e-01 1.800651e+00 -1.356285e-03 5.431389e-04 -1.094173e-03
N 4.689263e+00 -9.322509e-01 6.874154e+00 -2.846913e-03 3.309266e-04 8.701795e-04
N 4.729524e+00 -9.106408e-01 -3.304476e+00 -2.471556e-04 1.538649e-03 9.158943e-05
N -3.226334e+00 1.766253e+00 1.837111e+00 -1.778352e-03 2.616808e-04 1.634038e-03
N -3.233567e+00 1.761386e+00 6.883575e+00 6.622350e-04 2.473610e-04 -2.917330e-03
N -3.238455e+00 1.763402e+00 -3.292197e+00 -2.540043e-04 -2.774822e-04 -2.004422e-05
N -6.913056e-02 -3.676478e+00 1.785005e+00 4.061261e-03 8.963710e-03 -1.228218e-03
N -7.149754e-02 -3.664112e+00 6.887097e+00 4.446606e-04 4.633892e-04 -1.300153e-03
N -3.257498e-02 -3.644839e+00 -3.297578e+00 3.214001e-04 8.211778e-04 -1.518146e-05
N -1.609306e+00 -9.967493e-01 1.806327e+00 5.211159e-03 2.348162e-05 -3.286998e-03
N -1.549998e+00 -9.871379e-01 6.861302e+00 -4.236753e-03 3.623490e-03 -4.899890e-03
N -1.560631e+00 -9.807989e-01 -3.354064e+00 -1.877377e-04 -2.737751e-04 -1.264579e-03
