108
Energy=-1809928.632069 Lattice="9.562323 0.000000 0.000000 -4.799737 8.269740 0.000000 -0.020507 0.038072 15.449978" Stress="-0.000015 -0.000000 -0.000005 -0.000000 -0.000027 0.000007 -0.000005 0.000007 -0.000006" Properties=species:S:1:pos:R:3:forces:R:3
Al 1.564700 0.925378 2.450312 0.002117 0.000020 0.000112
Al 1.564340 0.898423 7.569027 0.001115 0.001696 0.001343
Ga 1.567544 0.855324 -2.728994 0.001327 -0.000523 0.000614
Al -0.099489 3.622395 2.426821 0.026087 0.015079 0.008545
Al -0.028339 3.662965 7.556957 0.000427 -0.000345 0.001830
Ga -0.020559 3.616211 -2.727779 0.002017 -0.000294 0.002019
Al 3.200399 -1.876370 2.428689 -0.007592 0.003973 -0.001064
Ga 3.173042 -1.854226 7.567505 0.000338 -0.001944 0.001518
Al 3.183268 -1.894836 -2.732324 -0.000384 0.000240 0.003966
Al -4.836550 0.890941 2.431652 0.000794 -0.001039 -0.000128
Al -4.828518 0.898586 7.572244 -0.001197 0.000620 0.001418
Ga -4.804095 0.862158 -2.725446 0.001305 0.000406 0.000828
Al -6.415611 3.641519 2.465815 -0.002198 0.000899 -0.000087
Ga -6.439738 3.652533 7.563331 -0.001058 -0.000768 0.000571
Al -6.404741 3.623908 -2.755772 0.000148 0.000848 0.002261
Ga -3.213905 -1.857962 2.438652 0.000659 -0.002611 -0.000457
Al -3.213062 -1.859377 7.564479 0.000308 -0.002145 0.001652
Ga -3.197851 -1.894408 -2.737507 0.001445 -0.001146 0.003114
Al -1.632017 0.903091 2.474973 0.001031 -0.000899 -0.000877
Ga -1.653088 0.899037 7.580853 0.003951 -0.000428 -0.000569
Al -1.624664 0.867703 -2.763380 0.000506 -0.001018 0.001832
Ga -3.204069 3.655839 2.432585 -0.002480 0.000162 -0.000298
Ga -3.233443 3.652546 7.587837 0.002791 0.000857 0.000422
Ga -3.216660 3.622371 -2.733435 -0.000156 -0.001057 0.001044
Ga -0.020065 -1.829447 2.446203 0.001479 -0.001944 -0.000614
Ga -0.039053 -1.836408 7.596450 0.001820 -0.000483 0.000962
Ga -0.010505 -1.884712 -2.757134 0.000978 -0.000964 0.001274
Ga -0.027023 1.820533 5.003094 -0.001843 0.001492 0.000629
Ga -0.020231 1.767525 -5.325020 -0.000501 0.002347 0.000553
Ga -0.039885 1.774386 -0.118475 -0.000816 0.002975 0.003058
Al 3.182453 -3.700831 4.997421 0.000881 0.000444 0.003260
Ga 3.184799 -3.732824 -5.304629 -0.000049 -0.001013 0.000792
Al 3.195748 -3.715651 -0.153289 -0.001565 0.001182 0.000929
Ga 1.585504 -0.938777 4.992364 -0.001101 0.000966 0.000492
Al 1.587021 -0.984714 -5.306245 -0.001857 0.001578 0.001169
Ga 1.611892 -0.991833 -0.120294 -0.002142 0.002494 -0.002074
Al 3.143440 1.815396 4.993406 0.000811 0.001903 0.002760
Ga 3.169003 1.786962 -5.316185 -0.000680 -0.000473 0.001495
Ga 3.161605 1.787290 -0.133473 0.000425 0.002880 0.002857
Al 6.338962 -3.698125 4.985352 0.000300 -0.002026 0.001491
Al 6.383097 -3.724827 -5.323507 -0.002360 0.000108 0.002292
Ga 6.361820 -3.733973 -0.127300 0.001788 0.001239 0.001852
Ga 4.764746 -0.949549 5.003520 -0.000704 0.001734 0.001529
Ga 4.784470 -0.978858 -5.319480 -0.000150 0.000721 0.000677
Al 4.758091 -0.976512 -0.145175 -0.000340 -0.001006 0.003815
Ga -3.238126 1.813670 4.994124 -0.000851 0.000378 0.001304
Al -3.216421 1.777888 -5.308167 -0.000840 0.001190 0.001706
Ga -3.200052 1.775325 -0.137296 -0.002564 0.001669 0.003930
Ga -0.033609 -3.685947 5.003359 -0.001242 -0.001140 -0.000356
Al -0.019105 -3.724282 -5.298065 0.000538 0.000205 -0.000696
Ga -0.015815 -3.730183 -0.143214 -0.001841 -0.000089 0.001249
Al -1.626434 -0.939620 5.014198 -0.001400 -0.000037 0.001894
Al -1.604620 -0.976303 -5.307959 -0.001861 -0.000715 0.000444
Ga -1.610043 -0.955975 -0.156254 -0.002153 -0.000205 0.003725
N 1.593328 0.923435 4.360162 0.002115 -0.000210 -0.001687
N 1.576575 0.815362 -5.955696 0.001122 -0.002425 -0.002674
N 1.564109 0.858283 -0.755512 -0.000455 0.000644 0.000447
N -0.052645 3.690374 4.362507 0.000796 0.002614 -0.001404
N 0.016111 3.640871 -5.961582 0.002108 0.000872 -0.002535
N -0.056843 3.633405 -0.744811 -0.002402 0.000007 -0.000891
N 3.173238 -1.909042 4.342472 0.000075 -0.002192 0.001583
N 3.144530 -1.877113 -5.916923 -0.001092 0.000822 -0.000504
N 3.215024 -1.909696 -0.786257 0.002276 -0.002145 -0.002950
N -4.864419 0.913352 4.351227 -0.001052 -0.000020 -0.001956
N -4.771875 0.887152 -5.954399 0.002714 0.000217 -0.003072
N -4.807895 0.826108 -0.744351 0.001201 -0.001564 0.000070
N -6.454322 3.634252 4.387826 -0.001487 -0.001434 0.000186
N -6.402934 3.661367 -5.907773 0.001201 0.002094 0.000212
N -6.406436 3.622320 -0.831363 0.000239 0.000088 -0.002988
N -3.171427 -1.879431 4.420417 0.000706 -0.000607 -0.000905
N -3.155474 -1.916659 -5.945720 0.002619 -0.000702 -0.002778
N -3.235612 -1.873389 -0.746153 -0.002103 0.001846 -0.001861
N -1.640993 0.857622 4.383407 0.002822 -0.002149 -0.000941
N -1.663035 0.842981 -5.898992 -0.000116 -0.001699 0.001108
N -1.625195 0.871698 -0.842104 0.002687 0.000615 -0.001036
N -3.187948 3.686421 4.405574 0.001038 0.000251 -0.000661
N -3.252090 3.604093 -5.882067 -0.001451 -0.001589 0.000962
N -3.180850 3.645606 -0.743875 0.003681 0.000748 0.000282
N -0.063818 -1.820304 4.410930 -0.000142 -0.000456 0.000043
N -0.012046 -1.883808 -5.865527 0.000590 -0.001352 0.001782
N -0.009923 -1.884025 -0.777191 0.001429 0.000043 -0.000205
N -0.048215 1.838660 1.917861 -0.000570 -0.016730 -0.012749
N -0.000511 1.833149 6.988940 0.000039 0.001155 0.001529
N -0.055145 1.754660 -3.347428 -0.001396 0.000998 -0.000717
N 3.232680 -3.688266 1.784685 -0.010881 0.006301 -0.005485
N 3.204375 -3.721184 6.928786 -0.000376 -0.000384 -0.003380
N 3.189771 -3.694211 -3.332300 -0.001336 0.002498 0.000088
N 1.618272 -0.892257 1.850557 0.004479 -0.007705 0.004338
N 1.575230 -0.900083 6.966387 -0.002289 0.001421 -0.001324
N 1.633685 -1.000680 -3.382504 0.000494 0.000062 -0.001929
N 3.153759 1.830311 1.864085 0.000258 -0.002251 -0.001490
N 3.146910 1.775131 6.937481 0.000415 -0.002158 -0.002770
N 3.163366 1.818387 -3.340109 -0.000162 0.001661 -0.000222
N 6.375509 -3.743333 1.849916 -0.009428 -0.005836 0.003851
N 6.311652 -3.671819 6.923165 -0.001874 0.001218 -0.002252
N 6.400531 -3.751248 -3.390200 0.000960 -0.000844 -0.003399
N 4.718236 -0.934456 1.802964 0.001505 0.004487 -0.004602
N 4.795019 -0.914339 6.990627 0.001300 0.000884 -0.000685
N 4.739861 -0.998318 -3.342371 -0.003061 -0.000135 -0.001063
N -3.218790 1.766320 1.867727 -0.000889 -0.001828 -0.003420
N -3.271843 1.798710 6.966889 -0.002222 -0.000316 -0.001203
N -3.180167 1.761262 -3.382917 0.000116 0.000258 -0.002329
N -0.054857 -3.711358 1.843785 -0.000473 -0.001464 -0.000113
N -0.028929 -3.686530 6.966432 0.000001 0.000258 -0.000326
N -0.044635 -3.750562 -3.381230 -0.001491 -0.001216 -0.001662
N -1.613626 -0.879966 1.831656 -0.001256 0.000438 -0.003911
N -1.655763 -0.956685 6.933671 -0.003018 -0.000324 -0.002400
N -1.607390 -0.930674 -3.387735 -0.001423 0.001238 -0.002008
