108
Energy=-2.725439e+06 Lattice="9.690231e+00 0.000000e+00 0.000000e+00 -4.854862e+00 8.389043e+00 0.000000e+00 -5.548589e-02 -5.002068e-02 1.573638e+01" Stress="2.549341e-03 -1.098902e-03 -1.902111e-03 -1.106015e-03 4.188885e-03 -1.414302e-03 -1.896554e-03 -1.407996e-03 3.695816e-03" Properties=species:S:1:pos:R:3:forces:R:3 Config_type=AlGaN_super3_50_2_7.xyz
Al 1.553024e+00 8.344045e-01 2.473115e+00 -7.247851e-06 2.729560e-03 -2.161655e-03
Al 1.551374e+00 8.623051e-01 7.732391e+00 4.320827e-04 3.088903e-04 -5.600892e-04
Ga 1.608611e+00 9.206266e-01 -2.767772e+00 5.758383e-04 -5.921557e-05 1.372520e-03
Ga -6.350456e-02 3.627355e+00 2.482209e+00 3.020306e-04 4.646025e-04 -4.310937e-05
Ga -5.536381e-02 3.639245e+00 7.732044e+00 2.344589e-04 5.163262e-05 -6.616313e-04
Ga 1.857775e-03 3.708275e+00 -2.782375e+00 6.529815e-05 -6.115891e-04 -4.812009e-04
Ga 3.158586e+00 -1.933989e+00 2.466660e+00 5.707330e-04 -1.060494e-03 1.834012e-04
Ga 3.171115e+00 -1.925232e+00 7.719443e+00 5.361643e-04 -6.825389e-04 -5.435661e-04
Ga 3.228644e+00 -1.866683e+00 -2.756590e+00 2.588016e-04 -6.340259e-04 -4.776207e-04
Ga -4.921008e+00 8.441261e-01 2.485714e+00 4.788936e-04 1.651881e-03 -3.367516e-04
Ga -4.915610e+00 8.607651e-01 7.722488e+00 5.462286e-04 2.280677e-04 -9.891744e-04
Ga -4.844407e+00 9.263084e-01 -2.769059e+00 7.451050e-05 8.395232e-05 -1.103765e-03
Ga -6.533769e+00 3.629846e+00 2.483717e+00 5.390850e-04 4.998762e-04 -3.642267e-04
Ga -6.523907e+00 3.648394e+00 7.720816e+00 1.992340e-04 -4.658797e-05 -9.289970e-04
Ga -6.458960e+00 3.719106e+00 -2.769764e+00 -2.757033e-04 -8.247887e-04 -1.271796e-03
Ga -3.288583e+00 -1.951522e+00 2.479637e+00 6.492145e-04 -2.283831e-04 -2.452382e-04
Ga -3.282300e+00 -1.931385e+00 7.725837e+00 2.313414e-04 -5.816807e-04 -7.611028e-04
Ga -3.221240e+00 -1.869121e+00 -2.770904e+00 -6.456771e-05 -9.379260e-04 -1.171666e-03
Ga -1.669518e+00 8.454181e-01 2.482064e+00 6.516763e-05 9.933932e-04 -7.967200e-06
Ga -1.654408e+00 8.660127e-01 7.731775e+00 -4.333596e-04 -5.359317e-04 -5.839948e-04
Ga -1.600005e+00 9.335428e-01 -2.783184e+00 -3.806159e-04 -6.402418e-04 -6.443358e-04
Ga -3.295604e+00 3.641368e+00 2.480233e+00 -3.039043e-04 -3.003024e-04 1.928414e-06
Ga -3.289282e+00 3.661198e+00 7.725446e+00 -7.996998e-04 -1.040275e-03 -6.035993e-04
Ga -3.227995e+00 3.723412e+00 -2.769682e+00 -9.037310e-04 -1.525376e-03 -9.380259e-04
Ga -4.204152e-02 -1.928369e+00 2.455383e+00 6.759884e-04 -6.693153e-04 2.214625e-03
Ga -4.538334e-02 -1.921433e+00 7.718256e+00 -6.060526e-04 -1.417376e-03 -4.782060e-04
Ga 1.784632e-02 -1.863231e+00 -2.762236e+00 -7.474208e-04 -1.451707e-03 -1.819023e-03
Ga -4.527207e-02 1.773602e+00 5.097587e+00 -4.162767e-04 1.150901e-03 -1.594469e-04
Al 8.831168e-03 1.842283e+00 -5.405354e+00 2.853342e-04 8.312096e-04 -3.865519e-04
Ga 1.538862e-02 1.856078e+00 -1.362748e-01 1.726409e-05 -2.796540e-03 2.507874e-03
Ga 3.177365e+00 -3.806107e+00 5.102289e+00 3.405106e-04 3.675297e-04 -9.719816e-04
Ga 3.242741e+00 -3.751112e+00 -5.389060e+00 4.588517e-04 8.889416e-04 -9.227822e-04
Ga 3.241942e+00 -3.718910e+00 -1.536782e-01 -1.050170e-03 -2.411723e-03 2.798742e-03
Ga 1.560643e+00 -9.928046e-01 5.100176e+00 -2.824864e-04 -8.736751e-04 3.205780e-04
Ga 1.615550e+00 -9.302946e-01 -5.405747e+00 1.646377e-04 -2.508873e-04 -1.959742e-04
Al 1.611934e+00 -9.385017e-01 -1.371668e-01 2.837904e-03 3.132725e-03 -2.219234e-04
Ga 3.152362e+00 1.774792e+00 5.101778e+00 5.873242e-04 7.419901e-04 -4.438991e-04
Ga 3.210076e+00 1.843569e+00 -5.402505e+00 2.603059e-04 4.916292e-04 -2.339847e-04
Ga 3.229871e+00 1.855408e+00 -1.410720e-01 -4.392126e-03 -3.773301e-03 3.558118e-03
Ga 6.405099e+00 -3.805937e+00 5.107141e+00 -4.326508e-05 6.022339e-05 -9.593113e-04
Ga 6.462773e+00 -3.751506e+00 -5.392635e+00 1.965934e-05 2.835790e-04 -1.070260e-03
Ga 6.475923e+00 -3.724581e+00 -1.527917e-01 -2.484845e-03 -3.082365e-03 2.978663e-03
Ga 4.788503e+00 -1.009385e+00 5.099607e+00 8.472533e-05 -9.672722e-04 -6.063404e-04
Ga 4.847838e+00 -9.460877e-01 -5.387548e+00 -3.214280e-04 -8.237246e-04 -5.744993e-04
Ga 4.846476e+00 -9.258905e-01 -1.503802e-01 -2.725282e-03 -3.942536e-03 3.138819e-03
Ga -3.288932e+00 1.786004e+00 5.106425e+00 -2.684207e-04 3.354630e-04 -6.549847e-04
Ga -3.220054e+00 1.848982e+00 -5.395598e+00 -2.787190e-04 3.142911e-04 -6.759334e-04
Ga -3.218129e+00 1.867997e+00 -1.520247e-01 -2.734613e-03 -2.793257e-03 2.654756e-03
Ga -5.159265e-02 -3.801465e+00 5.095055e+00 -2.802955e-04 1.933089e-04 -9.206865e-04
Ga 7.720075e-03 -3.739409e+00 -5.389725e+00 -2.071326e-04 2.356864e-04 -8.989129e-04
Ga 2.106296e-02 -3.713134e+00 -1.564237e-01 -2.579118e-03 -4.544052e-03 3.998901e-03
Ga -1.667284e+00 -1.005796e+00 5.099273e+00 -4.973482e-04 -1.190872e-03 -3.868629e-04
Ga -1.601754e+00 -9.361719e-01 -5.391181e+00 -4.791348e-04 -5.952745e-04 -7.928530e-04
Ga -1.588193e+00 -9.239185e-01 -1.609019e-01 -3.900642e-03 -2.907125e-03 3.810094e-03
N 1.553725e+00 8.472143e-01 4.387605e+00 5.230137e-04 5.319907e-04 2.438944e-03
N 1.568209e+00 9.415751e-01 -6.077368e+00 1.135836e-03 -1.020139e-04 1.244923e-03
N 1.615677e+00 8.772216e-01 -7.708717e-01 2.360120e-04 5.560015e-04 -2.431810e-03
N -6.363199e-02 3.645488e+00 4.464527e+00 4.990044e-04 -1.246882e-04 9.246931e-04
N -2.898930e-03 3.659286e+00 -6.013411e+00 1.393289e-04 8.299905e-04 2.654740e-04
N 4.969493e-03 3.723334e+00 -7.941268e-01 -5.404255e-04 -8.488897e-04 1.584522e-04
N 3.167615e+00 -1.937900e+00 4.454531e+00 2.955788e-04 -2.962507e-04 8.084330e-04
N 3.232747e+00 -1.878619e+00 -6.035412e+00 3.720301e-04 -4.671811e-04 8.847477e-04
N 3.187618e+00 -1.835527e+00 -7.633461e-01 1.311540e-03 -1.109441e-03 -6.980609e-04
N -4.908791e+00 8.538747e-01 4.468025e+00 2.386220e-04 1.409546e-03 6.188213e-04
N -4.847785e+00 9.163820e-01 -6.031833e+00 1.647529e-04 9.943860e-04 4.516612e-04
N -4.839483e+00 9.358560e-01 -7.876230e-01 -2.262043e-04 3.406781e-04 1.769967e-04
N -6.524599e+00 3.646650e+00 4.466274e+00 1.749708e-04 -1.194117e-04 1.064762e-03
N -6.460798e+00 3.713517e+00 -6.034817e+00 -6.512795e-05 -2.737854e-04 6.851824e-04
N -6.452552e+00 3.727831e+00 -7.874070e-01 -4.515936e-04 -8.943222e-04 6.036988e-04
N -3.284574e+00 -1.941394e+00 4.459738e+00 2.752418e-04 -1.857379e-04 9.132315e-04
N -3.223827e+00 -1.876045e+00 -6.029306e+00 1.445897e-04 -4.331628e-04 9.753493e-04
N -3.217474e+00 -1.857358e+00 -7.910341e-01 -4.943920e-04 -8.929629e-04 4.599762e-04
N -1.673583e+00 8.552911e-01 4.463737e+00 2.609985e-05 8.615673e-04 3.754298e-04
N -1.567167e+00 9.443438e-01 -6.014645e+00 -1.170102e-03 -3.542164e-04 -8.740479e-06
N -1.600043e+00 9.404593e-01 -7.975356e-01 -1.117181e-03 -3.741410e-04 -2.962485e-04
N -3.291369e+00 3.651331e+00 4.460470e+00 -3.493952e-04 -6.372962e-04 7.958052e-04
N -3.231821e+00 3.717309e+00 -6.031705e+00 -5.029556e-04 -7.648878e-04 6.189726e-04
N -3.223472e+00 3.733142e+00 -7.917151e-01 -1.288780e-03 -1.436067e-03 1.194033e-04
N -4.879205e-02 -1.932335e+00 4.448391e+00 1.798200e-04 -7.254558e-04 5.821415e-04
N 5.903659e-03 -1.875075e+00 -6.038741e+00 -2.656539e-04 -9.449204e-04 7.640126e-04
N 6.084064e-02 -1.832790e+00 -7.755980e-01 -3.473715e-03 -2.745608e-03 9.159555e-04
N -1.787014e-02 1.740772e+00 1.864405e+00 6.963226e-04 5.445466e-03 -3.016209e-03
N -8.735104e-03 1.759550e+00 7.089737e+00 -3.045307e-04 1.587486e-03 -2.942000e-04
N 1.018756e-02 1.847878e+00 -3.478508e+00 3.058682e-04 1.287341e-03 1.220084e-03
N 3.172367e+00 -3.819154e+00 1.842189e+00 3.202449e-03 4.310081e-03 -2.706515e-03
N 3.182421e+00 -3.804206e+00 7.086242e+00 9.239630e-04 1.273633e-03 4.500798e-04
N 3.239786e+00 -3.737234e+00 -3.405614e+00 1.058886e-03 1.396199e-03 3.221786e-04
N 1.569028e+00 -9.483269e-01 1.787865e+00 -1.393679e-03 -4.249624e-03 1.666675e-03
N 1.562308e+00 -9.458809e-01 7.096036e+00 4.908002e-04 -4.870144e-04 -2.056292e-04
N 1.622263e+00 -9.392451e-01 -3.423790e+00 6.812161e-04 6.689519e-04 -2.089275e-04
N 3.115175e+00 1.744280e+00 1.867854e+00 5.656321e-03 5.587152e-03 -5.193458e-03
N 3.119683e+00 1.760744e+00 7.098178e+00 7.160523e-04 8.752569e-04 8.034150e-05
N 3.225697e+00 1.849719e+00 -3.414825e+00 -1.224612e-04 7.011404e-04 3.003329e-04
N 6.399689e+00 -3.820737e+00 1.841536e+00 2.677640e-03 3.479335e-03 -2.996982e-03
N 6.406308e+00 -3.801337e+00 7.087977e+00 -1.046583e-04 2.848079e-04 7.916779e-04
N 6.470199e+00 -3.739075e+00 -3.412127e+00 7.276232e-05 7.040038e-04 7.788830e-04
N 4.786307e+00 -1.019336e+00 1.845282e+00 2.414181e-03 2.305948e-03 -3.730803e-03
N 4.792509e+00 -1.004052e+00 7.078647e+00 -4.108732e-04 -3.199476e-04 7.105882e-04
N 4.848821e+00 -9.421478e-01 -3.404622e+00 -3.166898e-04 -1.928812e-04 6.996905e-04
N -3.294982e+00 1.771100e+00 1.842807e+00 2.030495e-03 3.472509e-03 -2.395313e-03
N -3.284160e+00 1.788451e+00 7.089500e+00 -5.380961e-04 6.180053e-04 1.064177e-03
N -3.225623e+00 1.854084e+00 -3.414395e+00 -5.471375e-04 6.723262e-04 1.047254e-03
N -5.806889e-02 -3.817030e+00 1.843013e+00 2.022641e-03 4.551411e-03 -3.479371e-03
N -5.032657e-02 -3.797892e+00 7.077822e+00 -3.665502e-04 3.989468e-04 8.279369e-04
N 1.037329e-02 -3.733288e+00 -3.407502e+00 -2.389433e-04 5.577586e-04 1.157689e-03
N -1.675360e+00 -1.016119e+00 1.835574e+00 2.823377e-03 1.703414e-03 -3.520238e-03
N -1.666101e+00 -9.994546e-01 7.081874e+00 -6.000040e-04 -2.518203e-04 7.218519e-04
N -1.601151e+00 -9.403624e-01 -3.408814e+00 -6.282477e-04 -1.257829e-05 1.210912e-03
