108
Energy=-2038806.310636 Lattice="9.589021 0.000000 0.000000 -4.795577 8.304884 0.000000 -0.002988 -0.009279 15.534570" Stress="-0.000001 -0.000000 -0.000001 -0.000000 -0.000002 -0.000001 -0.000001 -0.000001 0.000000" Properties=species:S:1:pos:R:3:forces:R:3
Al 1.581111 0.892760 2.410589 -0.000095 -0.000137 -0.000074
Al 1.567121 0.887629 7.623240 0.000328 -0.000418 0.000217
Al 1.575454 0.876748 -2.706979 -0.000124 -0.000169 0.000147
Al -0.022842 3.641022 2.429854 0.000397 0.004055 -0.003346
Al -0.025698 3.649835 7.618020 0.000011 0.000302 -0.000265
Ga -0.019387 3.664963 -2.715923 -0.000084 0.000026 0.000539
Ga 3.160435 -1.899710 2.421379 -0.000398 -0.000792 0.000686
Ga 3.180816 -1.902732 7.621374 -0.000049 0.000219 0.000330
Ga 3.165151 -1.889830 -2.719966 -0.000081 0.000027 0.000470
Ga -4.835528 0.902074 2.418683 -0.000612 0.000113 0.001289
Ga -4.822746 0.873309 7.633205 0.000054 -0.000089 0.000433
Ga -4.821805 0.886391 -2.726262 -0.000048 -0.000105 0.001280
Al -6.428832 3.639792 2.404532 -0.000555 0.000141 0.000214
Ga -6.430569 3.650782 7.634503 -0.000018 -0.000041 0.000389
Ga -6.421675 3.662551 -2.722170 -0.000115 -0.000056 0.000399
Ga -3.208884 -1.904346 2.411578 0.000259 -0.000942 0.000672
Al -3.225541 -1.899925 7.621116 0.000019 0.000126 0.000396
Al -3.203511 -1.891170 -2.705111 -0.000038 -0.000188 0.000442
Ga -1.611290 0.886648 2.423079 0.000706 -0.000321 0.000844
Ga -1.613301 0.882088 7.636407 -0.000170 -0.000251 0.000375
Ga -1.616835 0.872577 -2.732917 0.000165 -0.000224 0.000968
Al -3.209292 3.659715 2.429983 0.000410 0.000508 0.001033
Ga -3.208957 3.653404 7.641057 0.000043 -0.000055 0.000366
Ga -3.215460 3.666063 -2.744827 0.000199 0.000010 0.000493
Ga -0.018392 -1.881741 2.412562 0.000159 0.000150 0.000082
Ga -0.026062 -1.889651 7.634220 0.000030 0.000048 0.000346
Al -0.025433 -1.878814 -2.720405 0.000069 0.000134 0.000153
Ga -0.015033 1.816570 5.024402 0.000010 -0.000990 -0.000516
Ga -0.023508 1.821225 -5.318561 -0.000029 -0.000043 0.000178
Ga -0.004164 1.808412 -0.141017 -0.000168 0.000549 -0.000798
Al 3.177687 -3.745074 5.017182 -0.000997 0.000189 -0.000198
Al 3.168514 -3.739195 -5.330285 -0.000061 -0.000168 0.000323
Al 3.174829 -3.727605 -0.128873 0.001060 -0.000521 -0.000488
Ga 1.580858 -0.961216 5.026358 -0.000199 -0.000120 0.000269
Ga 1.573431 -0.963937 -5.305255 -0.000186 -0.000155 0.000411
Al 1.570501 -0.955857 -0.164074 0.000087 0.000174 -0.000108
Ga 3.159200 1.806826 5.020658 0.000085 -0.000357 0.000103
Ga 3.172997 1.811095 -5.314954 0.000090 -0.000184 0.000334
Al 3.152191 1.806534 -0.141615 0.000074 0.000128 -0.000472
Ga 6.355478 -3.741158 5.025606 0.000823 0.000290 -0.000053
Ga 6.361475 -3.719467 -5.326152 -0.000052 -0.000147 0.000172
Al 6.372585 -3.729494 -0.140480 -0.001049 -0.000637 -0.000296
Ga 4.768988 -0.975207 5.027688 -0.000010 -0.000165 0.000612
Ga 4.783390 -0.968105 -5.307753 -0.000075 -0.000090 0.000498
Ga 4.772440 -0.977040 -0.156649 -0.000084 0.000206 -0.002347
Ga -3.215850 1.822620 5.015971 -0.000143 -0.000324 0.000754
Al -3.219979 1.827105 -5.315754 0.000044 -0.000168 0.000457
Ga -3.218904 1.815555 -0.131374 0.000269 -0.000138 -0.002591
Ga -0.015485 -3.742738 4.994179 0.000071 0.000116 0.000539
Al -0.007832 -3.729858 -5.298371 0.000037 0.000028 0.000363
Ga -0.023808 -3.723390 -0.140885 0.000092 -0.000064 -0.000523
Ga -1.624085 -0.968252 5.043133 0.000011 -0.000313 0.000216
Ga -1.627001 -0.971681 -5.303966 0.000050 -0.000180 0.000347
Al -1.613190 -0.978755 -0.174679 0.000014 0.000624 -0.000540
N 1.574787 0.877073 4.328347 -0.000276 0.000498 -0.000115
N 1.573053 0.883995 -5.999719 0.000033 0.000200 -0.000360
N 1.616811 0.860526 -0.789333 0.000145 -0.000110 0.000159
N -0.065257 3.673574 4.358708 -0.000046 -0.000385 -0.003074
N -0.066808 3.678697 -5.993019 -0.000052 0.000130 -0.000099
N -0.025910 3.704910 -0.733749 -0.000048 0.000229 0.000261
N 3.169601 -1.940838 4.411815 -0.000028 0.000108 -0.000391
N 3.173764 -1.930396 -5.926064 0.000049 0.000035 -0.000212
N 3.126909 -1.918005 -0.733618 0.000165 0.000403 -0.000518
N -4.823432 0.881780 4.398402 0.000056 0.000241 -0.000883
N -4.776930 0.907589 -5.917686 0.000073 0.000166 -0.000482
N -4.860280 0.912715 -0.742822 0.000054 -0.000143 -0.001329
N -6.426685 3.646437 4.331361 -0.000058 0.000216 -0.000320
N -6.371566 3.681615 -5.917119 -0.000072 0.000196 -0.000274
N -6.456572 3.629956 -0.734879 0.000059 -0.000450 -0.000301
N -3.215537 -1.893673 4.384918 0.000045 0.000397 -0.000462
N -3.217519 -1.882089 -6.006017 0.000013 0.000152 -0.000406
N -3.173996 -1.918469 -0.782105 -0.000152 0.000427 -0.000792
N -1.618048 0.876057 4.401993 0.000519 0.000550 -0.000654
N -1.661072 0.907124 -5.912929 0.000041 0.000172 -0.000257
N -1.620034 0.841977 -0.750918 -0.000102 -0.000369 -0.000649
N -3.172754 3.676427 4.352814 0.000468 0.000327 -0.000983
N -3.221235 3.658323 -5.894143 0.000200 0.000195 -0.000199
N -3.175968 3.680493 -0.766190 -0.000112 -0.000216 -0.000905
N -0.023255 -1.881329 4.387589 -0.000001 0.000062 -0.000083
N -0.021097 -1.932272 -5.921124 -0.000053 0.000092 -0.000352
N -0.017365 -1.844311 -0.792085 -0.000083 0.000340 -0.000137
N 0.021746 1.826312 1.835328 -0.000016 0.000998 0.002235
N 0.019687 1.829118 7.020687 -0.000035 0.000073 -0.000006
N 0.024891 1.790879 -3.331363 0.000087 -0.000286 -0.000205
N 3.169081 -3.777582 1.783394 0.002660 -0.002171 0.002816
N 3.212704 -3.765933 6.945833 -0.000114 -0.000130 -0.000236
N 3.183658 -3.729129 -3.421063 -0.000327 0.000057 -0.000314
N 1.576644 -0.910794 1.758588 -0.000362 -0.000056 -0.000190
N 1.575762 -0.918297 7.011862 -0.000056 0.000356 -0.000306
N 1.533900 -0.933353 -3.315060 -0.000270 -0.000014 -0.000086
N 3.125522 1.829783 1.778092 0.000034 -0.000276 0.000257
N 3.128084 1.781885 7.007368 -0.000139 -0.000110 -0.000391
N 3.124790 1.784957 -3.338069 0.000032 -0.000140 -0.000162
N 6.373907 -3.777073 1.777183 -0.003280 -0.001985 0.003138
N 6.325690 -3.716163 7.019583 -0.000090 -0.000145 0.000005
N 6.366796 -3.678765 -3.347591 0.000198 0.000308 0.000005
N 4.771357 -0.964866 1.802822 0.000131 0.000142 0.002127
N 4.810487 -0.990215 7.010820 -0.000005 -0.000062 -0.000452
N 4.819508 -0.990867 -3.317385 -0.000070 -0.000008 -0.000470
N -3.218730 1.856332 1.829949 0.000043 0.000270 0.002618
N -3.220276 1.807411 6.993868 0.000067 0.000054 -0.000494
N -3.219330 1.810111 -3.400677 -0.000036 0.000036 -0.000677
N -0.021395 -3.779694 1.843052 0.000185 -0.000089 0.000625
N -0.022006 -3.740920 6.977545 0.000027 -0.000068 -0.000551
N -0.024039 -3.678890 -3.374343 0.000141 0.000266 -0.000390
N -1.619925 -0.963175 1.735429 0.000035 -0.000098 -0.000073
N -1.662135 -0.990086 7.021751 -0.000118 0.000053 -0.000420
N -1.623471 -1.014511 -3.316669 0.000217 -0.000050 -0.000112
