108
Energy=-1123296.474686 Lattice="9.476501 0.000000 0.000000 -4.742557 8.202073 0.000000 -0.002793 -0.050999 15.279550" Stress="0.000000 -0.000002 -0.000000 -0.000002 -0.000004 -0.000012 -0.000000 -0.000012 0.000007" Properties=species:S:1:pos:R:3:forces:R:3
Al 1.552632 0.864894 2.400176 0.000256 -0.000065 -0.000267
Al 1.554566 0.848044 7.466318 -0.000073 -0.000775 -0.000206
Al 1.558823 0.881252 -2.671626 -0.000122 0.000015 0.000076
Al -0.040085 3.594233 2.386678 -0.000116 0.000133 0.000437
Al -0.021544 3.569045 7.474770 -0.000718 -0.000005 -0.000037
Al -0.019611 3.618858 -2.666503 0.000574 -0.000130 -0.000090
Al 3.132146 -1.880162 2.381132 -0.000712 -0.000238 0.000107
Al 3.135719 -1.886634 7.500151 -0.000448 0.000340 -0.000049
Ga 3.140848 -1.842198 -2.683534 -0.000301 0.000040 0.000057
Al -4.769041 0.866224 2.416449 -0.000112 0.000111 0.000253
Al -4.762724 0.849299 7.483320 0.000148 -0.000322 0.000127
Al -4.758511 0.884514 -2.699039 0.000099 0.000013 -0.000381
Ga -6.337777 3.593388 2.385311 0.000086 -0.000346 0.000112
Al -6.339389 3.575276 7.488258 -0.000496 0.000338 0.000057
Ga -6.347837 3.617623 -2.675810 -0.000252 0.000174 0.000330
Al -3.176273 -1.859957 2.401982 0.000555 -0.000589 0.000004
Ga -3.174247 -1.886101 7.504933 -0.000186 0.000114 -0.000027
Al -3.183764 -1.849889 -2.708596 0.000127 -0.000334 -0.000002
Al -1.596449 0.861260 2.404030 0.000319 -0.000442 -0.000166
Al -1.598881 0.843606 7.470037 0.000014 0.000738 0.000631
Ga -1.610777 0.889818 -2.681256 0.000244 -0.000211 -0.000115
Al -3.174595 3.608922 2.423379 0.000098 -0.000387 -0.000069
Ga -3.185957 3.574950 7.469238 0.000120 0.000029 -0.000256
Al -3.187568 3.611100 -2.695047 0.000161 0.000157 0.000080
Al -0.023339 -1.864850 2.389966 -0.000212 0.000578 0.000015
Al -0.022199 -1.883380 7.492803 0.000030 0.000098 -0.000065
Ga -0.020449 -1.843832 -2.685558 0.000402 -0.000135 0.000538
Al -0.033855 1.764556 4.934475 -0.000091 -0.000033 0.000116
Ga -0.022085 1.794956 -5.249476 -0.000054 -0.000023 0.000414
Al -0.011037 1.787969 -0.132436 0.000065 -0.000133 0.000164
Al 3.136171 -3.713435 4.934954 -0.000168 -0.000212 0.000501
Ga 3.142419 -3.666453 -5.238182 -0.000030 0.000050 0.000195
Al 3.132714 -3.691278 -0.138783 -0.000069 0.000173 -0.000062
Ga 1.549612 -0.975833 4.936287 -0.000514 0.000237 0.000175
Al 1.554699 -0.934520 -5.268733 -0.000579 0.000393 0.000465
Al 1.544614 -0.937392 -0.113719 -0.000044 -0.000061 0.000499
Al 3.138275 1.768218 4.959412 0.000323 -0.000151 -0.000279
Ga 3.142688 1.797050 -5.252240 0.000057 0.000000 0.000345
Al 3.121191 1.780583 -0.145125 -0.000041 -0.000190 -0.000558
Ga 6.296650 -3.715116 4.939779 -0.000119 0.000126 -0.000012
Al 6.302000 -3.659145 -5.242376 -0.000376 -0.000107 0.000088
Al 6.289844 -3.679257 -0.138040 -0.000008 0.000163 -0.000144
Ga 4.714912 -0.962661 4.933414 -0.000203 0.000125 0.000416
Al 4.726085 -0.926252 -5.242453 -0.000089 0.000101 -0.000202
Ga 4.722614 -0.947216 -0.129529 -0.000012 -0.000167 0.000375
Al -3.177900 1.766313 4.920187 0.000154 0.000091 0.000445
Al -3.187998 1.792013 -5.246639 0.000027 -0.000593 0.000163
Ga -3.188099 1.803735 -0.117746 0.000116 -0.000155 0.000120
Al -0.018073 -3.701000 4.940643 0.000138 0.000299 -0.000077
Al -0.025989 -3.655419 -5.252959 -0.000246 -0.000272 -0.000046
Al -0.013338 -3.673750 -0.130895 0.000328 0.000136 -0.000072
Al -1.588087 -0.960339 4.936849 -0.000370 0.000119 -0.000337
Al -1.600593 -0.935414 -5.254239 0.000037 -0.000024 0.000124
Al -1.597114 -0.958914 -0.125883 -0.000065 0.000095 0.000327
N 1.558442 0.904950 4.322232 -0.000140 0.000122 0.000202
N 1.556898 0.848390 -5.909461 0.000066 0.000099 -0.000333
N 1.550806 0.870693 -0.747782 0.000161 -0.000152 -0.000016
N -0.069020 3.561891 4.306196 0.000147 0.000073 -0.000860
N 0.016838 3.645109 -5.897787 0.000086 0.000170 -0.000070
N -0.024922 3.609606 -0.742456 0.000062 0.000058 0.000196
N 3.133359 -1.932233 4.288009 0.000290 0.000323 -0.000290
N 3.142096 -1.800169 -5.860297 0.000453 -0.000022 -0.000321
N 3.091629 -1.874485 -0.703924 -0.000075 -0.000382 0.000170
N -4.770382 0.906613 4.322978 -0.000075 -0.000099 -0.000037
N -4.717712 0.868943 -5.880255 -0.000103 -0.000009 -0.000159
N -4.797904 0.901371 -0.790745 0.000087 -0.000064 0.000332
N -6.298755 3.559879 4.358084 -0.000078 0.000474 -0.000162
N -6.342650 3.671773 -5.869035 0.000635 0.000184 -0.000224
N -6.342672 3.615319 -0.685627 -0.000037 -0.000237 -0.000122
N -3.134374 -1.857562 4.308069 -0.000016 0.000230 -0.000202
N -3.178210 -1.842940 -5.799494 -0.000001 0.000060 0.000117
N -3.138357 -1.879163 -0.781685 0.000065 -0.000047 -0.000076
N -1.598236 0.851989 4.326835 0.000194 0.000044 -0.000091
N -1.643831 0.869842 -5.880616 0.000144 0.000086 -0.000353
N -1.568352 0.853532 -0.704427 0.000293 -0.000152 0.000220
N -3.183665 3.595613 4.347220 -0.000144 -0.000122 -0.000140
N -3.224254 3.599035 -5.834156 0.000128 0.000441 -0.000092
N -3.188491 3.657248 -0.778219 -0.000165 -0.000235 0.000190
N -0.065027 -1.903036 4.304047 0.000293 -0.000428 -0.000243
N -0.023431 -1.841521 -5.861850 0.000052 -0.000352 -0.000114
N -0.020950 -1.853637 -0.698684 -0.000026 -0.000022 -0.000283
N -0.021351 1.775060 1.790127 0.000080 0.000088 -0.000042
N -0.026293 1.756083 6.862694 -0.000078 0.000062 -0.000102
N 0.019979 1.819115 -3.267008 0.000024 0.000347 0.000306
N 3.132859 -3.700996 1.781362 -0.000046 -0.000011 -0.000215
N 3.181496 -3.684238 6.856433 0.000262 -0.000172 0.000028
N 3.143412 -3.720800 -3.262212 -0.000094 -0.000120 0.000042
N 1.554224 -0.951044 1.806355 -0.000152 0.000121 -0.000286
N 1.557727 -0.985364 6.918688 0.000209 0.000945 0.000238
N 1.557237 -0.888697 -3.349729 -0.000145 0.000246 -0.000340
N 3.134397 1.720875 1.762659 -0.000242 0.000178 0.000336
N 3.138450 1.758457 6.883568 0.000062 -0.000101 -0.000197
N 3.130958 1.749684 -3.271826 0.000124 -0.000096 -0.000141
N 6.250362 -3.664078 1.777710 -0.000135 0.000033 0.000314
N 6.296723 -3.756312 6.907023 0.000860 0.000031 0.000035
N 6.253475 -3.654953 -3.318264 -0.000206 0.000009 0.000100
N 4.718206 -0.954085 1.851890 0.000488 0.000449 -0.000659
N 4.676525 -0.956808 6.907247 -0.000226 0.000366 -0.000016
N 4.754734 -0.912194 -3.320544 0.000243 0.000039 0.000204
N -3.186062 1.780643 1.864977 0.000066 0.000578 -0.000392
N -3.180992 1.705690 6.840136 -0.000127 0.000109 -0.000682
N -3.222193 1.819100 -3.324448 -0.000161 -0.000353 -0.000082
N 0.029537 -3.668095 1.778296 0.000205 -0.000701 0.000238
N -0.061427 -3.680469 6.856355 -0.000500 -0.000138 0.000330
N 0.014553 -3.690723 -3.338962 0.000051 -0.000081 -0.000222
N -1.604422 -0.956655 1.790970 -0.000150 0.000076 -0.000116
N -1.557652 -0.953419 6.855489 0.000205 -0.000707 0.000011
N -1.635269 -0.956152 -3.343773 -0.000570 -0.000130 -0.000166
