108
Energy=-1901479.745024 Lattice="9.579163 0.000000 0.000000 -4.798323 8.289598 0.000000 -0.016297 0.005877 15.490436" Stress="0.000004 -0.000002 -0.000004 -0.000002 0.000001 0.000001 -0.000004 0.000001 0.000000" Properties=species:S:1:pos:R:3:forces:R:3
Al 1.567243 0.878826 2.441623 0.000224 -0.000085 0.000645
Al 1.564224 0.904519 7.587018 0.000460 -0.000035 0.000864
Al 1.575203 0.891383 -2.739658 0.000529 -0.000153 0.000519
Al -0.035779 3.639178 2.428969 0.000051 0.000027 0.000560
Al -0.022862 3.635788 7.593009 0.000316 -0.000141 0.000164
Al -0.009722 3.631887 -2.723263 0.000055 0.000123 0.000405
Al 3.164767 -1.881568 2.420354 0.000207 -0.000169 0.000315
Ga 3.177107 -1.879248 7.608392 -0.000135 0.000096 0.000580
Ga 3.176716 -1.884074 -2.724009 0.000258 0.000156 0.000411
Al -4.826585 0.882254 2.439833 0.000583 0.000286 0.000368
Ga -4.839519 0.887526 7.604201 0.000186 -0.000043 0.000525
Ga -4.826951 0.887643 -2.741742 0.000506 -0.000271 0.000617
Ga -6.425564 3.632258 2.446985 0.000075 0.000305 0.000798
Al -6.439046 3.632363 7.593628 0.000189 0.000012 0.000360
Al -6.420747 3.634142 -2.745563 0.000271 -0.000003 0.000470
Ga -3.212183 -1.875491 2.446963 0.000187 -0.000194 0.000423
Al -3.209248 -1.874327 7.600298 0.000196 -0.000226 0.000017
Ga -3.196280 -1.891429 -2.749176 -0.000099 0.000041 0.000951
Al -1.620850 0.880913 2.432361 0.000233 0.000077 0.000402
Al -1.619815 0.873471 7.590662 0.000470 -0.000215 0.000376
Ga -1.601084 0.878860 -2.723338 0.000534 -0.000473 0.000626
Ga -3.212729 3.645830 2.410066 0.000536 -0.000197 0.000479
Ga -3.224043 3.643828 7.597856 0.000009 0.000110 0.000010
Ga -3.215460 3.648049 -2.697441 0.000267 -0.000354 0.000144
Al -0.021199 -1.858476 2.455423 0.000210 -0.000327 0.000272
Ga -0.052339 -1.860645 7.595286 0.000949 -0.000513 0.000528
Al -0.022736 -1.874206 -2.748912 0.000400 -0.000326 0.000294
Ga -0.027429 1.793697 5.009761 -0.000554 0.000308 0.000716
Ga -0.007624 1.789961 -5.325632 -0.000827 0.000492 0.001003
Ga -0.029644 1.811118 -0.130845 -0.000138 0.000367 -0.000896
Ga 3.179474 -3.722521 5.006375 -0.000202 0.000892 0.000812
Ga 3.197083 -3.728231 -5.301262 -0.000259 0.000318 0.000694
Al 3.186379 -3.734085 -0.137363 0.000039 0.000325 -0.000198
Ga 1.571094 -0.949561 5.001295 -0.000564 0.000347 0.000387
Ga 1.588078 -0.946440 -5.304459 -0.000756 0.000411 -0.000081
Ga 1.572795 -0.965975 -0.134084 -0.000636 0.000801 -0.000734
Al 3.155867 1.799377 5.012835 -0.000119 -0.000115 0.000747
Al 3.166171 1.796535 -5.315578 -0.000039 0.000225 0.000949
Ga 3.170740 1.799591 -0.146388 -0.000410 0.000162 -0.000591
Ga 6.363883 -3.725160 5.044868 -0.000306 0.000322 0.000118
Ga 6.378134 -3.726017 -5.332093 -0.000175 0.000136 0.000697
Ga 6.356592 -3.732574 -0.155769 0.000140 -0.000018 -0.000853
Ga 4.765940 -0.951229 5.006218 -0.000650 0.000034 0.000515
Al 4.787013 -0.957227 -5.322632 -0.000067 -0.000230 -0.000018
Ga 4.769802 -0.955013 -0.119741 -0.000506 0.000300 -0.000914
Ga -3.227952 1.788102 5.007491 -0.000318 0.000065 0.000976
Ga -3.215008 1.781373 -5.323731 -0.000253 0.000178 0.000454
Al -3.216384 1.800890 -0.123352 -0.000327 0.000271 -0.000219
Ga -0.039239 -3.716363 5.018987 -0.000010 0.000542 0.000064
Ga -0.031050 -3.727304 -5.300999 -0.000191 -0.000026 0.000289
Ga -0.017090 -3.717741 -0.153542 -0.000450 0.000238 -0.000852
Al -1.623579 -0.948711 5.014765 -0.000248 -0.000045 0.000831
Al -1.620835 -0.957382 -5.323944 -0.000677 -0.000001 0.000755
Ga -1.606691 -0.954894 -0.132483 -0.000544 0.000229 -0.000469
N 1.604309 0.910579 4.357793 0.000645 -0.000163 -0.000523
N 1.621882 0.905283 -5.981722 0.000697 -0.000465 -0.000615
N 1.568705 0.882066 -0.819109 0.000459 -0.000100 -0.000179
N -0.027843 3.645010 4.343334 0.000543 -0.000282 -0.000370
N -0.020737 3.636914 -5.992711 0.000306 -0.000128 -0.000208
N -0.067101 3.662314 -0.805411 -0.000068 -0.000171 -0.000340
N 3.166334 -1.881802 4.335267 0.000298 -0.000406 -0.000390
N 3.219418 -1.861259 -5.906330 0.000259 -0.000240 -0.000390
N 3.175555 -1.926080 -0.740516 0.000309 -0.000544 -0.000440
N -4.867010 0.911194 4.361696 0.000392 0.000211 -0.000647
N -4.859717 0.857984 -5.901156 0.000294 0.000141 -0.000549
N -4.774294 0.905859 -0.758364 0.000598 -0.000089 -0.000823
N -6.425756 3.599109 4.419618 0.000065 -0.000141 -0.000440
N -6.405825 3.587696 -5.974202 0.000167 -0.000065 -0.000509
N -6.414222 3.640266 -0.827303 0.000146 -0.000015 -0.000135
N -3.175613 -1.861393 4.420240 0.000179 -0.000375 -0.000325
N -3.202590 -1.835237 -5.955849 0.000182 0.000083 -0.000503
N -3.211007 -1.874850 -0.769976 0.000238 -0.000276 -0.000615
N -1.630587 0.839175 4.353637 0.000809 -0.000079 -0.000544
N -1.612734 0.831404 -5.977296 0.000860 -0.000301 -0.000532
N -1.661793 0.907109 -0.744095 0.000338 -0.000256 -0.000709
N -3.228094 3.648344 4.387014 -0.000019 -0.000625 -0.000608
N -3.215605 3.648002 -5.924403 -0.000013 -0.000307 -0.000591
N -3.176854 3.620779 -0.705725 -0.000017 -0.000512 -0.000369
N -0.070951 -1.850068 4.374735 0.000440 -0.000593 -0.000457
N -0.056186 -1.855422 -5.917382 0.000545 -0.000560 -0.000263
N -0.022338 -1.872706 -0.834453 0.000312 -0.000737 -0.000125
N -0.025075 1.801508 1.864256 -0.000018 0.000043 0.000495
N -0.033424 1.799900 7.012203 -0.000302 0.000437 -0.000633
N 0.022216 1.822521 -3.331772 -0.000195 0.000313 -0.000814
N 3.222498 -3.702254 1.786788 -0.000359 0.000326 0.000383
N 3.213321 -3.744330 6.983352 0.000065 0.000058 -0.000725
N 3.224908 -3.756051 -3.327168 -0.000203 0.000259 -0.000453
N 1.568332 -0.959034 1.863626 -0.000239 0.000263 0.000597
N 1.572833 -0.911008 6.987072 -0.000607 0.000112 -0.000547
N 1.545249 -0.934930 -3.319473 -0.000469 0.000271 -0.000282
N 3.161041 1.754677 1.833009 -0.000165 -0.000102 0.000679
N 3.118343 1.824973 6.940799 -0.000294 0.000203 -0.000683
N 3.127833 1.823153 -3.383318 -0.000553 0.000229 -0.000574
N 6.324276 -3.748765 1.821607 0.000131 0.000053 0.000488
N 6.358967 -3.719072 7.038371 -0.000026 0.000217 -0.000016
N 6.370011 -3.775692 -3.337443 0.000091 -0.000063 -0.000795
N 4.729283 -0.935018 1.859698 -0.000451 -0.000037 0.000585
N 4.803671 -0.979277 6.984842 0.000005 -0.000072 -0.000449
N 4.778158 -0.963875 -3.408402 -0.000450 -0.000042 -0.000295
N -3.223752 1.749249 1.803989 -0.000384 -0.000152 0.000350
N -3.187816 1.775001 6.991104 -0.000275 -0.000016 -0.000431
N -3.208043 1.801919 -3.355400 -0.000385 0.000312 -0.000358
N -0.031086 -3.665840 1.829488 -0.000112 -0.000107 0.000581
N -0.071380 -3.740979 6.996394 -0.000355 -0.000013 -0.000132
N -0.054411 -3.706290 -3.310574 -0.000409 0.000178 -0.000189
N -1.573905 -0.936911 1.844501 -0.000330 -0.000065 0.000329
N -1.666026 -0.930597 6.942334 -0.000834 0.000190 -0.000591
N -1.572746 -0.978302 -3.402824 -0.000463 0.000162 -0.000628
