108
Energy=-1.306398e+06 Lattice="9.499132e+00 0.000000e+00 0.000000e+00 -4.750041e+00 8.224282e+00 0.000000e+00 6.953057e-06 5.623706e-04 1.532234e+01" Stress="-1.921234e-04 -7.836088e-06 9.015381e-05 -1.149328e-05 -6.644270e-04 2.879875e-05 5.046277e-05 2.452000e-05 -1.788822e-04" Properties=species:S:1:pos:R:3:forces:R:3 Config_type=AlGaN_super3_19_1_21.xyz
Al 1.558866e+00 8.864177e-01 2.374181e+00 -2.016536e-05 -3.094490e-04 4.461057e-04
Al 1.554325e+00 8.765923e-01 7.520652e+00 -4.552540e-05 2.695652e-04 -6.058018e-05
Al 1.544206e+00 8.780078e-01 -2.683149e+00 -1.545413e-04 -2.666217e-04 -1.128189e-05
Al -2.963256e-02 3.605148e+00 2.389415e+00 -7.137476e-05 8.062952e-05 -2.468159e-04
Al -2.814918e-02 3.602119e+00 7.526928e+00 1.565936e-04 1.602385e-04 -1.705415e-04
Al -1.787946e-02 3.606472e+00 -2.704023e+00 -3.603056e-04 2.059966e-04 -6.298797e-05
Al 3.152163e+00 -1.869424e+00 2.394128e+00 -6.187728e-05 -3.721631e-04 9.618154e-05
Al 3.153833e+00 -1.859251e+00 7.525477e+00 -5.515548e-04 -3.728871e-04 1.665817e-04
Ga 3.139521e+00 -1.874308e+00 -2.706425e+00 -1.753621e-04 -1.474945e-05 -3.566733e-05
Al -4.769245e+00 8.791893e-01 2.397190e+00 1.658367e-04 3.172878e-04 1.137988e-04
Al -4.776434e+00 8.639805e-01 7.490661e+00 2.392727e-04 7.862425e-05 4.181751e-05
Ga -4.773185e+00 8.740336e-01 -2.671639e+00 6.871236e-05 1.205324e-04 1.035627e-04
Al -6.357040e+00 3.603939e+00 2.404180e+00 -3.974071e-04 -2.769490e-05 5.822945e-04
Ga -6.354121e+00 3.608430e+00 7.513745e+00 3.373287e-05 6.915037e-05 5.526396e-05
Al -6.377470e+00 3.620359e+00 -2.692492e+00 3.508398e-05 -7.238373e-04 -4.400322e-04
Al -3.192638e+00 -1.858595e+00 2.412859e+00 5.580064e-04 6.405290e-04 -2.335443e-04
Ga -3.212042e+00 -1.863134e+00 7.512114e+00 6.015831e-05 1.849728e-05 2.883859e-04
Al -3.181065e+00 -1.874943e+00 -2.704306e+00 4.192444e-04 -2.233422e-05 3.384116e-04
Al -1.605879e+00 8.832735e-01 2.398792e+00 -2.277678e-04 1.800952e-04 8.906002e-05
Ga -1.600478e+00 8.957836e-01 7.487403e+00 4.038629e-04 -2.379377e-04 2.013467e-04
Al -1.587830e+00 8.728641e-01 -2.672691e+00 -4.991833e-05 -8.075009e-05 3.536427e-06
Al -3.180640e+00 3.604723e+00 2.401035e+00 3.672261e-04 -3.194929e-04 5.862908e-05
Al -3.185312e+00 3.613402e+00 7.495805e+00 -6.382783e-05 4.868138e-05 -2.025019e-04
Ga -3.171793e+00 3.615285e+00 -2.675033e+00 2.756680e-04 -9.062414e-05 -1.846420e-04
Ga -2.611069e-02 -1.859910e+00 2.401457e+00 -6.810506e-05 1.401364e-04 3.198161e-05
Ga -7.763943e-03 -1.868305e+00 7.501739e+00 -4.714390e-06 -2.030094e-04 2.122753e-04
Al -2.619924e-02 -1.848887e+00 -2.676061e+00 3.098645e-04 6.923711e-04 4.341079e-06
Al -3.069609e-02 1.785348e+00 4.935144e+00 5.609397e-04 -7.090173e-04 -2.694472e-04
Al -1.255973e-02 1.796718e+00 -5.232752e+00 -2.610407e-04 -1.666977e-04 -7.796102e-05
Al -3.021866e-02 1.781723e+00 -1.538927e-01 -1.944374e-05 3.382641e-05 3.961324e-04
Ga 3.143004e+00 -3.703044e+00 4.958731e+00 -2.516752e-04 1.330364e-04 1.614774e-04
Al 3.160088e+00 -3.692265e+00 -5.285914e+00 2.885790e-04 2.315249e-04 2.291947e-04
Al 3.147098e+00 -3.704632e+00 -1.202651e-01 7.176833e-05 -3.531095e-05 2.204754e-04
Ga 1.566439e+00 -9.451041e-01 4.953835e+00 -2.838405e-04 3.680946e-04 1.568003e-05
Al 1.571233e+00 -9.436280e-01 -5.254110e+00 -2.657474e-04 -3.691849e-04 3.167193e-04
Al 1.558148e+00 -9.397001e-01 -1.405299e-01 -7.324858e-05 -1.948233e-04 -2.132459e-04
Ga 3.147343e+00 1.779713e+00 4.949035e+00 -1.145724e-05 -5.995437e-05 3.643060e-05
Ga 3.126963e+00 1.770980e+00 -5.254573e+00 1.243717e-04 -5.655907e-05 8.933958e-05
Al 3.130891e+00 1.784914e+00 -1.337561e-01 6.726199e-05 -1.218858e-04 1.570990e-04
Ga 6.306190e+00 -3.690197e+00 4.932942e+00 1.943904e-04 -4.320912e-05 1.671779e-04
Al 6.285037e+00 -3.698413e+00 -5.230556e+00 -9.407379e-05 -8.951796e-06 -1.891527e-05
Ga 6.300594e+00 -3.700307e+00 -1.408877e-01 3.607227e-05 2.341120e-05 3.894249e-04
Al 4.734276e+00 -9.434151e-01 4.934554e+00 1.385289e-04 1.029870e-04 -4.641598e-05
Al 4.718037e+00 -9.638748e-01 -5.253944e+00 -2.244445e-04 -8.864795e-05 1.693081e-04
Ga 4.728325e+00 -9.532420e-01 -1.232797e-01 -1.309156e-04 1.783745e-05 3.710272e-04
Al -3.190270e+00 1.783633e+00 4.931869e+00 1.464431e-04 2.504703e-04 5.279448e-05
Ga -3.183437e+00 1.787213e+00 -5.261748e+00 1.000238e-04 -9.456135e-05 2.899332e-04
Al -3.170819e+00 1.784499e+00 -1.156188e-01 -1.455928e-05 -3.470192e-04 1.521232e-04
Al -1.666079e-02 -3.703358e+00 4.938214e+00 -6.152965e-05 -1.714420e-04 -9.189788e-05
Ga -1.248224e-02 -3.687784e+00 -5.226857e+00 5.580087e-05 1.033728e-04 1.261936e-04
Ga -1.897380e-02 -3.695797e+00 -1.438114e-01 5.037108e-05 2.111675e-04 7.587446e-05
Al -1.615562e+00 -9.389863e-01 4.934033e+00 -3.600653e-05 7.549401e-05 3.345850e-05
Ga -1.604091e+00 -9.498703e-01 -5.221268e+00 4.743133e-05 1.047683e-04 1.910771e-04
Al -1.602854e+00 -9.330816e-01 -1.540555e-01 -8.785857e-05 8.525531e-05 -2.393685e-04
N 1.518503e+00 8.989712e-01 4.285177e+00 -3.677036e-04 2.057505e-04 -3.171865e-04
N 1.508519e+00 8.526142e-01 -5.883982e+00 -1.865795e-05 2.903376e-04 -1.032845e-04
N 1.557486e+00 8.757025e-01 -7.539878e-01 9.403807e-05 -4.311005e-05 9.666268e-05
N -3.012956e-02 3.565820e+00 4.293112e+00 -4.840143e-05 1.278213e-04 -9.290063e-05
N -1.641415e-02 3.604945e+00 -5.866326e+00 -2.636670e-05 -8.800612e-05 -1.914578e-05
N -6.911295e-02 3.592831e+00 -7.781369e-01 1.039497e-05 -1.090396e-04 -1.226783e-04
N 3.184353e+00 -1.849051e+00 4.303576e+00 -1.244897e-04 -2.104646e-04 -2.093572e-04
N 3.145796e+00 -1.861471e+00 -5.864994e+00 -6.919412e-05 -7.252472e-06 -1.987139e-05
N 3.102327e+00 -1.896386e+00 -7.234735e-01 -9.393235e-06 8.351909e-05 -1.158608e-04
N -4.732739e+00 8.549812e-01 4.313731e+00 -8.677367e-05 -1.397621e-04 2.716955e-05
N -4.771199e+00 8.228307e-01 -5.911374e+00 6.917617e-05 2.034681e-05 -2.278912e-04
N -4.770715e+00 9.236024e-01 -6.975745e-01 2.209653e-04 4.668991e-05 -3.281905e-05
N -6.316076e+00 3.632723e+00 4.311426e+00 -1.103982e-04 1.177301e-04 -5.474518e-04
N -6.395746e+00 3.643911e+00 -5.835630e+00 -1.649800e-04 8.308735e-05 2.121236e-05
N -6.362601e+00 3.567980e+00 -7.856261e-01 -4.932611e-05 8.139012e-05 7.010437e-05
N -3.187816e+00 -1.816637e+00 4.323103e+00 -6.893887e-05 3.620065e-05 -3.368518e-06
N -3.227309e+00 -1.890341e+00 -5.826329e+00 4.055477e-05 -2.083923e-04 -2.259508e-05
N -3.151486e+00 -1.845609e+00 -7.919630e-01 -4.114563e-05 6.236710e-05 -2.422712e-04
N -1.605591e+00 8.799326e-01 4.331154e+00 2.905299e-04 -9.720711e-05 -2.125786e-05
N -1.557002e+00 8.983303e-01 -5.862406e+00 2.470060e-04 1.164455e-04 -3.707482e-06
N -1.606398e+00 8.808668e-01 -7.512514e-01 1.221465e-04 -7.168633e-05 -6.049514e-05
N -3.223120e+00 3.591572e+00 4.317792e+00 1.457451e-04 2.235885e-05 2.700511e-05
N -3.154080e+00 3.639200e+00 -5.910371e+00 -2.840311e-04 -1.728823e-04 -2.693849e-04
N -3.140301e+00 3.589083e+00 -7.056505e-01 -1.061352e-04 9.878208e-05 -4.349904e-06
N -6.184433e-02 -1.885225e+00 4.376543e+00 1.465210e-04 -1.577060e-04 -8.574438e-05
N 1.597782e-02 -1.842900e+00 -5.849526e+00 1.524585e-04 6.928377e-05 -1.190654e-04
N -1.859546e-02 -1.813730e+00 -7.570731e-01 2.031753e-05 -2.323010e-06 -5.882885e-05
N -2.687987e-02 1.786387e+00 1.769913e+00 6.188343e-06 9.190756e-05 -5.619978e-04
N 2.481693e-02 1.814761e+00 6.856602e+00 -1.561796e-04 2.813633e-04 2.671044e-04
N -2.063002e-02 1.786399e+00 -3.301585e+00 -1.084994e-04 1.008739e-04 -3.677561e-05
N 3.146206e+00 -3.696184e+00 1.798657e+00 3.803019e-05 2.730424e-05 -1.228829e-04
N 3.149683e+00 -3.692567e+00 6.953556e+00 2.102169e-04 3.150194e-05 1.309596e-04
N 3.186723e+00 -3.721743e+00 -3.370090e+00 2.221756e-04 -1.845453e-04 2.193631e-05
N 1.603903e+00 -9.307598e-01 1.773080e+00 -4.945090e-04 8.067329e-04 -2.121617e-05
N 1.611085e+00 -9.251707e-01 6.929359e+00 7.939946e-05 -1.317821e-04 1.889871e-05
N 1.520971e+00 -9.241872e-01 -3.327673e+00 -1.357890e-04 -4.621048e-05 2.974370e-05
N 3.142406e+00 1.790065e+00 1.789553e+00 4.697062e-05 -3.880776e-06 -2.010652e-04
N 3.138253e+00 1.738034e+00 6.929581e+00 -1.233566e-05 -1.690736e-04 6.825580e-05
N 3.099492e+00 1.803036e+00 -3.275712e+00 3.746803e-05 6.568411e-04 1.375412e-04
N 6.308463e+00 -3.691319e+00 1.846410e+00 2.486769e-04 -2.500754e-04 -2.628074e-04
N 6.263962e+00 -3.719611e+00 6.903453e+00 -2.084563e-04 -8.295115e-05 9.437165e-05
N 6.302096e+00 -3.696741e+00 -3.303558e+00 1.677761e-04 -3.937194e-05 5.981413e-05
N 4.729891e+00 -9.528266e-01 1.847692e+00 1.778501e-04 -3.397403e-04 -4.617876e-04
N 4.682145e+00 -9.329971e-01 6.859251e+00 8.522765e-05 1.691618e-04 -1.705319e-04
N 4.765113e+00 -9.725667e-01 -3.339820e+00 -1.174468e-04 1.509374e-04 -1.420317e-04
N -3.182641e+00 1.785854e+00 1.802069e+00 -9.075537e-05 8.551871e-05 1.986590e-05
N -3.233848e+00 1.811543e+00 6.860818e+00 -9.299420e-05 6.749918e-05 -1.400694e-04
N -3.147062e+00 1.761891e+00 -3.292645e+00 2.135938e-04 -4.006513e-05 9.641397e-05
N -2.232866e-02 -3.741369e+00 1.825567e+00 -1.016011e-04 9.162548e-05 -3.227765e-04
N 1.771639e-02 -3.721400e+00 6.852166e+00 1.516014e-04 -1.531308e-05 -9.799609e-05
N -5.762645e-02 -3.669127e+00 -3.246458e+00 -1.601979e-04 -9.394886e-05 1.440658e-04
N -1.648826e+00 -9.232352e-01 1.766494e+00 -5.045425e-04 -6.272167e-04 3.170676e-04
N -1.610980e+00 -9.526125e-01 6.841773e+00 -2.254107e-04 1.373925e-04 -3.789853e-04
N -1.603328e+00 -9.480954e-01 -3.242026e+00 -1.673328e-04 -8.352923e-05 1.035786e-04
