108
Energy=-1.169072e+06 Lattice="9.482262e+00 0.000000e+00 0.000000e+00 -4.744364e+00 8.213578e+00 0.000000e+00 -8.099275e-04 2.378208e-03 1.528002e+01" Stress="2.298104e-04 -2.252165e-04 -2.252027e-05 -2.355115e-04 5.267895e-04 1.482544e-04 -1.582988e-05 1.484902e-04 -3.730786e-04" Properties=species:S:1:pos:R:3:forces:R:3 Config_type=AlGaN_super3_16_0_30.xyz
Al 1.553865e+00 8.720369e-01 2.409410e+00 4.418955e-05 1.470919e-04 5.971241e-05
Al 1.559640e+00 8.683617e-01 7.483780e+00 -1.933618e-05 -9.724707e-05 5.096762e-05
Al 1.542074e+00 8.819330e-01 -2.704788e+00 3.356364e-05 1.636989e-04 1.319167e-05
Al -2.266804e-02 3.614198e+00 2.377761e+00 4.893287e-05 -3.291089e-05 2.137953e-05
Al -2.448580e-02 3.609494e+00 7.485460e+00 -8.899721e-05 1.126986e-04 -1.008145e-04
Al -1.410873e-02 3.594940e+00 -2.673086e+00 4.711552e-05 -1.658663e-06 3.035687e-05
Al 3.136714e+00 -1.870581e+00 2.400022e+00 2.346638e-05 2.580537e-05 7.394118e-05
Al 3.130668e+00 -1.860502e+00 7.468736e+00 3.873963e-05 -3.110291e-05 -2.173262e-04
Al 3.140659e+00 -1.862121e+00 -2.672378e+00 7.198615e-05 6.116921e-05 1.274842e-04
Al -4.762490e+00 8.738081e-01 2.381656e+00 6.810773e-05 -4.036855e-05 4.515488e-05
Al -4.781893e+00 8.701407e-01 7.497533e+00 -1.655005e-04 -1.246628e-04 1.086347e-04
Ga -4.779514e+00 8.640733e-01 -2.677780e+00 3.971774e-05 2.236971e-06 -6.007708e-06
Al -6.348468e+00 3.617559e+00 2.408347e+00 2.804329e-05 -4.444336e-05 1.532955e-05
Ga -6.349913e+00 3.603562e+00 7.482809e+00 6.079539e-05 9.796210e-05 4.366662e-05
Al -6.355197e+00 3.615895e+00 -2.698533e+00 -1.503368e-05 8.298410e-05 4.362604e-05
Al -3.186015e+00 -1.874645e+00 2.384084e+00 6.636632e-05 2.105403e-05 -1.775526e-06
Ga -3.185201e+00 -1.864203e+00 7.512252e+00 -2.475664e-05 1.682474e-05 6.414275e-05
Ga -3.186623e+00 -1.873637e+00 -2.700351e+00 7.041038e-06 2.375001e-05 6.198874e-05
Al -1.599864e+00 8.813010e-01 2.378272e+00 4.183489e-05 -1.635902e-05 1.743729e-05
Al -1.588373e+00 8.725902e-01 7.507907e+00 1.396594e-04 -2.172702e-05 1.657679e-04
Al -1.576496e+00 8.769717e-01 -2.686928e+00 3.822234e-05 -4.230018e-05 -9.889689e-06
Al -3.182727e+00 3.616837e+00 2.380480e+00 -1.083645e-05 -8.189708e-05 5.414044e-05
Ga -3.179649e+00 3.625608e+00 7.482302e+00 8.876981e-05 4.474936e-05 -1.162489e-05
Ga -3.190801e+00 3.624629e+00 -2.664457e+00 -5.664795e-05 -2.475010e-05 3.311404e-05
Al -1.517554e-02 -1.869541e+00 2.405596e+00 1.382185e-04 -5.341496e-05 6.793260e-05
Al -1.178817e-02 -1.854952e+00 7.485874e+00 7.267049e-05 -1.266421e-04 3.225904e-06
Al -2.220962e-02 -1.864682e+00 -2.694898e+00 -1.842370e-04 -2.287768e-05 4.094144e-05
Ga -1.101860e-02 1.798018e+00 4.942083e+00 -1.542046e-05 1.008163e-04 5.362400e-05
Al -1.214572e-02 1.789395e+00 -5.247890e+00 -9.987947e-05 -7.200139e-05 1.052551e-04
Al -2.789370e-02 1.800372e+00 -1.398793e-01 3.020956e-05 1.041144e-04 1.411562e-04
Al 3.142309e+00 -3.683303e+00 4.921041e+00 -1.722094e-04 1.070518e-05 -1.561863e-04
Ga 3.161965e+00 -3.684465e+00 -5.227384e+00 -8.450350e-05 6.333827e-05 1.222983e-04
Al 3.151444e+00 -3.693149e+00 -1.375878e-01 -3.056639e-05 9.393747e-05 -6.586779e-05
Al 1.561842e+00 -9.605640e-01 4.939580e+00 -1.174815e-04 9.326272e-05 3.758441e-05
Ga 1.557148e+00 -9.482139e-01 -5.240940e+00 -7.722371e-05 1.074442e-05 7.147628e-05
Ga 1.562897e+00 -9.561941e-01 -1.454581e-01 -1.359472e-04 -5.962558e-06 3.110028e-05
Al 3.133943e+00 1.789032e+00 4.923409e+00 3.405058e-05 -1.363794e-04 -2.803790e-04
Al 3.128932e+00 1.791677e+00 -5.237154e+00 -5.380135e-05 -1.332236e-04 3.392340e-04
Ga 3.129938e+00 1.801880e+00 -1.309798e-01 9.656947e-05 7.411483e-05 -1.409099e-04
Al 6.298815e+00 -3.698847e+00 4.919454e+00 4.550572e-05 -1.309609e-04 1.830850e-05
Al 6.301676e+00 -3.703190e+00 -5.227517e+00 1.936184e-04 2.906755e-04 1.610545e-04
Al 6.295573e+00 -3.699073e+00 -1.394335e-01 -4.333123e-05 7.285301e-05 3.037444e-05
Ga 4.707005e+00 -9.568819e-01 4.930845e+00 -1.415579e-04 9.165132e-05 -1.304737e-05
Al 4.712631e+00 -9.522503e-01 -5.254286e+00 -9.687588e-05 1.470551e-04 1.248969e-04
Al 4.716378e+00 -9.648619e-01 -1.146348e-01 2.922092e-04 4.088974e-05 3.952057e-05
Ga -3.192853e+00 1.796709e+00 4.937081e+00 -8.203197e-06 7.851752e-05 3.638283e-05
Ga -3.186021e+00 1.770683e+00 -5.243325e+00 7.304828e-05 -5.718189e-05 1.005358e-04
Al -3.173828e+00 1.791199e+00 -1.273920e-01 -1.476665e-04 2.766992e-06 2.102411e-05
Al -2.094817e-02 -3.685445e+00 4.914275e+00 3.830619e-06 -2.202249e-05 -9.266491e-06
Al -4.503503e-02 -3.681260e+00 -5.230469e+00 -5.014357e-05 1.119005e-04 -2.253007e-04
Al -2.863257e-02 -3.693377e+00 -1.266449e-01 -1.408177e-04 -1.866016e-04 3.754714e-05
Ga -1.589825e+00 -9.642304e-01 4.932542e+00 -1.789354e-04 6.220139e-06 7.265018e-05
Al -1.594319e+00 -9.546661e-01 -5.236397e+00 5.734913e-05 2.182650e-04 2.464981e-04
Ga -1.604246e+00 -9.502830e-01 -1.354172e-01 -1.504266e-04 2.191974e-05 1.185517e-04
N 1.593144e+00 8.463267e-01 4.322467e+00 5.729054e-05 4.958723e-05 7.047384e-05
N 1.560770e+00 9.183835e-01 -5.872822e+00 1.680299e-04 -5.579451e-05 -4.622543e-05
N 1.512716e+00 9.015835e-01 -7.926411e-01 1.196573e-04 -4.900692e-05 -1.979240e-05
N -2.525717e-02 3.657106e+00 4.293067e+00 -3.876370e-05 -6.586035e-06 -6.113699e-06
N 1.885271e-02 3.589377e+00 -5.876832e+00 -1.076419e-04 1.227452e-05 -1.403991e-04
N -2.070552e-02 3.607756e+00 -7.467076e-01 -3.486726e-05 2.603382e-05 -8.193788e-05
N 3.095977e+00 -1.888760e+00 4.311896e+00 1.031512e-04 -5.143389e-05 -1.934643e-04
N 3.172405e+00 -1.846758e+00 -5.903636e+00 4.706868e-05 5.721533e-06 3.433572e-06
N 3.185132e+00 -1.886083e+00 -7.592150e-01 -1.865300e-04 -2.413036e-04 -7.825375e-05
N -4.802160e+00 8.959158e-01 4.285777e+00 -1.031734e-05 4.547208e-05 7.724163e-05
N -4.814386e+00 8.533499e-01 -5.864881e+00 -3.403525e-06 1.783326e-05 -1.039618e-04
N -4.727023e+00 8.455503e-01 -6.997429e-01 7.495373e-05 3.546264e-05 3.250328e-05
N -6.346840e+00 3.612251e+00 4.330597e+00 -2.058417e-07 7.074685e-06 -2.207087e-05
N -6.347398e+00 3.609450e+00 -5.810587e+00 8.537496e-05 1.514776e-04 -7.188622e-05
N -6.346003e+00 3.661672e+00 -7.768730e-01 1.886815e-04 -2.996366e-06 -1.379234e-04
N -3.183005e+00 -1.912483e+00 4.293079e+00 1.667641e-05 6.711385e-05 -3.903282e-05
N -3.180245e+00 -1.870284e+00 -5.780228e+00 7.801202e-05 -2.987754e-04 -1.002224e-04
N -3.226090e+00 -1.889453e+00 -7.185041e-01 -5.348639e-05 3.047361e-05 -1.522468e-05
N -1.601056e+00 8.792857e-01 4.276858e+00 1.380797e-04 -8.212851e-05 4.969071e-05
N -1.556058e+00 8.482055e-01 -5.860393e+00 -1.858284e-05 5.833990e-05 -1.693785e-04
N -1.598567e+00 9.222250e-01 -7.649717e-01 4.116721e-06 -4.027773e-05 -1.320967e-04
N -3.182382e+00 3.658310e+00 4.304438e+00 1.099562e-04 1.106476e-05 -2.296122e-05
N -3.225822e+00 3.643014e+00 -5.824957e+00 4.440412e-05 -1.216039e-04 -1.282229e-04
N -3.190054e+00 3.615732e+00 -6.805802e-01 2.557621e-04 -1.424986e-05 2.714390e-05
N 2.404264e-02 -1.886825e+00 4.311581e+00 3.451395e-05 1.472372e-05 -1.048137e-04
N -5.982108e-02 -1.889858e+00 -5.873884e+00 9.311590e-05 -2.586935e-04 6.257250e-05
N -2.365638e-02 -1.915785e+00 -7.865530e-01 3.176940e-05 9.777076e-05 -1.089230e-04
N -1.614384e-02 1.786578e+00 1.782456e+00 -9.263608e-05 2.817431e-05 -4.702908e-05
N -2.169946e-02 1.788274e+00 6.924192e+00 -2.037565e-04 -4.631753e-05 8.680330e-06
N -2.450415e-02 1.791306e+00 -3.317944e+00 -2.398695e-05 5.993951e-05 -7.652167e-05
N 3.143944e+00 -3.687017e+00 1.781525e+00 -3.396848e-05 6.496046e-05 -4.274613e-05
N 3.185105e+00 -3.667721e+00 6.844114e+00 1.090054e-04 2.542853e-05 2.790539e-04
N 3.186276e+00 -3.667670e+00 -3.249775e+00 -2.776270e-05 1.261177e-06 -7.652668e-05
N 1.559167e+00 -9.497742e-01 1.832469e+00 -9.002404e-05 -1.083203e-04 -3.496140e-05
N 1.555721e+00 -9.499497e-01 6.872663e+00 -7.039682e-05 6.315016e-05 -6.159454e-06
N 1.561253e+00 -9.537255e-01 -3.249876e+00 1.227129e-04 -3.447792e-05 -2.257367e-05
N 3.130267e+00 1.792069e+00 1.843365e+00 -1.166766e-04 1.024617e-04 -1.498856e-06
N 3.136763e+00 1.739377e+00 6.845173e+00 6.305157e-05 4.571996e-05 1.094586e-04
N 3.095919e+00 1.809608e+00 -3.314281e+00 -2.459261e-05 -1.899571e-04 -1.606600e-04
N 6.305033e+00 -3.696896e+00 1.780086e+00 -3.074814e-05 -6.661284e-06 -2.886131e-05
N 6.259448e+00 -3.710101e+00 6.833259e+00 -2.172526e-05 2.769703e-05 -6.369344e-05
N 6.292422e+00 -3.743861e+00 -3.314226e+00 -2.779236e-05 -5.784412e-05 -9.678874e-05
N 4.714370e+00 -9.565406e-01 1.800836e+00 4.146808e-05 -4.207089e-05 1.881372e-05
N 4.683059e+00 -9.272700e-01 6.905029e+00 -5.669349e-05 -1.046517e-04 -2.302659e-05
N 4.670851e+00 -9.749822e-01 -3.346551e+00 -1.093784e-04 -5.120789e-05 -1.195240e-04
N -3.181245e+00 1.787976e+00 1.789123e+00 4.144291e-05 -4.181863e-05 -2.210146e-05
N -3.184224e+00 1.736622e+00 6.922282e+00 5.959987e-05 3.276750e-05 -5.123444e-05
N -3.144820e+00 1.761573e+00 -3.274029e+00 3.418431e-05 7.304103e-06 5.460098e-05
N -2.891151e-02 -3.688347e+00 1.794320e+00 2.524509e-05 -4.096221e-07 -6.236699e-05
N -2.534383e-02 -3.639735e+00 6.826115e+00 1.942202e-05 2.404469e-05 -5.033562e-05
N -6.411832e-02 -3.664539e+00 -3.318492e+00 -1.299343e-04 -8.578019e-05 2.273759e-04
N -1.596493e+00 -9.534756e-01 1.841704e+00 -2.739736e-04 7.711752e-05 -5.485440e-05
N -1.563484e+00 -9.273974e-01 6.910394e+00 -3.778790e-05 1.122308e-05 -5.583519e-05
N -1.559256e+00 -9.240174e-01 -3.312652e+00 4.539165e-05 -1.363837e-04 -1.365268e-05
