108
Energy=-894419.015074 Lattice="9.450047 0.000000 0.000000 -4.727926 8.181927 0.000000 -0.003912 -0.002279 15.203475" Stress="0.000002 -0.000001 -0.000001 -0.000001 -0.000001 -0.000000 -0.000001 -0.000000 0.000003" Properties=species:S:1:pos:R:3:forces:R:3
Al 1.562322 0.883103 2.382648 -0.000051 -0.000039 -0.000084
Al 1.564809 0.872056 7.452657 0.000057 -0.000111 0.000043
Al 1.551885 0.882702 -2.675730 0.000020 0.000039 -0.000007
Al -0.018071 3.603518 2.372786 -0.000110 0.000051 -0.000095
Al -0.026101 3.607170 7.452339 -0.000017 0.000058 -0.000010
Al -0.033134 3.586873 -2.670391 0.000049 0.000039 -0.000040
Al 3.147374 -1.857509 2.403287 0.000083 0.000003 0.000066
Al 3.136364 -1.858875 7.447289 -0.000009 0.000027 -0.000018
Al 3.137778 -1.857278 -2.697815 0.000049 -0.000113 0.000040
Al -4.754150 0.864257 2.381959 0.000023 -0.000033 0.000017
Al -4.754761 0.866366 7.437084 0.000047 0.000018 -0.000005
Al -4.748260 0.871481 -2.670673 0.000008 0.000027 -0.000027
Al -6.338384 3.586166 2.388072 -0.000031 -0.000040 0.000023
Al -6.330109 3.588500 7.426731 0.000027 0.000010 0.000046
Al -6.317929 3.584807 -2.657210 0.000001 -0.000061 -0.000017
Al -3.183633 -1.859837 2.378955 -0.000015 0.000040 0.000023
Al -3.190115 -1.862449 7.439246 0.000022 0.000040 -0.000059
Ga -3.186349 -1.849713 -2.658641 0.000006 -0.000007 0.000022
Al -1.605010 0.871280 2.377469 -0.000008 -0.000006 -0.000067
Ga -1.611910 0.877236 7.469541 0.000031 -0.000032 0.000020
Al -1.595988 0.887411 -2.684962 -0.000020 -0.000026 0.000001
Ga -3.164463 3.589449 2.384896 0.000020 -0.000035 0.000002
Al -3.175747 3.593044 7.450974 0.000028 -0.000003 0.000007
Al -3.168538 3.591643 -2.681882 0.000017 -0.000027 -0.000031
Ga -0.030190 -1.853866 2.402305 0.000004 -0.000023 0.000023
Ga -0.019227 -1.865053 7.454892 0.000027 0.000004 -0.000057
Ga -0.016515 -1.860468 -2.686994 -0.000014 -0.000043 0.000051
Ga -0.022088 1.781514 4.907441 0.000003 0.000025 0.000000
Al -0.028149 1.777802 -5.207167 0.000012 -0.000127 0.000005
Al -0.029746 1.785869 -0.145106 -0.000015 -0.000043 -0.000001
Al 3.129081 -3.667340 4.931087 -0.000035 0.000044 0.000025
Al 3.121164 -3.675767 -5.221745 -0.000012 0.000036 -0.000013
Al 3.137139 -3.676797 -0.162386 -0.000049 -0.000043 0.000092
Al 1.567904 -0.949935 4.917855 0.000006 -0.000091 -0.000093
Al 1.561694 -0.949003 -5.213996 0.000023 0.000161 -0.000116
Ga 1.567741 -0.945869 -0.144066 -0.000086 -0.000025 0.000001
Al 3.134693 1.776921 4.915654 -0.000033 -0.000048 -0.000034
Ga 3.135880 1.773218 -5.212305 -0.000008 0.000022 -0.000018
Al 3.133341 1.786667 -0.148995 -0.000019 -0.000056 -0.000005
Al 6.278574 -3.667883 4.910644 0.000040 0.000010 -0.000006
Ga 6.277482 -3.671360 -5.219321 0.000035 0.000026 0.000004
Al 6.280124 -3.683241 -0.137720 -0.000025 -0.000044 -0.000002
Al 4.703021 -0.949318 4.910671 -0.000066 -0.000012 -0.000024
Al 4.702271 -0.943231 -5.233073 0.000008 0.000015 -0.000105
Al 4.702643 -0.945220 -0.128727 0.000046 0.000007 0.000035
Al -3.186931 1.775588 4.916309 -0.000004 0.000026 -0.000018
Al -3.172140 1.783783 -5.202711 -0.000036 0.000029 0.000034
Al -3.172738 1.774430 -0.163349 0.000015 0.000005 0.000009
Al -0.025724 -3.685363 4.927517 0.000027 -0.000024 0.000028
Al -0.007749 -3.682332 -5.218235 -0.000107 -0.000173 -0.000085
Al -0.026920 -3.691630 -0.148546 0.000033 0.000036 -0.000136
Al -1.614206 -0.953610 4.908724 -0.000013 -0.000044 0.000011
Al -1.600254 -0.940069 -5.212836 -0.000233 -0.000005 0.000010
Al -1.608295 -0.936461 -0.133638 0.000033 0.000023 0.000007
N 1.595440 0.849242 4.291250 0.000061 0.000145 0.000026
N 1.513926 0.848525 -5.836041 -0.000061 -0.000072 0.000080
N 1.549285 0.920876 -0.762892 0.000022 0.000063 -0.000006
N -0.028423 3.649136 4.287766 0.000029 0.000027 0.000030
N -0.065633 3.575530 -5.837640 -0.000013 0.000067 -0.000026
N -0.023562 3.594617 -0.749670 0.000033 -0.000020 0.000030
N 3.132118 -1.863251 4.319353 0.000024 0.000020 0.000036
N 3.130319 -1.858745 -5.830135 -0.000040 -0.000001 0.000026
N 3.177154 -1.879019 -0.785096 -0.000042 0.000025 -0.000047
N -4.750638 0.868734 4.305678 0.000030 0.000030 0.000014
N -4.702210 0.851051 -5.850353 0.000024 -0.000021 -0.000010
N -4.748504 0.864248 -0.749792 0.000002 -0.000009 0.000019
N -6.327642 3.594754 4.313283 0.000007 -0.000008 0.000007
N -6.282602 3.619268 -5.870552 0.000038 0.000032 -0.000036
N -6.324074 3.597504 -0.745652 -0.000022 -0.000024 0.000040
N -3.177561 -1.860016 4.301094 0.000000 0.000022 -0.000008
N -3.171844 -1.810252 -5.848290 0.000080 0.000049 0.000031
N -3.175749 -1.856001 -0.683572 -0.000029 0.000003 -0.000064
N -1.643211 0.849185 4.290807 0.000019 0.000029 0.000012
N -1.601030 0.875318 -5.760755 0.000091 0.000002 -0.000008
N -1.594522 0.872009 -0.760471 0.000038 -0.000064 0.000018
N -3.170452 3.598239 4.361793 -0.000013 -0.000043 0.000001
N -3.170758 3.594311 -5.825531 0.000028 -0.000006 0.000042
N -3.171559 3.598701 -0.756334 0.000031 -0.000033 0.000022
N -0.022609 -1.859382 4.380198 -0.000022 0.000074 -0.000058
N -0.020086 -1.857627 -5.762036 0.000191 0.000075 -0.000036
N -0.063037 -1.879431 -0.712705 -0.000030 -0.000076 0.000036
N -0.024956 1.778726 1.783476 0.000014 0.000062 0.000022
N 0.014963 1.801194 6.877144 -0.000038 0.000042 -0.000033
N -0.019839 1.782707 -3.285319 -0.000013 0.000012 0.000038
N 3.169079 -3.647107 1.752255 0.000095 -0.000116 -0.000072
N 3.126907 -3.676015 6.851908 -0.000006 0.000026 0.000013
N 3.129960 -3.677523 -3.292903 -0.000033 0.000016 0.000011
N 1.600194 -0.927891 1.824975 -0.000090 0.000125 -0.000033
N 1.596468 -0.925108 6.832228 0.000029 0.000053 0.000120
N 1.598940 -0.919120 -3.297811 -0.000073 0.000040 -0.000073
N 3.130115 1.780248 1.773529 -0.000034 0.000001 0.000008
N 3.124756 1.774055 6.837824 0.000032 -0.000003 -0.000035
N 3.130562 1.779597 -3.233546 -0.000003 -0.000025 0.000088
N 6.281441 -3.679535 1.782014 0.000001 -0.000002 0.000006
N 6.272651 -3.676288 6.837784 -0.000015 0.000015 -0.000003
N 6.280526 -3.723334 -3.243779 -0.000113 0.000011 0.000016
N 4.697206 -0.946963 1.788968 0.000003 0.000014 0.000026
N 4.698922 -0.949688 6.833791 -0.000014 0.000031 -0.000015
N 4.665801 -0.919301 -3.318829 -0.000021 0.000008 0.000069
N -3.177227 1.730996 1.750943 0.000018 0.000020 -0.000027
N -3.216547 1.800150 6.825921 -0.000044 0.000007 -0.000037
N -3.177861 1.780747 -3.277533 -0.000009 -0.000002 0.000046
N -0.062928 -3.703800 1.755672 0.000017 0.000003 0.000061
N -0.021787 -3.725965 6.832417 -0.000001 -0.000016 0.000035
N -0.021775 -3.731449 -3.302763 0.000032 -0.000025 0.000050
N -1.639094 -0.923312 1.773932 0.000012 -0.000043 -0.000005
N -1.642622 -0.968837 6.814358 -0.000035 -0.000004 0.000060
N -1.604433 -0.901389 -3.311111 0.000030 -0.000021 0.000024
