108
Energy=-2.771213e+06 Lattice="9.633237e+00 0.000000e+00 0.000000e+00 -4.830445e+00 8.324457e+00 0.000000e+00 -2.344120e-01 2.429678e-01 1.555611e+01" Stress="-2.477532e-02 2.482216e-04 -8.227202e-03 2.571497e-04 -2.609051e-02 8.656903e-03 -8.243182e-03 8.664146e-03 -3.090709e-02" Properties=species:S:1:pos:R:3:forces:R:3 Config_type=AlGaN_super3_51_1_4.xyz
Al 1.476521e+00 9.989158e-01 2.481486e+00 4.515603e-03 -6.131499e-03 -4.441370e-03
Ga 1.449521e+00 1.030854e+00 7.627025e+00 3.616288e-04 -6.371548e-03 -1.004360e-04
Ga 1.671053e+00 7.988123e-01 -2.737404e+00 6.912995e-04 -5.767195e-03 2.240847e-03
Ga -1.230844e-01 3.757161e+00 2.436749e+00 4.926121e-05 -3.120401e-03 3.875917e-03
Al -1.486488e-01 3.789059e+00 7.622630e+00 -1.084977e-04 -4.900812e-04 1.461378e-03
Ga 6.979824e-02 3.566198e+00 -2.757192e+00 -3.237878e-04 -2.844559e-04 -5.538647e-05
Ga 3.094172e+00 -1.780775e+00 2.452382e+00 1.770472e-03 -2.179046e-03 1.116918e-03
Ga 3.083651e+00 -1.771502e+00 7.626934e+00 -5.206970e-04 -3.864691e-04 8.629728e-04
Ga 3.298183e+00 -1.993866e+00 -2.745133e+00 -4.382382e-04 2.350447e-04 9.288230e-04
Ga -4.968530e+00 1.013660e+00 2.451412e+00 3.233873e-03 -6.441854e-03 2.411605e-04
Ga -4.981289e+00 1.028781e+00 7.630688e+00 1.199820e-03 -5.619450e-03 2.413533e-04
Ga -4.762307e+00 8.023453e-01 -2.739637e+00 7.222508e-04 -5.189936e-03 2.163349e-04
Ga -6.566629e+00 3.775738e+00 2.459268e+00 2.144922e-03 -2.298412e-03 1.305215e-03
Ga -6.583983e+00 3.794161e+00 7.619822e+00 7.319776e-04 5.784352e-04 1.339369e-03
Ga -6.361983e+00 3.565055e+00 -2.743838e+00 -9.091176e-05 1.202917e-04 1.279601e-03
Ga -3.339382e+00 -1.780340e+00 2.452310e+00 1.805074e-03 -1.102176e-03 1.406438e-03
Ga -3.356702e+00 -1.767586e+00 7.629236e+00 9.086230e-04 -3.197253e-05 8.975137e-04
Ga -3.131393e+00 -1.991450e+00 -2.747189e+00 -1.468931e-04 6.136912e-04 6.854990e-04
Ga -1.753975e+00 1.009789e+00 2.452386e+00 7.739348e-03 -2.999035e-03 -2.410960e-04
Ga -1.779885e+00 1.038234e+00 7.628783e+00 6.684610e-03 -4.071644e-03 -1.419562e-03
Ga -1.565232e+00 8.054263e-01 -2.748455e+00 6.150489e-03 -3.448935e-03 -1.479545e-03
Ga -3.371242e+00 3.782410e+00 2.457092e+00 7.784101e-03 3.553079e-04 5.800776e-04
Ga -3.381695e+00 3.797802e+00 7.620839e+00 4.893595e-03 2.442925e-03 2.687528e-04
Ga -3.163254e+00 3.569326e+00 -2.746697e+00 5.147662e-03 2.169228e-03 -4.656171e-07
Ga -1.387965e-01 -1.775622e+00 2.460511e+00 8.170715e-03 1.456785e-03 -9.222825e-05
Ga -1.541230e-01 -1.764189e+00 7.620210e+00 5.403847e-03 1.468412e-03 5.390054e-04
Ga 6.662265e-02 -1.986699e+00 -2.741160e+00 5.259318e-03 2.499310e-03 1.549352e-04
Ga -1.337792e-01 1.937956e+00 5.037075e+00 -4.826221e-03 -3.236254e-03 6.277234e-04
Ga 8.320607e-02 1.711377e+00 -5.345476e+00 -5.008988e-03 -2.033349e-03 6.424438e-04
Ga 4.101668e-02 1.752124e+00 -1.716774e-01 -1.899177e-03 -6.195860e-03 1.320994e-02
Ga 3.090679e+00 -3.623163e+00 5.044563e+00 -4.516364e-03 -3.033787e-03 -6.527183e-05
Ga 3.313625e+00 -3.850236e+00 -5.348012e+00 -4.385598e-03 -2.513428e-03 2.359239e-04
Ga 3.293712e+00 -3.827566e+00 -1.504062e-01 -1.201561e-02 3.631710e-03 1.859315e-03
Ga 1.488799e+00 -8.618819e-01 5.040546e+00 -6.030004e-03 3.577388e-03 -1.481187e-03
Ga 1.709616e+00 -1.084064e+00 -5.335506e+00 -5.731989e-03 3.309565e-03 -6.985588e-04
Ga 1.691423e+00 -1.064368e+00 -1.264036e-01 -1.125752e-02 1.087856e-02 9.014381e-04
Ga 3.062893e+00 1.942171e+00 5.035921e+00 -2.613547e-04 -7.394314e-04 1.005544e-03
Ga 3.280114e+00 1.711438e+00 -5.337303e+00 1.547864e-04 -6.001259e-04 1.566460e-03
Ga 3.261356e+00 1.729607e+00 -1.319099e-01 -7.118614e-03 3.154430e-03 3.429501e-03
Ga 6.290712e+00 -3.619094e+00 5.045155e+00 2.334975e-04 -8.420820e-04 1.193105e-03
Ga 6.507712e+00 -3.848133e+00 -5.348092e+00 -2.257906e-04 -5.302906e-04 1.410898e-03
Ga 6.492186e+00 -3.828680e+00 -1.507378e-01 -3.502235e-03 4.797403e-03 3.505436e-03
Ga 4.688311e+00 -8.535017e-01 5.042850e+00 -4.768987e-04 5.267824e-03 1.379500e-04
Ga 4.907891e+00 -1.080512e+00 -5.333791e+00 -6.078731e-04 5.171670e-03 1.721159e-04
Ga 4.893620e+00 -1.066514e+00 -1.472108e-01 -6.114812e-03 1.050859e-02 1.809804e-03
Ga -3.375646e+00 1.947348e+00 5.037544e+00 1.507901e-03 -6.617060e-04 7.994485e-04
Ga -3.153230e+00 1.715688e+00 -5.340713e+00 4.555074e-04 -3.060808e-04 1.096236e-03
Ga -3.171438e+00 1.732593e+00 -1.487845e-01 -5.631139e-03 4.860765e-03 2.404424e-03
Al -1.443158e-01 -3.614177e+00 5.037684e+00 6.843298e-04 -2.596094e-04 1.188032e-03
Ga 7.656985e-02 -3.841419e+00 -5.339448e+00 5.434130e-04 -4.871594e-05 1.597393e-03
Ga 6.189217e-02 -3.826236e+00 -1.501040e-01 -4.961237e-03 5.391671e-03 2.944713e-03
Ga -1.743233e+00 -8.565055e-01 5.042467e+00 1.889596e-05 6.120438e-03 -4.050138e-04
Ga -1.522595e+00 -1.078016e+00 -5.339266e+00 -3.919732e-04 5.567112e-03 3.423988e-05
Ga -1.539271e+00 -1.059246e+00 -1.440003e-01 -5.169949e-03 1.042606e-02 1.236647e-03
N 1.463979e+00 1.013879e+00 4.399371e+00 8.276693e-04 -5.996749e-03 -7.278582e-03
N 1.681189e+00 7.884105e-01 -5.964099e+00 4.800683e-04 -5.635001e-03 -2.441871e-04
N 1.657169e+00 8.119524e-01 -7.605761e-01 -1.521755e-03 -3.710574e-03 -4.422917e-03
N -1.374337e-01 3.781523e+00 4.407345e+00 -6.549532e-04 4.655535e-04 -1.197837e-03
N 8.111131e-02 3.553049e+00 -5.999491e+00 -8.030512e-04 3.276337e-04 -9.769141e-03
N 5.875527e-02 3.583567e+00 -7.957162e-01 -9.850874e-04 2.205026e-03 2.209890e-03
N 3.090598e+00 -1.778701e+00 4.416288e+00 -2.982314e-04 -8.447830e-05 -1.031108e-03
N 3.309111e+00 -2.002402e+00 -5.964376e+00 -7.221423e-04 6.119388e-04 -1.286314e-03
N 3.289451e+00 -1.983174e+00 -7.778398e-01 -1.902509e-03 2.305816e-03 -7.174364e-04
N -4.970503e+00 1.018439e+00 4.413909e+00 9.289665e-04 -5.892745e-03 -3.149444e-06
N -4.752447e+00 7.909695e-01 -5.961550e+00 5.075728e-04 -5.208970e-03 -1.912038e-04
N -4.771071e+00 8.081706e-01 -7.734221e-01 -7.038306e-04 -3.347779e-03 2.590556e-04
N -6.549602e+00 3.800953e+00 4.428896e+00 7.155627e-03 4.007081e-03 1.843037e-03
N -6.350308e+00 3.557206e+00 -5.968190e+00 -1.845845e-04 2.029131e-04 -1.491100e-03
N -6.369086e+00 3.571971e+00 -7.761755e-01 -1.231030e-03 1.685256e-03 -6.949626e-04
N -3.345630e+00 -1.774263e+00 4.416887e+00 1.228454e-04 1.191443e-04 -1.540655e-03
N -3.124548e+00 -1.999630e+00 -5.962947e+00 -2.488918e-04 7.454591e-04 -1.008160e-03
N -3.137184e+00 -1.984011e+00 -7.815427e-01 -1.469843e-03 2.362528e-03 -1.012365e-03
N -1.772970e+00 1.020944e+00 4.417660e+00 5.745808e-03 -3.718008e-03 1.388327e-03
N -1.553398e+00 7.954457e-01 -5.964387e+00 5.729676e-03 -3.439007e-03 1.315006e-03
N -1.577362e+00 8.154315e-01 -7.844550e-01 5.080685e-03 -2.446252e-03 2.170004e-03
N -3.398449e+00 3.803213e+00 4.426340e+00 -1.535720e-03 6.189890e-03 2.838717e-03
N -3.156181e+00 3.561441e+00 -5.969050e+00 4.899575e-03 2.285486e-03 -2.229594e-04
N -3.169928e+00 3.577487e+00 -7.826145e-01 4.207908e-03 3.731357e-03 1.479684e-04
N -1.483986e-01 -1.799492e+00 4.426591e+00 5.539492e-03 -5.798091e-03 2.872853e-03
N 7.470515e-02 -1.998666e+00 -5.968319e+00 4.984648e-03 2.718838e-03 -4.611326e-04
N 5.979113e-02 -1.977973e+00 -7.749496e-01 4.121648e-03 4.035221e-03 5.667689e-04
N -7.069110e-02 1.877661e+00 1.861257e+00 -3.550511e-03 -1.903414e-03 -1.023307e-02
N -1.417858e-01 1.970998e+00 7.009081e+00 -5.360328e-03 5.666885e-03 2.541450e-03
N 7.647623e-02 1.716722e+00 -3.375589e+00 -5.528818e-03 -2.278632e-03 -3.885943e-04
N 3.100192e+00 -3.635690e+00 1.815198e+00 3.003869e-04 -7.468635e-03 -7.569245e-04
N 3.110447e+00 -3.630162e+00 7.012791e+00 1.504136e-03 -5.835145e-03 2.855786e-03
N 3.304846e+00 -3.842486e+00 -3.380788e+00 -5.761418e-03 -1.406444e-03 3.264684e-05
N 1.501302e+00 -8.312830e-01 1.850495e+00 -1.843744e-03 1.358441e-03 -4.706900e-04
N 1.485043e+00 -8.501788e-01 7.001989e+00 -5.901131e-03 4.135297e-03 1.480511e-03
N 1.703668e+00 -1.076997e+00 -3.369759e+00 -6.481098e-03 4.202714e-03 6.991231e-04
N 3.041642e+00 1.913227e+00 1.847564e+00 -6.059149e-04 -8.099954e-03 -1.957397e-03
N 3.054632e+00 1.944337e+00 7.000940e+00 -1.005922e-04 -2.608659e-04 -1.620235e-03
N 3.274090e+00 1.717725e+00 -3.368796e+00 -4.699372e-04 -1.877613e-04 -2.045124e-03
N 6.301649e+00 -3.628573e+00 1.817102e+00 3.617971e-03 -5.283151e-03 -3.720806e-03
N 6.257295e+00 -3.625939e+00 7.014126e+00 -6.966518e-03 -3.905008e-03 1.725881e-03
N 6.503279e+00 -3.840641e+00 -3.379144e+00 -2.278965e-05 4.006876e-04 -1.094359e-03
N 4.696558e+00 -8.628288e-01 1.818766e+00 3.788810e-03 9.899963e-05 -2.155018e-03
N 4.682346e+00 -8.460542e-01 7.004971e+00 -1.051658e-03 5.946576e-03 -2.636699e-04
N 4.901854e+00 -1.073778e+00 -3.369082e+00 -9.408513e-04 5.787478e-03 2.218719e-04
N -3.358519e+00 1.933970e+00 1.817490e+00 4.953352e-03 -5.972218e-03 -1.982048e-03
N -3.379100e+00 1.948374e+00 7.002139e+00 3.114152e-05 -2.172729e-04 -1.506951e-03
N -3.160180e+00 1.721458e+00 -3.374114e+00 -1.893664e-04 -2.146175e-06 -1.477537e-03
N -1.355615e-01 -3.624098e+00 1.816329e+00 4.160712e-03 -4.942739e-03 -2.726102e-03
N -1.496830e-01 -3.610074e+00 6.968752e+00 -5.583115e-05 1.875061e-04 -9.546266e-03
N 7.038767e-02 -3.836483e+00 -3.371576e+00 -3.429066e-04 7.694783e-04 -1.294120e-03
N -1.735925e+00 -8.636963e-01 1.820782e+00 3.537698e-03 4.222345e-04 -2.102447e-03
N -1.751540e+00 -8.440243e-01 7.004421e+00 -1.143813e-03 6.271240e-03 4.333671e-04
N -1.528878e+00 -1.071597e+00 -3.373451e+00 -8.519853e-04 6.126570e-03 1.415901e-04
