108
Energy=-1031744.825354 Lattice="9.474918 0.000000 0.000000 -4.744232 8.201690 0.000000 0.000549 -0.001683 15.297461" Stress="0.000006 0.000015 -0.000002 0.000015 0.000018 0.000001 -0.000002 0.000001 0.000059" Properties=species:S:1:pos:R:3:forces:R:3
Al 1.549553 0.868142 2.418760 0.003423 -0.002277 -0.000436
Al 1.541551 0.867858 7.499868 0.002423 0.001150 0.000252
Al 1.538107 0.868963 -2.731550 -0.000273 -0.002474 0.002167
Al -0.022020 3.594812 2.420342 0.005363 -0.014838 0.019457
Al -0.016531 3.599816 7.502965 0.000240 -0.001945 0.002752
Al -0.016921 3.582843 -2.709007 -0.002356 0.004056 -0.015788
Al 3.140876 -1.857344 2.433188 -0.000539 -0.008209 0.010763
Al 3.157397 -1.865048 7.510045 0.000131 -0.001292 0.002432
Al 3.139024 -1.869168 -2.713101 0.005439 0.000652 -0.017099
Al -4.769376 0.870519 2.424891 -0.003277 0.009851 0.007761
Al -4.770885 0.864404 7.490592 -0.000423 0.001131 0.000772
Ga -4.768907 0.868632 -2.741684 0.003047 -0.002843 0.002879
Al -6.343610 3.605232 2.423303 0.007399 -0.008537 0.009329
Al -6.353351 3.615169 7.493467 0.000919 -0.003125 0.001180
Ga -6.355465 3.601192 -2.742038 0.001013 0.003679 0.004106
Ga -3.177771 -1.870861 2.465208 -0.002095 -0.000886 0.002981
Al -3.171922 -1.860871 7.503755 0.000548 -0.001151 0.000886
Ga -3.190089 -1.863864 -2.772323 0.002953 0.000149 0.004647
Al -1.614533 0.878433 2.423644 0.004362 0.008577 0.008872
Al -1.619050 0.876865 7.497540 0.004491 0.000090 0.002315
Al -1.622978 0.897304 -2.717089 0.008702 -0.006138 -0.007430
Al -3.188744 3.615743 2.427351 0.006047 0.001083 0.004495
Ga -3.200887 3.610970 7.512405 0.003878 0.000203 0.001036
Ga -3.171077 3.606295 -2.751069 0.003001 0.001937 0.000048
Al -0.020685 -1.847227 2.419277 0.015490 -0.008167 0.006899
Al -0.027313 -1.848946 7.508412 0.002514 -0.001662 0.001960
Ga -0.016982 -1.840406 -2.756834 -0.000837 -0.000422 0.003828
Al -0.026769 1.784445 4.971186 -0.003840 0.002622 0.001690
Al -0.034003 1.777826 -5.275341 -0.002509 0.002349 0.002509
Al -0.029591 1.773987 -0.178436 0.001820 -0.001767 0.008410
Al 3.158828 -3.693226 4.975354 -0.002949 -0.000876 0.000081
Al 3.150361 -3.684184 -5.270905 0.000830 -0.000015 -0.000961
Ga 3.140701 -3.695467 -0.125879 0.000520 0.000894 -0.002574
Ga 1.577173 -0.961318 4.982582 -0.003335 0.001198 0.000250
Al 1.582531 -0.958363 -5.280681 -0.002784 0.000918 0.000343
Al 1.578114 -0.964892 -0.182954 -0.005003 0.005682 0.007096
Al 3.128099 1.791104 4.972096 0.001382 0.000683 0.001391
Ga 3.124117 1.783249 -5.290305 0.000439 0.001379 -0.000845
Al 3.128500 1.783812 -0.156071 -0.003798 -0.001244 0.006766
Al 6.298391 -3.688084 4.993891 -0.001663 -0.003703 -0.001402
Al 6.299349 -3.676299 -5.285643 -0.003716 -0.002326 -0.006256
Ga 6.293150 -3.705641 -0.108801 0.001111 0.000220 -0.003068
Al 4.733801 -0.954009 4.994449 -0.004413 0.004045 -0.000476
Al 4.737088 -0.955722 -5.285623 -0.004715 0.000063 -0.006492
Ga 4.703925 -0.949330 -0.113518 -0.001169 0.002926 -0.003479
Al -3.195093 1.785889 4.963320 -0.000581 0.001629 0.001351
Al -3.186383 1.779215 -5.291477 -0.000044 -0.001680 0.000374
Al -3.196372 1.798364 -0.155909 -0.001408 -0.001773 0.007315
Al -0.035295 -3.679121 4.965952 0.001134 -0.001432 0.001308
Al -0.021198 -3.662606 -5.290073 -0.003951 -0.001654 -0.002780
Al -0.019752 -3.686934 -0.150094 -0.002750 0.002827 0.005616
Al -1.600414 -0.947461 4.991192 -0.000082 0.004342 0.000702
Al -1.593910 -0.942488 -5.287015 -0.002077 0.003600 -0.006089
Ga -1.588271 -0.930966 -0.105837 -0.000169 -0.000228 -0.008855
N 1.548158 0.908305 4.367183 0.001104 0.000572 -0.009783
N 1.516383 0.855724 -5.885308 -0.004393 -0.004113 -0.001745
N 1.545552 0.867321 -0.783245 0.002098 -0.001124 0.002709
N -0.020367 3.605244 4.375257 0.000829 -0.002252 -0.003130
N -0.021887 3.603658 -5.868389 -0.000894 -0.001974 -0.003781
N -0.025604 3.564351 -0.821393 0.000389 -0.002700 0.007877
N 3.185243 -1.881391 4.369898 0.002036 -0.002676 -0.006136
N 3.157451 -1.864178 -5.868203 -0.002539 -0.001400 -0.003913
N 3.115386 -1.854380 -0.835540 -0.001020 -0.000252 0.011276
N -4.773968 0.872915 4.377658 0.001636 -0.001537 -0.004904
N -4.742250 0.855843 -5.892272 0.005628 -0.002603 -0.003029
N -4.773100 0.905357 -0.752350 0.003195 0.003751 0.004323
N -6.349783 3.609991 4.376672 0.001464 -0.000541 -0.005162
N -6.344443 3.646961 -5.890297 0.000956 0.004218 -0.003660
N -6.320329 3.593737 -0.750458 0.005564 -0.002334 0.003664
N -3.175071 -1.864761 4.437242 0.001546 0.000504 0.000750
N -3.171586 -1.859865 -5.872437 0.002114 -0.000067 -0.002839
N -3.180030 -1.862598 -0.773281 0.000655 -0.000548 0.004178
N -1.621535 0.881570 4.377541 0.003706 -0.002881 -0.005810
N -1.620754 0.883716 -5.873276 0.004811 -0.001297 -0.005864
N -1.625442 0.921974 -0.797089 0.000785 0.001466 0.004296
N -3.193664 3.618382 4.378965 0.002356 -0.000021 -0.006179
N -3.208226 3.603777 -5.803990 0.008760 0.003540 -0.004466
N -3.222898 3.598434 -0.755475 -0.001178 -0.002779 0.004461
N -0.060457 -1.870076 4.365590 0.000674 -0.001603 -0.008745
N -0.020805 -1.849089 -5.867118 0.003587 0.000099 -0.002015
N 0.001145 -1.870015 -0.759441 0.004886 -0.004548 0.004168
N -0.024075 1.780471 1.814525 -0.003062 -0.003883 -0.011066
N -0.026140 1.777051 6.904973 -0.002263 0.000439 -0.003710
N -0.029205 1.775646 -3.333669 -0.000655 -0.000397 0.001605
N 3.238572 -3.686723 1.865351 -0.034559 0.005217 -0.006055
N 3.178736 -3.677386 6.903226 0.000553 0.003673 -0.005002
N 3.197481 -3.660282 -3.367794 -0.000921 -0.002017 0.010237
N 1.607857 -0.989360 1.787451 -0.015400 0.009763 -0.001406
N 1.575157 -0.963029 6.951174 -0.002794 0.000995 0.002484
N 1.610811 -0.937726 -3.352757 0.000030 0.004338 -0.000834
N 3.127752 1.782430 1.818569 0.000929 -0.000099 -0.007328
N 3.126866 1.784876 6.907121 -0.000728 -0.000506 -0.002680
N 3.095495 1.762213 -3.333773 -0.004603 -0.002471 0.004189
N 6.288334 -3.765335 1.885903 0.005751 0.014876 -0.011866
N 6.298020 -3.687926 6.912970 -0.001547 0.002289 -0.002589
N 6.261779 -3.712231 -3.402664 -0.002499 -0.001518 0.010840
N 4.656379 -0.927330 1.876160 0.014100 -0.001401 -0.008993
N 4.727461 -0.953567 6.914506 -0.001317 -0.000101 -0.003239
N 4.689676 -0.967540 -3.410381 -0.007491 -0.001294 0.013333
N -3.191031 1.789403 1.823280 0.001384 -0.001398 -0.008307
N -3.195642 1.755304 6.890457 0.000393 -0.004742 -0.005013
N -3.146653 1.757855 -3.393113 -0.003321 0.001673 0.007034
N -0.025487 -3.675582 1.820906 0.002040 0.000352 -0.006969
N -0.056169 -3.660945 6.893636 -0.003721 0.004473 -0.004890
N -0.019895 -3.684159 -3.406620 -0.001809 0.001581 0.007079
N -1.540316 -0.928282 1.871024 -0.012509 0.002914 -0.006289
N -1.591430 -0.945566 6.916787 -0.002457 0.000732 -0.003049
N -1.602791 -0.894470 -3.404790 -0.000138 0.002343 0.012952
