108
Energy=-2176132.742371 Lattice="9.628851 0.000000 0.000000 -4.828783 8.320949 0.000000 0.001580 0.094433 15.621631" Stress="0.000032 -0.000005 -0.000000 -0.000005 0.000019 0.000019 0.000000 0.000019 0.000050" Properties=species:S:1:pos:R:3:forces:R:3
Al 1.561172 0.917848 2.435798 0.001309 0.000590 0.002250
Al 1.571726 0.933755 7.672232 0.001238 0.002562 0.001351
Ga 1.565743 0.832837 -2.758486 0.001563 0.000908 -0.000405
Al -0.025327 3.674094 2.481724 0.000360 0.000093 -0.000965
Ga -0.008077 3.688005 7.668233 -0.000045 -0.000119 -0.000042
Al -0.026344 3.616413 -2.775324 0.001274 0.000071 -0.000691
Ga 3.186365 -1.843582 2.453767 0.001696 -0.002002 -0.000071
Ga 3.184841 -1.823167 7.674647 0.001226 -0.001146 0.000158
Ga 3.171764 -1.913466 -2.750726 0.001004 -0.000828 0.000384
Ga -4.855233 0.914222 2.488420 0.000675 0.001008 -0.001465
Ga -4.851617 0.940882 7.674140 0.000453 -0.000033 -0.000688
Al -4.826946 0.852193 -2.779287 0.000530 0.003051 -0.000443
Ga -6.457118 3.689794 2.438013 -0.000245 -0.000739 0.000194
Al -6.461145 3.704568 7.687819 0.000739 -0.000854 -0.000692
Ga -6.452509 3.629545 -2.751411 -0.000169 -0.000352 0.000249
Ga -3.241340 -1.849267 2.472864 0.000764 -0.001257 -0.001693
Ga -3.220693 -1.844380 7.693949 -0.000363 -0.000648 -0.000344
Ga -3.214818 -1.919718 -2.784686 0.000084 -0.001006 -0.000971
Ga -1.611086 0.940685 2.471498 -0.000250 -0.001214 -0.001150
Ga -1.619695 0.938722 7.689542 0.000627 0.000504 -0.000327
Al -1.632050 0.849582 -2.789966 -0.001392 0.000047 -0.000509
Ga -3.242171 3.701813 2.441895 0.000107 -0.001340 -0.000300
Ga -3.248296 3.706118 7.700073 -0.000048 -0.000831 -0.000759
Ga -3.238901 3.614709 -2.750635 -0.000394 -0.000826 -0.000382
Ga -0.010451 -1.846620 2.423161 -0.001308 -0.002406 0.002973
Ga -0.016847 -1.822541 7.694969 0.000359 -0.001970 -0.000216
Al -0.007413 -1.900155 -2.766587 -0.002372 -0.002231 0.001854
Al -0.016207 1.843158 5.055210 0.001977 0.002829 0.001854
Ga -0.028881 1.753515 -5.340603 0.000473 0.001645 -0.000154
Ga -0.026389 1.774527 -0.180989 0.000285 0.004370 0.004934
Ga 3.204416 -3.699227 5.061678 0.000896 0.001051 -0.001132
Ga 3.200705 -3.781388 -5.334696 -0.000009 0.001257 -0.000966
Ga 3.196596 -3.766333 -0.159814 0.001176 0.002663 0.004161
Ga 1.588376 -0.901422 5.058535 0.000001 0.000292 0.000621
Al 1.566382 -0.998794 -5.355961 0.002003 -0.000069 0.001103
Al 1.574159 -0.984632 -0.145815 0.000799 -0.002452 -0.002634
Ga 3.158473 1.843079 5.077219 -0.000020 0.000350 -0.000648
Ga 3.176686 1.765548 -5.363354 -0.000649 0.001017 0.000037
Ga 3.192747 1.767798 -0.167692 -0.001012 0.003423 0.004837
Ga 6.396600 -3.697962 5.066103 -0.000577 0.000738 -0.000408
Al 6.408858 -3.779347 -5.352845 0.000184 0.000389 -0.000528
Ga 6.398441 -3.770904 -0.153017 -0.000630 0.001222 0.003355
Al 4.793701 -0.917400 5.081879 -0.000257 -0.002479 -0.000383
Ga 4.802340 -0.998638 -5.335733 -0.000982 -0.000964 -0.001222
Ga 4.791822 -0.980059 -0.185477 -0.000986 0.000048 0.005527
Ga -3.228305 1.849366 5.069769 -0.001105 0.000148 -0.000490
Al -3.231854 1.754404 -5.330955 -0.000672 0.001361 -0.000164
Ga -3.238399 1.773962 -0.182084 -0.000853 0.003074 0.004732
Ga -0.019503 -3.691161 5.085229 -0.000578 0.000118 0.000909
Ga -0.027629 -3.760835 -5.344614 -0.000566 -0.000322 -0.000122
Al -0.006598 -3.733050 -0.167744 -0.001012 -0.000549 -0.005639
Ga -1.621727 -0.907606 5.070159 -0.001768 -0.000926 -0.000564
Al -1.613066 -0.993796 -5.328888 -0.001439 -0.002063 -0.000765
Ga -1.597173 -0.989740 -0.198655 -0.002390 0.000911 0.006221
N 1.529476 0.949316 4.373484 0.001920 -0.000202 -0.000152
N 1.568048 0.791381 -6.017192 0.000991 0.002583 -0.000214
N 1.576920 0.798940 -0.777303 0.001126 0.004247 -0.000847
N -0.028798 3.646936 4.406123 0.000434 0.000143 0.001542
N 0.013353 3.634676 -5.969630 -0.000268 -0.000599 0.000006
N -0.025769 3.629569 -0.865050 0.000226 0.000453 0.003625
N 3.228807 -1.813367 4.447651 -0.000032 -0.001326 0.000154
N 3.144264 -1.898820 -5.957825 0.001704 -0.001195 -0.000060
N 3.136690 -1.884494 -0.763857 0.001728 -0.001135 -0.000611
N -4.848014 0.876471 4.473090 0.000420 0.003676 -0.000089
N -4.797967 0.869303 -5.967785 -0.000135 0.000218 -0.000434
N -4.838770 0.859201 -0.871715 0.000585 0.001864 0.003235
N -6.444558 3.702805 4.422198 0.000296 -0.000497 -0.000037
N -6.493228 3.644131 -6.011124 0.001069 -0.000510 0.000710
N -6.408155 3.659982 -0.761614 0.000167 -0.000509 -0.000855
N -3.273377 -1.812708 4.457451 0.001471 -0.001479 0.000471
N -3.183724 -1.947234 -5.928333 0.000546 -0.000094 0.000218
N -3.222749 -1.918961 -0.810586 0.000471 0.000234 0.001626
N -1.580369 0.962959 4.454052 -0.002795 -0.001888 -0.000790
N -1.673433 0.821110 -5.936489 0.000308 0.000857 -0.001060
N -1.630922 0.860933 -0.874034 -0.000333 0.000501 0.002990
N -3.246610 3.710997 4.426573 -0.000710 -0.001213 -0.000508
N -3.240814 3.570884 -5.937805 -0.000519 -0.000537 -0.000011
N -3.278071 3.659158 -0.765600 -0.000217 -0.001454 -0.001363
N -0.015400 -1.841263 4.418485 -0.000145 -0.001927 -0.001007
N -0.019219 -1.865402 -5.941699 -0.002336 -0.003062 -0.001438
N 0.035964 -1.920458 -0.820661 -0.000832 -0.001209 -0.001103
N 0.013524 1.870039 1.842161 -0.000294 -0.001911 -0.005920
N 0.019761 1.821074 6.998825 -0.000842 0.001788 -0.000299
N -0.065926 1.787950 -3.355694 0.001526 0.001950 -0.000562
N 3.246558 -3.735496 1.860232 -0.000859 0.000534 -0.005843
N 3.196070 -3.696922 7.047067 0.000444 0.001355 0.000197
N 3.235546 -3.798935 -3.357272 -0.000422 0.001884 -0.000152
N 1.585371 -0.890499 1.766667 -0.000519 0.000534 0.004488
N 1.584725 -0.859580 7.048083 -0.000225 -0.002386 -0.001227
N 1.539935 -1.027146 -3.436253 0.002202 0.002135 -0.000228
N 3.139498 1.808172 1.848013 0.001048 -0.000962 -0.005687
N 3.131600 1.879632 7.082145 0.000299 0.000610 -0.000203
N 3.219737 1.746303 -3.375115 -0.001411 0.001243 -0.000105
N 6.347076 -3.727008 1.853321 0.001901 -0.000582 -0.003800
N 6.448146 -3.713104 7.052006 -0.000841 0.001108 -0.000473
N 6.365568 -3.803887 -3.433128 0.000221 0.000429 0.000927
N 4.794289 -0.920648 1.816806 -0.000507 -0.002679 -0.005902
N 4.801991 -0.917929 7.001335 -0.000476 -0.000507 0.001691
N 4.791696 -0.948138 -3.362511 -0.000564 -0.003826 -0.000389
N -3.239319 1.833932 1.827467 -0.000873 -0.001475 -0.004008
N -3.230065 1.856962 7.040616 -0.000790 0.000732 0.000955
N -3.233463 1.724674 -3.406994 -0.000437 0.000877 0.000963
N -0.017843 -3.706411 1.732516 -0.000620 0.001313 0.006782
N -0.058950 -3.709043 7.080569 0.000043 0.000785 -0.000050
N -0.016697 -3.719457 -3.364061 -0.000375 -0.000194 0.000081
N -1.627117 -0.918282 1.819724 -0.000162 -0.002676 -0.005840
N -1.620072 -0.910587 7.046556 -0.001271 -0.001072 -0.000173
N -1.569980 -0.972259 -3.403205 -0.001047 -0.001061 0.001008
