108
Energy=-9.401945e+05 Lattice="9.455507e+00 0.000000e+00 0.000000e+00 -4.730548e+00 8.185547e+00 0.000000e+00 -1.135235e-03 7.103413e-04 1.522213e+01" Stress="4.641984e-04 -1.358989e-04 3.853859e-05 -1.439617e-04 -2.497082e-04 1.281153e-04 3.697523e-05 1.198226e-04 1.262125e-03" Properties=species:S:1:pos:R:3:forces:R:3 Config_type=AlGaN_super3_11_1_52.xyz
Al 1.550946e+00 8.739385e-01 2.397467e+00 -1.299015e-04 -7.095064e-05 3.147921e-05
Al 1.550267e+00 8.767232e-01 7.448055e+00 -4.093480e-06 1.383505e-04 -1.652000e-04
Al 1.542890e+00 8.671496e-01 -2.684645e+00 3.334286e-05 1.105054e-07 -1.198987e-04
Al -1.155607e-02 3.594681e+00 2.376814e+00 1.521214e-04 -8.796300e-05 9.287870e-05
Al -1.051830e-02 3.587640e+00 7.448302e+00 -8.067145e-05 -1.715749e-06 -1.194014e-04
Al -2.441386e-02 3.582582e+00 -2.658954e+00 1.047848e-04 8.831111e-07 3.428725e-05
Al 3.141269e+00 -1.845471e+00 2.374585e+00 -6.266779e-05 1.741597e-04 -2.276277e-04
Al 3.142961e+00 -1.835697e+00 7.464625e+00 7.351485e-05 -1.832634e-04 -1.060077e-04
Al 3.125426e+00 -1.847500e+00 -2.673149e+00 -1.133512e-06 -7.697719e-06 4.815526e-05
Al -4.749122e+00 8.605859e-01 2.400617e+00 7.121182e-05 4.854147e-05 3.062842e-05
Al -4.751670e+00 8.592600e-01 7.443550e+00 -3.188667e-04 -1.045402e-04 1.304474e-04
Al -4.746354e+00 8.692824e-01 -2.683295e+00 9.011501e-05 -2.452342e-04 1.349955e-04
Al -6.348636e+00 3.592271e+00 2.412878e+00 -1.154564e-04 3.659198e-04 1.824112e-04
Al -6.338783e+00 3.592873e+00 7.440241e+00 1.307275e-04 1.893625e-06 -2.179795e-05
Al -6.325996e+00 3.593759e+00 -2.677927e+00 9.585317e-05 1.309866e-04 -1.550184e-04
Al -3.181722e+00 -1.858220e+00 2.382694e+00 1.085710e-04 -1.817720e-05 -4.569285e-05
Al -3.186987e+00 -1.852068e+00 7.446458e+00 1.479157e-04 3.746308e-05 -1.131877e-05
Ga -3.176397e+00 -1.851418e+00 -2.667878e+00 -3.650078e-05 3.487432e-05 -4.368632e-05
Al -1.598817e+00 8.718670e-01 2.385482e+00 5.767847e-05 -1.676047e-04 2.889812e-07
Al -1.599713e+00 8.729531e-01 7.460739e+00 3.191594e-04 -1.032252e-04 1.228180e-04
Al -1.592548e+00 8.781466e-01 -2.685313e+00 -2.568942e-05 -1.645654e-04 -6.887289e-05
Ga -3.165153e+00 3.583434e+00 2.390549e+00 -1.343272e-05 -8.358949e-06 -6.258521e-05
Ga -3.183643e+00 3.584089e+00 7.472142e+00 3.199227e-05 1.947899e-05 4.901947e-05
Al -3.175070e+00 3.589344e+00 -2.685448e+00 -8.437756e-05 4.541607e-05 1.888114e-04
Ga -2.297095e-02 -1.838232e+00 2.404739e+00 -7.293183e-05 7.770851e-05 1.259600e-04
Ga -2.554014e-02 -1.849605e+00 7.464333e+00 -7.799234e-05 -4.733285e-05 -1.092094e-04
Al -1.445232e-02 -1.848873e+00 -2.696920e+00 -1.823791e-05 -5.449190e-05 -4.012406e-05
Al -2.286185e-02 1.770405e+00 4.915219e+00 7.134166e-06 -1.272443e-04 2.163125e-05
Al -3.238443e-02 1.764423e+00 -5.222060e+00 3.585138e-05 -1.223434e-05 3.142631e-05
Al -3.239156e-02 1.775557e+00 -1.451009e-01 5.282077e-05 -3.157291e-05 -1.178306e-04
Ga 3.140506e+00 -3.668308e+00 4.930411e+00 8.067016e-05 1.157342e-05 6.212083e-05
Ga 3.132906e+00 -3.671762e+00 -5.207126e+00 7.809091e-05 1.943332e-05 4.188264e-05
Al 3.143717e+00 -3.674148e+00 -1.617701e-01 3.848052e-06 9.103490e-05 -4.591177e-05
Al 1.561116e+00 -9.351164e-01 4.927388e+00 -4.023478e-04 -3.961294e-05 -1.116420e-04
Al 1.553195e+00 -9.444963e-01 -5.213492e+00 -1.566405e-04 3.094335e-04 1.202993e-04
Al 1.555706e+00 -9.435690e-01 -1.593672e-01 3.536693e-05 -8.555511e-05 -5.479657e-05
Al 3.126790e+00 1.777448e+00 4.919323e+00 -4.814164e-05 2.454290e-05 1.333427e-05
Ga 3.134103e+00 1.769690e+00 -5.224300e+00 5.431122e-05 -2.152355e-05 -4.035980e-05
Ga 3.125052e+00 1.769280e+00 -1.400452e-01 6.295690e-05 -7.791039e-05 -1.405611e-04
Al 6.287409e+00 -3.674092e+00 4.921054e+00 -8.164548e-05 -6.574975e-05 -1.118622e-04
Ga 6.285585e+00 -3.673165e+00 -5.230956e+00 3.321618e-05 4.646527e-05 3.294788e-05
Al 6.271803e+00 -3.676920e+00 -1.309846e-01 -1.538636e-04 3.159334e-05 -3.356622e-05
Al 4.708038e+00 -9.432135e-01 4.914811e+00 2.222171e-04 5.428622e-05 6.709244e-05
Al 4.706631e+00 -9.377892e-01 -5.232105e+00 3.874209e-04 -3.603539e-05 1.530908e-04
Al 4.706035e+00 -9.509113e-01 -1.304886e-01 -2.390857e-04 2.114669e-04 -1.065984e-04
Al -3.175735e+00 1.759362e+00 4.927211e+00 3.513349e-05 -2.908218e-04 -1.421965e-04
Al -3.169568e+00 1.761043e+00 -5.213925e+00 -1.616188e-04 -1.646745e-04 3.813362e-05
Al -3.160357e+00 1.764011e+00 -1.574852e-01 -2.168683e-04 -2.267352e-04 -8.038480e-05
Al -3.800081e-02 -3.680029e+00 4.922982e+00 -1.209260e-04 2.379465e-04 -1.844646e-04
Al -2.463216e-02 -3.672767e+00 -5.196196e+00 -1.059465e-05 -1.492126e-04 2.629879e-04
Ga -2.125067e-02 -3.668490e+00 -1.591699e-01 2.704637e-05 1.962362e-05 -1.123873e-04
Al -1.610344e+00 -9.387242e-01 4.924775e+00 2.809731e-04 -1.844918e-04 -1.523396e-04
Al -1.597397e+00 -9.348598e-01 -5.227085e+00 -1.602781e-04 4.263146e-05 1.149832e-04
Al -1.598887e+00 -9.335055e-01 -1.458481e-01 -1.914992e-04 3.953148e-05 1.069424e-04
N 1.549307e+00 8.705098e-01 4.317196e+00 7.349352e-05 -5.829540e-05 -2.641466e-05
N 1.509405e+00 8.468821e-01 -5.852895e+00 1.819083e-05 -1.158406e-04 3.181302e-04
N 1.507653e+00 8.496684e-01 -7.733068e-01 -1.580380e-04 1.253821e-04 2.144973e-04
N 1.828353e-02 3.572545e+00 4.294927e+00 9.471376e-05 3.852192e-04 -7.892663e-05
N -2.341860e-02 3.545592e+00 -5.867621e+00 6.591222e-06 7.618472e-05 6.014666e-05
N -1.874299e-02 3.591821e+00 -7.402059e-01 -1.142996e-05 -2.613579e-05 5.812603e-05
N 3.129202e+00 -1.807596e+00 4.287777e+00 -1.551791e-04 -1.404005e-04 -1.684663e-04
N 3.129399e+00 -1.805570e+00 -5.843239e+00 -2.874539e-06 -2.058691e-04 -1.129086e-04
N 3.133598e+00 -1.850497e+00 -7.518494e-01 -1.194901e-04 -3.968055e-05 1.972299e-05
N -4.750094e+00 8.698527e-01 4.319939e+00 5.889288e-05 -1.697621e-05 9.614270e-06
N -4.707788e+00 8.481800e-01 -5.860791e+00 2.126279e-04 1.369384e-04 1.369185e-04
N -4.708479e+00 8.410722e-01 -7.703627e-01 8.285497e-05 2.616983e-04 1.160280e-04
N -6.335327e+00 3.597661e+00 4.326134e+00 2.372061e-05 -2.116624e-05 4.853695e-05
N -6.282293e+00 3.620830e+00 -5.871284e+00 -1.229954e-04 -1.531999e-05 -1.634311e-04
N -6.372831e+00 3.620303e+00 -7.806954e-01 1.260603e-04 -3.436634e-05 1.121945e-04
N -3.175629e+00 -1.858131e+00 4.310433e+00 3.043043e-05 -3.972035e-05 8.454426e-05
N -3.174346e+00 -1.808584e+00 -5.853783e+00 -1.257814e-04 5.163078e-05 5.888231e-05
N -3.175508e+00 -1.856901e+00 -6.883909e-01 3.593126e-04 -4.491232e-05 -1.909901e-04
N -1.599006e+00 8.723778e-01 4.305429e+00 3.436644e-05 -9.187743e-05 3.790822e-05
N -1.598476e+00 8.729510e-01 -5.836742e+00 -2.421960e-05 5.348510e-05 3.984547e-06
N -1.594327e+00 8.709543e-01 -7.651508e-01 -3.132079e-05 -4.397122e-06 6.575955e-06
N -3.212005e+00 3.570949e+00 4.361618e+00 2.747581e-05 2.142881e-04 -5.704772e-05
N -3.219450e+00 3.572075e+00 -5.773805e+00 1.136812e-04 -4.563370e-05 -1.192989e-04
N -3.133646e+00 3.570509e+00 -7.663087e-01 -1.153495e-04 -4.241827e-05 -3.094876e-04
N -2.157956e-02 -1.849555e+00 4.382395e+00 -4.804323e-05 7.799479e-05 1.320555e-04
N -2.042158e-02 -1.859243e+00 -5.770778e+00 3.880226e-05 -4.245702e-05 -2.609402e-04
N -2.398252e-02 -1.803812e+00 -7.780297e-01 1.644335e-04 -1.169140e-04 -2.413975e-04
N -2.330397e-02 1.775388e+00 1.779213e+00 9.145824e-06 2.805366e-05 3.910031e-06
N -2.776963e-02 1.775107e+00 6.837574e+00 1.656610e-05 4.133819e-05 2.447747e-05
N -2.400742e-02 1.781513e+00 -3.297015e+00 -7.588505e-06 2.952148e-06 -4.890229e-05
N 3.174741e+00 -3.652450e+00 1.761224e+00 -1.067549e-04 4.337125e-05 1.307193e-04
N 3.170811e+00 -3.649286e+00 6.903282e+00 2.756483e-05 2.149533e-04 -1.099094e-06
N 3.138438e+00 -3.674350e+00 -3.223353e+00 2.933327e-05 1.055046e-04 -9.596701e-05
N 1.593934e+00 -9.211702e-01 1.756162e+00 1.526414e-04 4.983978e-05 3.063400e-04
N 1.597286e+00 -9.235834e-01 6.837340e+00 4.928281e-05 -1.362390e-04 1.200068e-04
N 1.560509e+00 -9.465022e-01 -3.293401e+00 -1.773296e-05 7.077991e-05 2.500265e-05
N 3.130036e+00 1.779120e+00 1.843789e+00 3.396244e-05 -3.648154e-04 -4.021730e-05
N 3.127005e+00 1.776255e+00 6.848345e+00 4.519578e-05 -8.568169e-06 -2.086803e-05
N 3.128707e+00 1.775796e+00 -3.239470e+00 -1.416400e-06 -7.734428e-05 -1.274910e-04
N 6.285618e+00 -3.679002e+00 1.787431e+00 -6.000267e-05 -9.574018e-06 2.142405e-04
N 6.279363e+00 -3.673508e+00 6.846318e+00 4.141557e-05 2.575249e-05 8.991677e-06
N 6.278299e+00 -3.723681e+00 -3.260110e+00 -2.173720e-04 5.613608e-05 -5.231466e-05
N 4.706496e+00 -9.441746e-01 1.785121e+00 -7.178504e-05 2.825589e-05 1.623114e-04
N 4.703435e+00 -9.496763e-01 6.835001e+00 1.703222e-05 -5.927654e-05 1.019067e-05
N 4.664690e+00 -9.264974e-01 -3.315428e+00 1.153517e-05 7.138889e-05 -2.681380e-04
N -3.176086e+00 1.726133e+00 1.757250e+00 -1.777143e-05 3.171989e-05 3.880735e-05
N -3.173263e+00 1.726355e+00 6.835586e+00 2.661239e-05 2.870081e-04 -1.047330e-04
N -3.173239e+00 1.771801e+00 -3.292084e+00 -1.626233e-05 -3.099646e-07 9.213805e-06
N -6.521657e-02 -3.698148e+00 1.806215e+00 9.325825e-05 -5.224930e-05 6.367805e-05
N -6.266377e-02 -3.698260e+00 6.820070e+00 -8.590594e-05 -6.062798e-05 2.596647e-04
N -2.349843e-02 -3.678407e+00 -3.273980e+00 2.170828e-05 6.427500e-06 9.452030e-05
N -1.636653e+00 -9.227205e-01 1.768378e+00 -1.037310e-04 9.747139e-05 6.918079e-05
N -1.642379e+00 -9.203750e-01 6.838807e+00 -2.303524e-04 -2.023319e-04 -4.604141e-05
N -1.562926e+00 -9.212237e-01 -3.311107e+00 -1.808786e-05 9.308947e-05 6.824854e-05
