108
Energy=-1214847.402430 Lattice="9.488658 0.000000 0.000000 -4.744600 8.216178 0.000000 -0.004015 -0.000108 15.295815" Stress="0.000001 -0.000000 -0.000000 -0.000000 0.000001 -0.000001 -0.000000 -0.000001 0.000001" Properties=species:S:1:pos:R:3:forces:R:3
Al 1.563946 0.884569 2.399858 -0.000019 -0.000010 0.000048
Al 1.563475 0.881650 7.472302 -0.000084 0.000217 0.000081
Al 1.551669 0.879137 -2.679037 -0.000468 -0.000492 0.000116
Al -0.027524 3.603039 2.387360 -0.000307 0.000011 0.000041
Al -0.029170 3.600564 7.483757 -0.000069 -0.000189 0.000034
Al -0.024168 3.596993 -2.670726 -0.000320 -0.000143 0.000096
Al 3.144375 -1.860959 2.396850 0.000358 0.000122 0.000220
Al 3.140741 -1.857541 7.486425 -0.000065 -0.000039 -0.000050
Ga 3.149643 -1.855482 -2.686592 -0.000113 -0.000167 0.000268
Al -4.790215 0.867160 2.400432 -0.000078 0.001110 0.000523
Al -4.784622 0.874330 7.494774 0.000038 -0.000121 -0.000290
Al -4.757256 0.868162 -2.696023 0.000059 0.000113 0.000359
Al -6.352284 3.589931 2.386349 -0.000461 0.000164 -0.000456
Al -6.342163 3.592175 7.491512 0.000119 0.000028 -0.000224
Ga -6.346495 3.604788 -2.673257 -0.000015 0.000172 0.000120
Ga -3.205618 -1.861931 2.406555 0.000189 -0.000213 0.000029
Ga -3.206728 -1.863695 7.483507 -0.000062 0.000102 0.000113
Al -3.204540 -1.859978 -2.676554 -0.000080 0.000221 0.000075
Al -1.589706 0.886227 2.412358 -0.000037 -0.000131 0.000142
Ga -1.597014 0.897251 7.511625 0.000246 -0.000131 -0.000002
Al -1.601368 0.898327 -2.711723 -0.000060 0.000009 0.000289
Ga -3.176480 3.618389 2.410372 0.000076 -0.000092 0.000098
Al -3.191763 3.615013 7.487656 0.000058 -0.000326 -0.000176
Al -3.183105 3.598369 -2.689185 0.000321 0.000028 -0.000027
Ga -0.012684 -1.861245 2.417176 0.000035 -0.000008 0.000101
Ga -0.005024 -1.873997 7.487896 0.000019 0.000011 0.000100
Ga -0.007701 -1.864878 -2.689357 0.000098 -0.000014 0.000093
Al -0.014230 1.783177 4.930110 -0.000179 -0.000072 -0.000057
Al -0.012668 1.783544 -5.234890 0.000118 0.000091 0.000088
Al -0.009326 1.793014 -0.143613 -0.000164 0.000000 0.000499
Al 3.141756 -3.677903 4.957933 0.000352 0.000172 0.000043
Ga 3.133968 -3.696940 -5.256569 -0.000103 0.000029 0.000245
Al 3.148224 -3.684802 -0.151929 -0.000227 -0.000351 -0.000252
Al 1.571197 -0.946157 4.939376 -0.000006 -0.000019 -0.000160
Al 1.567489 -0.939777 -5.263625 -0.000040 -0.000104 0.000041
Al 1.573854 -0.941334 -0.124986 -0.000098 0.000087 0.000158
Al 3.134311 1.778749 4.945517 -0.000027 0.000031 -0.000082
Ga 3.140766 1.768972 -5.255331 -0.000093 0.000016 0.000210
Al 3.132117 1.778084 -0.141944 -0.000091 -0.000180 0.000264
Ga 6.302112 -3.707696 4.941962 -0.000024 -0.000087 0.000083
Ga 6.299544 -3.698983 -5.244272 -0.000097 0.000084 0.000039
Al 6.292805 -3.699808 -0.138364 -0.000151 -0.000163 0.000221
Al 4.696190 -0.947625 4.942722 -0.000316 0.000242 0.000271
Al 4.715725 -0.939203 -5.245712 0.000099 0.000066 0.000062
Al 4.705331 -0.953403 -0.138560 0.000122 0.000333 -0.000146
Ga -3.192324 1.779060 4.945131 -0.000140 -0.000148 0.000257
Al -3.194395 1.793818 -5.242286 -0.000263 -0.000374 0.000177
Ga -3.190501 1.788846 -0.147278 -0.000059 0.000042 0.000540
Al -0.026524 -3.692645 4.956381 -0.000373 -0.000197 -0.000209
Al -0.007561 -3.703075 -5.256265 -0.000015 0.000275 0.000086
Al -0.017764 -3.695347 -0.135846 -0.000189 -0.000047 -0.000354
Al -1.594385 -0.943718 4.943602 -0.000016 0.000063 0.000054
Ga -1.601427 -0.946512 -5.217892 -0.000101 -0.000114 0.000084
Ga -1.603291 -0.948937 -0.159212 -0.000124 0.000157 0.000435
N 1.560525 0.876298 4.326729 0.000017 0.000046 -0.000161
N 1.513316 0.854177 -5.900915 0.000036 -0.000109 -0.000146
N 1.555547 0.872761 -0.751867 0.000055 -0.000100 -0.000102
N -0.073269 3.590055 4.307686 0.000021 -0.000147 0.000030
N -0.024123 3.558043 -5.901472 0.000008 -0.000059 -0.000060
N -0.022270 3.607210 -0.748743 -0.000048 -0.000041 -0.000068
N 3.138550 -1.870861 4.325077 0.000026 0.000036 -0.000147
N 3.144946 -1.818113 -5.882680 -0.000089 0.000151 -0.000093
N 3.136479 -1.861088 -0.708243 0.000207 0.000190 0.000065
N -4.817480 0.848542 4.314032 0.000049 -0.000031 -0.000115
N -4.724923 0.848978 -5.882257 0.000119 -0.000046 0.000215
N -4.808623 0.847770 -0.777080 -0.000048 0.000053 -0.000129
N -6.306124 3.582552 4.306373 0.000295 -0.000094 0.000527
N -6.305962 3.629562 -5.890572 0.000060 0.000062 -0.000000
N -6.347727 3.611601 -0.693599 0.000251 0.000023 -0.000038
N -3.193299 -1.818907 4.382121 0.000145 0.000007 -0.000144
N -3.225260 -1.840401 -5.844348 -0.000015 0.000016 -0.000068
N -3.237019 -1.889976 -0.757358 -0.000020 -0.000035 -0.000049
N -1.561130 0.855115 4.322927 0.000214 0.000071 -0.000200
N -1.600151 0.925486 -5.804459 0.000001 -0.000089 -0.000023
N -1.560138 0.910316 -0.801713 0.000357 0.000032 -0.000077
N -3.182393 3.664638 4.380110 -0.000139 -0.000002 -0.000259
N -3.223386 3.586337 -5.889940 0.000002 0.000284 -0.000120
N -3.186324 3.659132 -0.770542 0.000150 -0.000010 -0.000015
N -0.017373 -1.868149 4.398850 0.000077 0.000095 -0.000041
N 0.019481 -1.889004 -5.824411 0.000149 -0.000204 -0.000037
N 0.030593 -1.888055 -0.714488 0.000070 -0.000091 0.000011
N -0.020583 1.784970 1.785537 0.000015 -0.000108 -0.000677
N 0.017510 1.808970 6.843857 -0.000030 0.000077 -0.000073
N -0.009018 1.792126 -3.308426 0.000059 0.000018 -0.000090
N 3.181902 -3.665466 1.764086 0.000157 -0.000020 0.000185
N 3.141282 -3.686394 6.890974 -0.000057 0.000070 -0.000110
N 3.143880 -3.739033 -3.272006 -0.000008 -0.000052 0.000015
N 1.601485 -0.923182 1.791051 -0.000181 0.000198 -0.000261
N 1.604342 -0.924875 6.856143 0.000009 -0.000166 0.000150
N 1.566294 -0.897561 -3.350400 -0.000004 0.000383 0.000084
N 3.137054 1.779462 1.781119 0.000030 0.000250 -0.000359
N 3.138969 1.784302 6.877345 0.000051 0.000104 -0.000193
N 3.137937 1.735308 -3.273663 0.000385 0.000062 -0.000160
N 6.298150 -3.737956 1.783274 0.000590 -0.000104 0.000029
N 6.303684 -3.745950 6.916804 0.000072 0.000018 -0.000006
N 6.260442 -3.672017 -3.262464 0.000179 0.000056 -0.000024
N 4.677478 -0.923134 1.772429 -0.000223 -0.001215 -0.000491
N 4.671255 -0.923734 6.854652 -0.000009 0.000176 0.000032
N 4.760956 -0.926605 -3.329290 0.000019 -0.000075 -0.000207
N -3.188714 1.737545 1.836006 0.000148 -0.000021 -0.000501
N -3.230281 1.804446 6.917230 -0.000072 0.000187 0.000027
N -3.192264 1.790804 -3.308219 -0.000044 0.000043 -0.000092
N -0.060249 -3.714077 1.765049 0.000007 -0.000042 0.000211
N -0.028556 -3.741481 6.864793 -0.000184 -0.000076 0.000243
N 0.019194 -3.720679 -3.343689 -0.000042 -0.000064 -0.000136
N -1.606605 -0.903598 1.810239 0.000119 0.000116 -0.000479
N -1.601933 -0.943303 6.846998 -0.000108 0.000111 -0.000144
N -1.645485 -0.931072 -3.241971 -0.000002 0.000000 -0.000049
