108
Energy=-2.221908e+06 Lattice="9.613580e+00 0.000000e+00 0.000000e+00 -4.806472e+00 8.324518e+00 0.000000e+00 -4.534498e-04 1.508146e-03 1.558534e+01" Stress="-5.816006e-06 1.171129e-05 -1.489052e-05 1.458649e-05 1.260198e-07 2.651274e-06 5.046145e-06 1.184607e-05 -7.606491e-07" Properties=species:S:1:pos:R:3:forces:R:3 Config_type=AlGaN_super3_39_2_16.xyz
Al 1.584739e+00 8.937383e-01 2.453446e+00 -3.643128e-06 -1.226733e-06 -1.121205e-05
Al 1.580016e+00 8.871797e-01 7.637808e+00 -7.591023e-06 3.957318e-06 -1.504829e-05
Al 1.579615e+00 8.864787e-01 -2.733152e+00 -4.744455e-06 -7.571325e-06 -1.064205e-05
Al -1.611442e-02 3.659317e+00 2.451094e+00 -1.568807e-05 2.698663e-06 -6.841185e-06
Ga -2.884728e-02 3.663485e+00 7.637752e+00 2.333065e-07 6.034877e-06 -8.856208e-06
Ga -1.823094e-02 3.661439e+00 -2.738069e+00 -1.344351e-05 1.516409e-07 -9.607735e-06
Ga 3.191005e+00 -1.885020e+00 2.473572e+00 -2.344507e-06 6.732252e-07 2.705365e-06
Ga 3.188763e+00 -1.894144e+00 7.617549e+00 2.018489e-05 -6.090871e-06 3.339975e-05
Ga 3.182385e+00 -1.889882e+00 -2.742902e+00 -3.434996e-06 -9.442175e-09 2.250393e-06
Al -4.834309e+00 8.820736e-01 2.475130e+00 -9.613521e-07 5.809013e-06 2.700366e-05
Ga -4.820175e+00 8.870706e-01 7.635969e+00 4.055235e-05 -9.793958e-06 2.434469e-05
Ga -4.823536e+00 8.901478e-01 -2.762447e+00 1.908274e-05 4.871482e-06 7.947239e-06
Ga -6.439127e+00 3.652702e+00 2.429398e+00 -8.217124e-06 4.561051e-06 1.737962e-05
Ga -6.434647e+00 3.659043e+00 7.642653e+00 -7.011336e-06 -8.934552e-06 1.252898e-05
Ga -6.433059e+00 3.664040e+00 -2.721318e+00 -1.301135e-07 -2.005842e-05 1.171133e-05
Ga -3.241131e+00 -1.892844e+00 2.453361e+00 -2.187885e-06 3.431302e-06 4.748516e-05
Al -3.235849e+00 -1.884650e+00 7.625811e+00 -7.664256e-06 -1.924414e-06 3.018642e-06
Al -3.229571e+00 -1.896186e+00 -2.723254e+00 -4.430272e-06 -1.422572e-06 -1.089480e-05
Ga -1.624306e+00 8.965033e-01 2.463883e+00 2.403152e-06 2.774826e-06 1.507263e-05
Ga -1.636176e+00 8.947054e-01 7.642037e+00 3.979465e-06 -3.566071e-05 3.229416e-06
Ga -1.631561e+00 8.937169e-01 -2.754753e+00 4.290287e-05 1.457180e-05 9.559893e-06
Ga -3.224954e+00 3.653989e+00 2.464563e+00 1.634002e-06 -1.217025e-06 -8.937019e-06
Al -3.218548e+00 3.649569e+00 7.622306e+00 -1.266173e-05 4.115456e-06 -5.322712e-06
Al -3.231511e+00 3.652808e+00 -2.735547e+00 -1.997063e-06 6.666097e-06 -2.148360e-05
Ga -1.810072e-02 -1.890684e+00 2.444884e+00 -2.513937e-07 3.974490e-06 1.162346e-05
Ga -2.345728e-02 -1.887471e+00 7.651374e+00 -2.268761e-07 1.245592e-05 1.542310e-05
Ga -2.042357e-02 -1.894100e+00 -2.740302e+00 -6.007889e-06 4.790687e-07 1.991708e-05
Ga -2.649422e-02 1.821092e+00 5.038165e+00 -3.550704e-05 1.261795e-05 1.730182e-05
Ga -2.037670e-02 1.802905e+00 -5.343643e+00 -4.917467e-07 -4.163680e-06 1.761882e-06
Ga -9.462133e-03 1.818892e+00 -1.305569e-01 1.736729e-05 -8.490464e-06 4.964440e-06
Al 3.183422e+00 -3.747263e+00 5.041177e+00 7.131339e-06 -1.399306e-05 -3.777329e-06
Ga 3.162080e+00 -3.757495e+00 -5.341678e+00 8.251146e-06 -5.763970e-06 5.302686e-06
Ga 3.177574e+00 -3.748046e+00 -1.427007e-01 7.242411e-07 6.853487e-06 -1.174572e-05
Ga 1.591035e+00 -9.603234e-01 5.048170e+00 -4.498678e-06 2.712382e-06 7.823442e-06
Ga 1.582389e+00 -9.523604e-01 -5.343220e+00 -8.631854e-07 1.034906e-05 1.566915e-05
Ga 1.576056e+00 -9.625221e-01 -1.364275e-01 5.433690e-06 3.258512e-06 1.235060e-05
Ga 3.191081e+00 1.795476e+00 5.034894e+00 8.548020e-06 -1.744362e-05 -2.809883e-06
Ga 3.178501e+00 1.803789e+00 -5.340987e+00 -3.606040e-05 1.007876e-05 1.856150e-05
Ga 3.180306e+00 1.813278e+00 -1.307069e-01 7.203895e-06 -1.725488e-05 -8.689584e-06
Ga 6.365877e+00 -3.729831e+00 5.043668e+00 4.035756e-05 2.275314e-05 2.147808e-05
Ga 6.386076e+00 -3.724389e+00 -5.341176e+00 -6.959970e-06 1.260159e-05 -1.823720e-07
Al 6.388610e+00 -3.735058e+00 -1.403314e-01 3.603841e-06 1.321958e-05 2.188205e-05
Al 4.788323e+00 -9.575833e-01 5.045856e+00 1.987757e-05 -9.066655e-06 4.687688e-06
Ga 4.800805e+00 -9.666256e-01 -5.346649e+00 9.237399e-06 2.502306e-06 9.950060e-06
Ga 4.792601e+00 -9.683879e-01 -1.393179e-01 1.273461e-06 1.299434e-05 1.579253e-05
Al -3.235213e+00 1.813206e+00 5.042944e+00 1.059988e-05 -3.007558e-06 -2.241498e-06
Al -3.226964e+00 1.826457e+00 -5.348142e+00 6.936868e-07 -1.554178e-06 -8.476631e-06
Ga -3.239050e+00 1.821715e+00 -1.359407e-01 3.803689e-06 2.031802e-06 6.595213e-06
Ga -5.422220e-03 -3.749693e+00 5.062090e+00 -3.300650e-05 1.922610e-05 1.569208e-05
Ga -3.888150e-03 -3.760956e+00 -5.343854e+00 4.502903e-06 -4.589962e-06 -4.027539e-06
Al -2.261083e-02 -3.745944e+00 -1.545673e-01 -7.329526e-06 7.236812e-06 4.976509e-06
Ga -1.642851e+00 -9.588420e-01 5.057703e+00 -9.123138e-07 -4.229206e-06 7.212674e-06
Ga -1.646531e+00 -9.643616e-01 -5.340026e+00 1.777369e-08 -5.915478e-06 7.831244e-06
Ga -1.631336e+00 -9.821679e-01 -1.549128e-01 -3.626940e-05 -2.648756e-05 8.912190e-06
N 1.577562e+00 8.867299e-01 4.360404e+00 3.350027e-05 -9.142625e-06 -1.849132e-05
N 1.580052e+00 8.865069e-01 -6.036955e+00 4.672000e-06 -2.173206e-06 -1.162590e-05
N 1.580582e+00 8.865749e-01 -8.198049e-01 3.873423e-06 -1.455757e-05 8.102544e-06
N -6.323945e-02 3.686381e+00 4.376063e+00 -2.927627e-05 -1.885735e-05 -2.315812e-06
N -2.488580e-02 3.661299e+00 -5.970090e+00 9.560691e-07 -1.289365e-05 4.265503e-06
N 2.006786e-02 3.684173e+00 -7.581138e-01 6.876301e-06 -1.424076e-05 5.002874e-06
N 3.226423e+00 -1.914551e+00 4.466150e+00 -1.087386e-05 8.339693e-07 -2.491676e-06
N 3.185305e+00 -1.895033e+00 -5.980562e+00 -3.381791e-06 3.685344e-06 -1.343508e-05
N 3.181519e+00 -1.890735e+00 -7.684640e-01 1.295520e-06 -5.571204e-07 -3.506580e-06
N -4.786183e+00 8.607205e-01 4.406393e+00 -3.317209e-05 3.815995e-06 2.573070e-06
N -4.785322e+00 9.090132e-01 -5.957483e+00 3.123104e-05 -3.403084e-05 -6.327026e-06
N -4.829894e+00 8.863662e-01 -7.891201e-01 -6.318025e-08 1.987340e-06 -2.078891e-06
N -6.432262e+00 3.665254e+00 4.412023e+00 5.109682e-07 -1.214695e-06 -1.278451e-05
N -6.433096e+00 3.658922e+00 -5.967740e+00 -7.706791e-07 1.049947e-06 1.449825e-06
N -6.434253e+00 3.705847e+00 -7.247409e-01 -2.361419e-05 7.008326e-06 7.023566e-06
N -3.270984e+00 -1.865263e+00 4.425109e+00 -6.805190e-06 -4.438623e-06 -1.286980e-05
N -3.230271e+00 -1.890034e+00 -6.047997e+00 6.362159e-06 1.127007e-05 -2.660313e-06
N -3.231964e+00 -1.940665e+00 -8.033238e-01 2.942306e-05 1.891537e-05 -4.033989e-05
N -1.667971e+00 9.112892e-01 4.443112e+00 4.883888e-06 5.048394e-07 -2.272940e-05
N -1.670355e+00 9.111072e-01 -5.952786e+00 -7.978074e-07 5.003496e-08 -9.396039e-06
N -1.626191e+00 8.920801e-01 -7.712554e-01 -2.251772e-06 -7.150102e-07 -1.655800e-05
N -3.186264e+00 3.636502e+00 4.445481e+00 2.886788e-05 -1.703057e-05 -7.622123e-07
N -3.223030e+00 3.606858e+00 -6.038313e+00 9.673349e-06 3.952311e-06 5.096329e-06
N -3.268256e+00 3.678774e+00 -8.114028e-01 2.799743e-06 -1.661102e-05 7.789405e-06
N -2.507938e-02 -1.892017e+00 4.422876e+00 1.333782e-05 6.408356e-07 -1.621380e-05
N -2.519908e-02 -1.891819e+00 -5.956506e+00 5.320534e-06 3.998043e-06 -1.096315e-05
N -1.926444e-02 -1.938797e+00 -7.578412e-01 8.649485e-06 9.307122e-06 -9.124431e-06
N 2.147800e-02 1.834870e+00 1.861704e+00 3.237515e-06 1.127039e-06 -2.153985e-06
N 1.821978e-02 1.788244e+00 7.022160e+00 -3.163673e-07 9.943655e-06 -7.412351e-07
N 2.260757e-02 1.785620e+00 -3.360684e+00 -2.831630e-05 -1.225824e-05 7.926918e-06
N 3.219703e+00 -3.764019e+00 1.840707e+00 7.610957e-07 9.165073e-06 2.279979e-05
N 3.141813e+00 -3.767439e+00 6.965901e+00 -1.888713e-06 8.715640e-07 6.095078e-06
N 3.134544e+00 -3.768934e+00 -3.355166e+00 -5.744846e-06 4.943133e-06 -3.204502e-06
N 1.584645e+00 -9.153227e-01 1.845631e+00 -1.461703e-05 1.743408e-05 -2.280319e-05
N 1.578436e+00 -9.146234e-01 7.026600e+00 -2.540253e-05 2.193804e-05 -1.324412e-05
N 1.580343e+00 -9.125351e-01 -3.359332e+00 -4.088536e-06 3.975359e-07 1.346472e-06
N 3.186061e+00 1.755670e+00 1.860805e+00 -1.341504e-06 1.160637e-05 4.655961e-07
N 3.142844e+00 1.783336e+00 7.019110e+00 -2.432046e-05 1.010596e-05 -1.707229e-05
N 3.135672e+00 1.789866e+00 -3.355991e+00 -2.883037e-06 -1.116205e-06 -1.608741e-06
N 6.341276e+00 -3.759069e+00 1.784304e+00 7.694267e-06 -2.448385e-06 -1.029211e-05
N 6.382650e+00 -3.692965e+00 7.021824e+00 -4.487946e-06 -4.151891e-06 -6.425991e-06
N 6.388722e+00 -3.688434e+00 -3.359617e+00 2.580926e-06 -2.764359e-06 2.842282e-06
N 4.782613e+00 -9.132940e-01 1.839513e+00 8.611232e-06 1.137959e-05 -9.415820e-06
N 4.825739e+00 -9.802167e-01 6.969081e+00 -8.572441e-06 -3.427699e-07 -5.912071e-06
N 4.831551e+00 -9.932947e-01 -3.362480e+00 -1.530362e-06 5.228262e-06 -1.523315e-05
N -3.274419e+00 1.786933e+00 1.843458e+00 -5.520067e-06 -6.591304e-06 -1.709554e-05
N -3.231476e+00 1.856470e+00 6.962283e+00 1.644847e-05 -8.165715e-06 -1.039766e-05
N -3.226990e+00 1.867567e+00 -3.421842e+00 -1.273265e-06 -1.179241e-05 2.622841e-06
N -1.491841e-02 -3.743843e+00 1.764594e+00 6.701769e-07 -1.066073e-05 -1.102803e-05
N 1.960289e-02 -3.763329e+00 7.038670e+00 3.036874e-06 -3.254219e-06 -9.155654e-06
N 2.047808e-02 -3.770114e+00 -3.359233e+00 2.128827e-06 4.479914e-06 -1.785924e-06
N -1.629548e+00 -9.630070e-01 1.820248e+00 -1.684814e-06 -4.469656e-06 -2.799315e-05
N -1.665750e+00 -9.849031e-01 7.035981e+00 -1.096529e-05 3.485432e-05 5.283539e-06
N -1.672950e+00 -9.916099e-01 -3.351162e+00 1.493044e-06 4.193063e-06 -1.299871e-05
