108
Energy=-1260622.886058 Lattice="9.491018 0.000000 0.000000 -4.746539 8.216299 0.000000 0.001172 0.004873 15.311030" Stress="-0.000005 -0.000001 0.000001 -0.000001 -0.000007 0.000001 0.000001 0.000001 -0.000002" Properties=species:S:1:pos:R:3:forces:R:3
Al 1.559539 0.877537 2.386877 0.000553 -0.000379 0.000532
Al 1.561038 0.885266 7.499763 -0.000604 -0.000491 0.000400
Al 1.561763 0.883440 -2.681588 0.000445 -0.000158 -0.000317
Al -0.007467 3.604876 2.427289 -0.000107 0.000435 0.000464
Al -0.014653 3.614494 7.495394 -0.000346 -0.000360 -0.000096
Al -0.027628 3.603923 -2.711441 0.000692 0.000455 -0.000577
Al 3.147154 -1.858259 2.413446 -0.000551 0.000335 -0.000243
Al 3.151404 -1.860722 7.507890 -0.000091 -0.000444 -0.000497
Ga 3.154584 -1.867562 -2.704951 -0.000027 0.000015 0.000180
Al -4.774749 0.870811 2.403746 -0.000387 0.000029 0.000292
Al -4.771187 0.873871 7.518598 -0.000228 0.000089 0.000011
Al -4.765645 0.878229 -2.718139 -0.000049 -0.000347 0.000107
Al -6.357402 3.609710 2.388294 -0.000024 -0.000008 -0.000386
Al -6.368625 3.605474 7.520652 0.000384 -0.000030 0.000329
Ga -6.361649 3.593704 -2.695785 -0.000329 0.000293 0.000123
Al -3.198876 -1.872506 2.438556 0.000002 -0.000799 0.000394
Ga -3.191071 -1.867154 7.511746 0.000075 0.000028 0.000118
Al -3.192459 -1.857384 -2.740150 0.000031 -0.000704 -0.000643
Ga -1.602058 0.885946 2.401698 0.000064 -0.000353 0.000255
Al -1.598311 0.882674 7.511303 -0.000304 -0.000398 -0.000137
Al -1.614253 0.882750 -2.702426 0.000067 0.000012 -0.000085
Ga -3.194032 3.609528 2.418651 -0.000238 -0.000100 0.000404
Ga -3.171785 3.609601 7.504714 0.000078 -0.000065 -0.000015
Al -3.175617 3.591694 -2.706307 0.000127 0.000277 -0.000091
Al -0.015084 -1.868861 2.383359 -0.000121 -0.000240 -0.000358
Al -0.022161 -1.849747 7.524946 -0.000124 -0.000107 0.000224
Ga -0.028128 -1.851919 -2.686722 0.000071 -0.000239 0.000263
Al -0.025921 1.805993 4.971842 -0.000112 0.000086 0.000392
Ga -0.027108 1.792614 -5.254356 0.000158 0.000077 0.000425
Al -0.014558 1.784505 -0.164801 -0.000544 -0.000228 -0.001030
Al 3.167202 -3.690469 4.952065 -0.000162 -0.000152 -0.000221
Al 3.159474 -3.695615 -5.254958 -0.000157 -0.000100 0.000127
Ga 3.136123 -3.708988 -0.137690 -0.000236 0.000260 0.000269
Ga 1.570311 -0.953043 4.962282 -0.000507 0.000174 -0.000036
Ga 1.572252 -0.946403 -5.269642 -0.000401 0.000324 0.000377
Al 1.560018 -0.937840 -0.127061 -0.000462 0.000057 0.000141
Ga 3.143544 1.788748 4.952043 0.000138 -0.000173 0.000001
Al 3.145505 1.778679 -5.264886 -0.000287 0.000268 0.000057
Al 3.142459 1.774599 -0.136742 -0.000192 0.000474 0.000204
Al 6.290377 -3.697809 4.947821 0.000377 -0.000500 -0.000374
Al 6.293838 -3.691421 -5.257244 0.000006 0.000036 0.000707
Ga 6.302482 -3.697773 -0.132863 -0.000036 -0.000282 0.000331
Al 4.722522 -0.950312 4.951224 -0.000298 -0.000012 0.000169
Al 4.729251 -0.946505 -5.258157 0.000089 -0.000102 0.000197
Ga 4.725488 -0.932299 -0.136719 -0.000192 0.000009 -0.000102
Al -3.185148 1.777770 4.976112 -0.000105 -0.000036 -0.000256
Al -3.191675 1.771378 -5.244859 -0.000031 0.000171 -0.000117
Al -3.200757 1.792489 -0.173808 0.000274 0.000021 -0.000381
Ga -0.031365 -3.692357 4.969369 0.000022 -0.000099 0.000266
Ga -0.029589 -3.698368 -5.260281 0.000061 -0.000158 0.000139
Al -0.014245 -3.702770 -0.142375 -0.000076 -0.000086 0.000064
Ga -1.609779 -0.943286 4.957146 -0.000069 -0.000029 0.000162
Al -1.621273 -0.943207 -5.252016 0.000083 0.000127 0.000077
Ga -1.606035 -0.944666 -0.139750 0.000023 0.000102 -0.000004
N 1.511855 0.899279 4.309254 0.000411 0.000235 -0.000678
N 1.593863 0.903470 -5.909798 0.000461 -0.000098 -0.000409
N 1.564214 0.872596 -0.753052 0.000276 0.000120 0.000303
N -0.020532 3.605184 4.348242 -0.000027 -0.000116 -0.000310
N -0.021872 3.656270 -5.897432 0.000006 0.000195 -0.000122
N -0.021023 3.569365 -0.804714 -0.000079 0.000010 -0.000068
N 3.180662 -1.884694 4.328145 0.000557 0.000001 0.000269
N 3.189997 -1.894472 -5.883057 0.000182 0.000164 0.000192
N 3.104381 -1.843415 -0.735255 -0.000026 -0.000174 0.000064
N -4.724482 0.856227 4.322165 0.000212 -0.000219 -0.000061
N -4.766758 0.872767 -5.867207 0.000132 0.000122 -0.000033
N -4.776882 0.921328 -0.795288 0.000379 -0.000332 -0.000530
N -6.389315 3.634136 4.298655 -0.000328 0.000404 0.000252
N -6.400305 3.586536 -5.873966 -0.000174 -0.000267 -0.000084
N -6.315550 3.582897 -0.716071 0.000228 -0.000093 -0.000199
N -3.227957 -1.888969 4.353573 -0.000276 0.000353 -0.000378
N -3.188203 -1.868372 -5.815806 -0.000197 -0.000046 0.000040
N -3.189033 -1.867237 -0.829926 -0.000158 0.000268 0.000202
N -1.601126 0.932649 4.377357 -0.000196 -0.000057 -0.000142
N -1.647916 0.855406 -5.880913 0.000067 -0.000076 -0.000187
N -1.608878 0.921313 -0.778859 0.000261 0.000257 0.000019
N -3.147233 3.586790 4.400550 0.000085 0.000191 -0.000152
N -3.138936 3.583023 -5.832306 0.000038 -0.000172 0.000048
N -3.224578 3.591144 -0.785228 0.000095 -0.000242 0.000055
N -0.017618 -1.864972 4.286584 0.000232 -0.000158 -0.000130
N -0.067105 -1.836582 -5.883331 0.000032 -0.000222 -0.000087
N 0.018579 -1.884625 -0.710268 0.000250 -0.000275 0.000174
N 0.018468 1.815024 1.753403 -0.000026 -0.000105 0.000750
N -0.021411 1.791580 6.899365 -0.000167 0.000003 -0.000092
N -0.019724 1.779604 -3.267282 -0.000471 0.000052 0.000242
N 3.188372 -3.676825 1.841118 -0.000531 0.000411 -0.000573
N 3.190967 -3.661603 6.867966 0.000042 0.000389 0.000255
N 3.143946 -3.739784 -3.334517 -0.000073 -0.000310 0.000007
N 1.566129 -0.949737 1.797135 -0.000046 0.000212 -0.000196
N 1.562747 -0.952214 6.950029 0.000130 0.000289 0.000019
N 1.561976 -0.902382 -3.303131 -0.000280 0.000460 0.000065
N 3.142909 1.779005 1.791107 -0.000015 0.000021 0.000337
N 3.146570 1.788709 6.936301 0.000382 0.000243 -0.000072
N 3.135754 1.733709 -3.343112 0.000025 -0.000104 -0.000019
N 6.296548 -3.687383 1.848922 0.000363 0.000459 -0.000486
N 6.308520 -3.737300 6.866441 0.000077 0.000067 0.000151
N 6.262737 -3.675955 -3.338976 -0.000219 0.000230 0.000054
N 4.726664 -0.951149 1.845686 0.000730 0.000038 0.000009
N 4.682655 -0.920377 6.875048 0.000032 -0.000220 -0.000417
N 4.758280 -0.922900 -3.343801 0.000046 0.000406 0.000091
N -3.232880 1.763163 1.738557 0.000265 0.000006 -0.000040
N -3.190612 1.734701 6.886795 0.000127 -0.000067 -0.000120
N -3.188342 1.781990 -3.319663 0.000115 -0.000076 0.000033
N -0.059136 -3.675098 1.773597 0.000396 0.000061 -0.000032
N -0.068287 -3.664539 6.948997 -0.000035 0.000002 -0.000149
N 0.014486 -3.713860 -3.293367 0.000174 -0.000149 -0.000030
N -1.616671 -0.998629 1.836830 -0.000144 0.000529 -0.000028
N -1.564776 -0.926277 6.928564 0.000314 0.000325 -0.000049
N -1.640529 -0.921166 -3.331861 -0.000077 0.000076 0.000007
