108
Energy=-1718377.662963 Lattice="9.528812 0.000000 0.000000 -4.768379 8.249813 0.000000 0.000388 -0.000652 15.391520" Stress="-0.000047 -0.000001 -0.000001 -0.000001 -0.000049 -0.000001 -0.000001 -0.000001 -0.000057" Properties=species:S:1:pos:R:3:forces:R:3
Al 1.532132 0.894476 2.430281 0.004878 -0.001273 -0.005291
Al 1.559374 0.883847 7.521346 0.000045 0.000443 0.000763
Al 1.570164 0.888223 -2.698026 0.000188 0.000543 0.000280
Al -0.041631 3.600187 2.448276 0.007095 0.003537 -0.002966
Al -0.021548 3.607485 7.501371 -0.000030 0.000056 0.000583
Al -0.009600 3.608126 -2.695986 0.000050 0.000017 0.000246
Al 3.153279 -1.885682 2.433894 0.001842 0.004955 -0.003003
Ga 3.163443 -1.869425 7.530070 -0.000324 0.000480 0.001094
Ga 3.156889 -1.861254 -2.707592 0.000065 0.000378 -0.000738
Ga -4.804583 0.869056 2.408314 -0.002062 -0.000971 -0.000181
Al -4.793762 0.875820 7.525158 0.000200 0.000280 0.000798
Al -4.795683 0.892173 -2.687156 0.000259 0.000356 0.000346
Ga -6.380665 3.611797 2.447149 -0.001159 -0.000137 -0.000688
Ga -6.388345 3.609749 7.510376 -0.000297 -0.000001 0.000730
Al -6.388618 3.604889 -2.698641 -0.000041 0.000000 0.000228
Ga -3.195994 -1.863087 2.420572 -0.001142 -0.000849 -0.000097
Ga -3.205936 -1.870648 7.517604 -0.000126 -0.000046 0.000643
Ga -3.197361 -1.875955 -2.680902 0.000060 0.000484 0.000533
Al -1.605729 0.893408 2.378059 0.005159 -0.004138 0.007679
Al -1.605498 0.897478 7.539069 0.000028 -0.000122 0.000349
Ga -1.616468 0.897608 -2.686551 0.000210 -0.000519 0.000675
Ga -3.189831 3.626423 2.439864 -0.002028 0.000827 0.000193
Ga -3.192024 3.615876 7.530624 -0.000003 -0.000406 0.000703
Ga -3.203243 3.608236 -2.702749 -0.000395 -0.000625 -0.000081
Al -0.022277 -1.859182 2.427130 -0.000256 0.000128 -0.000427
Ga -0.012583 -1.857266 7.542206 0.000169 -0.000072 0.000677
Ga -0.012892 -1.857058 -2.698455 -0.000656 -0.000208 -0.000107
Al -0.021085 1.805961 4.975806 0.001539 -0.000393 0.001316
Ga -0.023319 1.786354 -5.294636 0.000154 0.000439 0.000929
Al -0.022607 1.788632 -0.132821 0.000572 0.000556 -0.002465
Al 3.175944 -3.707999 4.968819 -0.000056 0.000389 0.000507
Ga 3.162506 -3.715534 -5.283260 0.000113 0.000035 0.000349
Ga 3.174703 -3.717802 -0.125316 -0.000286 -0.000621 -0.001909
Ga 1.581013 -0.950663 4.946728 -0.001016 -0.000444 0.000695
Al 1.571692 -0.941569 -5.281434 -0.000098 0.000233 0.000342
Ga 1.574353 -0.933977 -0.108970 -0.001253 0.000415 -0.000043
Al 3.146530 1.784396 4.987079 -0.002663 0.001884 0.000503
Ga 3.154840 1.774640 -5.274641 0.000273 0.000071 0.000847
Al 3.149683 1.782550 -0.163953 -0.000096 0.000547 -0.001681
Al 6.317325 -3.718736 4.967785 0.000347 -0.000247 -0.000191
Ga 6.322038 -3.715672 -5.268947 0.000284 -0.000188 0.000474
Ga 6.327846 -3.720116 -0.135171 0.000934 0.000216 -0.002298
Al 4.734208 -0.958093 4.980807 0.000398 -0.001170 -0.000591
Ga 4.741531 -0.933869 -5.276266 0.000113 -0.000115 0.000820
Al 4.749498 -0.935182 -0.144386 0.000579 -0.000279 -0.000561
Ga -3.201358 1.787170 4.981786 0.001315 0.000256 0.000821
Al -3.210272 1.783914 -5.295253 0.000033 -0.000035 0.000254
Al -3.205735 1.773291 -0.126387 -0.000181 0.000261 -0.003513
Al -0.025183 -3.705789 4.973324 -0.000082 0.000508 -0.000237
Ga -0.017013 -3.704514 -5.266251 -0.000074 -0.000456 0.000537
Ga -0.031868 -3.712974 -0.139734 -0.000253 -0.000183 0.000494
Ga -1.607176 -0.947699 4.971723 0.000353 -0.000005 0.000245
Ga -1.604526 -0.935794 -5.289810 -0.000491 -0.000310 0.000627
Al -1.610812 -0.934387 -0.110073 -0.000060 -0.000937 -0.002503
N 1.556993 0.932960 4.337312 0.001574 0.002230 0.000480
N 1.564897 0.832186 -5.950533 0.000206 0.000802 -0.000644
N 1.557486 0.918228 -0.777386 0.000130 0.000508 -0.000050
N -0.026995 3.615578 4.365179 0.000527 0.000272 -0.001444
N -0.020553 3.621965 -5.978814 -0.000169 0.000002 -0.000368
N -0.023563 3.571872 -0.794557 -0.000150 -0.000183 0.001155
N 3.206455 -1.899896 4.345687 -0.000717 -0.000170 -0.000743
N 3.118343 -1.851728 -5.880975 0.000314 -0.000031 -0.000962
N 3.192714 -1.850165 -0.738656 -0.000125 -0.000073 0.000633
N -4.834794 0.852300 4.385644 0.000566 0.000508 -0.001680
N -4.755088 0.902706 -5.954024 -0.000187 -0.000007 -0.000152
N -4.785176 0.881756 -0.758639 0.000210 0.000128 0.000098
N -6.377830 3.620513 4.429571 -0.000037 -0.001852 -0.000425
N -6.378452 3.622085 -5.909401 -0.000237 -0.000019 -0.000544
N -6.379131 3.577144 -0.794027 0.000057 -0.000014 0.000455
N -3.238141 -1.892453 4.400523 -0.000141 0.000144 -0.000813
N -3.199839 -1.877361 -5.903440 -0.000293 0.000234 -0.000853
N -3.188218 -1.825219 -0.701226 -0.000742 0.000073 -0.000842
N -1.561824 0.911044 4.321354 -0.003040 -0.000464 -0.007153
N -1.653590 0.912340 -5.940144 0.000695 -0.000240 -0.000305
N -1.613726 0.882541 -0.696391 -0.000018 0.000267 0.000002
N -3.196828 3.672034 4.413252 -0.000451 -0.000831 -0.001474
N -3.201990 3.582909 -5.883731 -0.000018 0.000120 -0.000627
N -3.196856 3.574238 -0.729982 -0.000177 -0.000315 0.000086
N -0.024515 -1.915993 4.329521 0.000085 -0.000360 -0.000206
N 0.025726 -1.847815 -5.876790 -0.000489 -0.000391 -0.000834
N -0.055937 -1.837929 -0.729183 0.000010 -0.000627 -0.000034
N -0.031878 1.800854 1.785067 0.001826 0.000885 0.003075
N -0.024355 1.785865 6.907806 0.000411 0.000783 -0.000564
N 0.018037 1.811508 -3.308367 -0.000255 0.000128 -0.000500
N 3.196868 -3.700489 1.845181 0.001587 0.003697 0.002681
N 3.199917 -3.729874 6.881085 -0.000069 0.000594 -0.000365
N 3.204041 -3.735983 -3.307280 -0.000104 0.000622 0.000026
N 1.554266 -0.947736 1.872858 0.005849 -0.000434 0.003849
N 1.573241 -0.906970 6.914921 0.000026 -0.000651 -0.001335
N 1.571204 -0.898303 -3.364838 -0.000027 -0.000233 0.000632
N 3.108765 1.773923 1.743986 -0.003437 -0.001874 0.004885
N 3.148572 1.736590 6.902446 0.000015 0.000392 -0.001216
N 3.152234 1.786389 -3.278508 0.000163 -0.000224 -0.000610
N 6.303711 -3.728579 1.822817 -0.007388 -0.004410 0.006497
N 6.287072 -3.730497 6.873508 0.000311 -0.000217 -0.000757
N 6.329228 -3.753686 -3.285311 0.000059 0.000211 -0.000149
N 4.709207 -0.977007 1.756926 -0.004786 -0.002266 0.003522
N 4.740941 -0.906205 6.883863 -0.000555 -0.000926 -0.000417
N 4.750097 -0.897231 -3.303511 -0.000414 -0.000933 -0.000218
N -3.168442 1.769861 1.777649 -0.002577 0.000740 0.001865
N -3.200834 1.740779 6.950753 -0.000055 0.000578 -0.000986
N -3.247312 1.762325 -3.373750 0.000445 0.000160 0.000527
N -0.024876 -3.663570 1.835944 0.000645 -0.000574 -0.001006
N -0.019729 -3.698900 6.876431 0.000074 -0.000226 -0.000486
N -0.066509 -3.726629 -3.293932 0.000763 0.000180 0.000002
N -1.564408 -0.930015 1.798475 -0.001639 0.001581 0.002074
N -1.604351 -0.898889 6.941183 -0.000250 -0.000729 -0.000489
N -1.611169 -0.944103 -3.327676 -0.000131 -0.000115 0.000000
