108
Energy=-940193.446127 Lattice="9.469046 0.000000 0.000000 -4.743361 8.195006 0.000000 0.004063 0.004431 15.272401" Stress="0.000010 0.000013 -0.000002 0.000013 0.000016 0.000007 -0.000002 0.000007 0.000064" Properties=species:S:1:pos:R:3:forces:R:3
Al 1.549750 0.897235 2.410246 0.002341 -0.006115 0.000986
Al 1.551527 0.876913 7.480758 0.001859 -0.001024 0.000809
Al 1.540555 0.870465 -2.723171 0.000200 -0.002166 0.004725
Al -0.026831 3.611722 2.389835 0.025783 -0.005729 0.007563
Al -0.002277 3.588302 7.495812 -0.002495 0.003931 -0.007492
Al -0.031492 3.588598 -2.715084 -0.000974 -0.002131 0.008458
Al 3.151931 -1.841296 2.391757 0.008307 -0.006070 0.004131
Al 3.159097 -1.841248 7.486840 0.001058 -0.001518 0.001810
Al 3.143952 -1.863666 -2.718712 -0.000202 -0.000821 0.004357
Al -4.752204 0.896204 2.423224 -0.004741 -0.014619 0.004299
Al -4.765785 0.871676 7.483765 0.000180 -0.001247 -0.000386
Al -4.766795 0.880351 -2.715185 0.000034 -0.001066 0.003479
Al -6.368465 3.588681 2.413986 -0.000499 0.023701 0.006433
Al -6.348004 3.604474 7.481722 0.002127 0.001321 -0.003716
Al -6.351429 3.603529 -2.700767 0.003551 -0.002168 0.003568
Al -3.180551 -1.856532 2.394593 -0.011316 -0.011326 0.003842
Al -3.177759 -1.851083 7.484294 -0.000454 -0.002755 -0.000268
Ga -3.176307 -1.858932 -2.675799 -0.001923 0.001369 -0.001512
Al -1.627340 0.911149 2.396469 0.026982 -0.035225 0.007410
Al -1.623722 0.884715 7.487140 0.005594 -0.000682 0.000831
Al -1.620568 0.894999 -2.726708 0.003434 -0.000509 0.003616
Ga -3.158746 3.550376 2.433448 0.002641 0.008528 0.000270
Ga -3.198814 3.604366 7.491436 0.002938 0.003118 -0.000903
Al -3.196907 3.607665 -2.714741 0.002619 -0.000856 0.002987
Ga -0.028843 -1.912316 2.421904 -0.000813 0.008229 -0.001191
Ga -0.028505 -1.848301 7.489354 0.004754 -0.001357 -0.000010
Al -0.022823 -1.846305 -2.716990 0.005025 -0.000806 -0.001312
Al -0.015910 1.784120 4.953054 -0.005105 0.002284 0.001159
Al -0.034724 1.766087 -5.259607 -0.001981 0.000637 0.001800
Al -0.023604 1.771736 -0.138964 -0.002760 0.004219 -0.012092
Ga 3.154832 -3.671479 4.969438 -0.003283 -0.000382 -0.001628
Ga 3.140835 -3.689678 -5.250419 -0.004100 0.000407 -0.000285
Al 3.162202 -3.691567 -0.143080 0.000593 -0.001162 -0.003992
Al 1.575672 -0.936668 4.953280 -0.003264 -0.005953 -0.001047
Al 1.569051 -0.958173 -5.249832 -0.002637 0.001759 0.001539
Al 1.578066 -0.959795 -0.187172 -0.001809 0.002725 0.008391
Al 3.128906 1.792934 4.961978 0.002296 0.002086 -0.001417
Ga 3.125802 1.779840 -5.251546 -0.000443 -0.000099 0.002318
Ga 3.125014 1.775454 -0.132092 0.000566 0.002075 -0.000380
Al 6.300885 -3.678785 4.955810 -0.000045 0.002039 -0.000932
Ga 6.299384 -3.680865 -5.255908 -0.001245 0.001274 0.001663
Al 6.308465 -3.654402 -0.201235 -0.011615 -0.015435 0.021243
Al 4.729461 -0.943161 4.953468 -0.000311 0.000623 -0.000397
Al 4.723388 -0.944834 -5.258002 -0.001992 -0.000036 0.002206
Al 4.737829 -0.967426 -0.141911 -0.011196 0.008958 0.000719
Al -3.190491 1.779460 4.962397 -0.001597 0.001233 0.002029
Al -3.194478 1.776001 -5.254759 -0.001185 0.001164 0.003094
Al -3.178195 1.775551 -0.146246 -0.000158 -0.001264 -0.002799
Al -0.044782 -3.656199 4.960505 -0.000074 -0.031665 0.005799
Al -0.043611 -3.663913 -5.219085 0.005668 -0.003022 -0.002557
Ga -0.029146 -3.660776 -0.146434 0.002121 -0.003706 -0.010339
Al -1.601613 -0.937146 4.956771 0.001737 -0.005036 -0.004822
Al -1.598350 -0.938194 -5.249084 -0.002855 0.001970 0.000611
Al -1.608257 -0.963551 -0.220046 0.004833 0.012759 0.025334
N 1.552364 0.890764 4.358422 -0.002223 -0.006666 -0.006403
N 1.518161 0.855130 -5.864976 -0.004129 -0.005367 -0.002996
N 1.525210 0.855530 -0.784377 -0.004083 -0.004998 0.000569
N 0.004860 3.594526 4.338434 0.005563 -0.006462 -0.006371
N -0.022472 3.566674 -5.889850 0.000465 -0.008451 0.002688
N -0.011250 3.597941 -0.779887 -0.002033 -0.000699 0.000695
N 3.150567 -1.823199 4.336063 -0.000390 0.007780 -0.007248
N 3.145447 -1.833130 -5.864366 -0.000509 0.006943 -0.001590
N 3.155301 -1.869253 -0.780889 -0.000401 -0.000792 0.003574
N -4.761341 0.881816 4.361839 -0.000916 -0.001933 -0.003637
N -4.746513 0.857763 -5.864826 0.006930 -0.004268 -0.003886
N -4.736983 0.856184 -0.782350 0.006678 -0.003932 0.001813
N -6.347980 3.612239 4.356867 -0.000610 -0.002264 -0.004181
N -6.308744 3.622716 -5.886223 0.003395 0.002118 -0.001167
N -6.382256 3.623662 -0.781254 0.003023 0.000851 -0.009729
N -3.171217 -1.857930 4.346335 -0.001249 0.000860 -0.001338
N -3.175733 -1.829572 -5.861726 0.001529 0.006840 -0.003392
N -3.175268 -1.860909 -0.675400 -0.000389 0.002828 -0.019710
N -1.620016 0.893696 4.347609 0.009696 -0.004593 -0.004133
N -1.626649 0.882317 -5.853944 0.004133 -0.002301 -0.001169
N -1.617039 0.882099 -0.792245 0.002947 -0.003264 0.004833
N -3.231120 3.598755 4.406086 0.002794 -0.006427 -0.003711
N -3.237990 3.586249 -5.825891 -0.002866 0.000461 0.007607
N -3.169876 3.594335 -0.780816 0.009466 -0.004469 0.003325
N -0.006208 -1.955943 4.409869 -0.001687 0.053053 -0.006226
N -0.030233 -1.854517 -5.812117 0.002993 0.000319 0.006317
N -0.025331 -1.808802 -0.796283 0.003957 0.000885 -0.002506
N -0.025303 1.802616 1.761635 -0.001424 -0.009994 0.010329
N -0.019761 1.778439 6.885304 -0.004199 -0.001224 -0.002101
N -0.026908 1.778586 -3.329544 -0.002197 -0.000231 -0.001651
N 3.241271 -3.702902 1.814375 -0.030937 0.018729 -0.014792
N 3.183849 -3.653327 6.926179 0.002155 -0.001511 0.004977
N 3.145732 -3.690159 -3.287647 -0.002612 0.001317 0.006977
N 1.601699 -0.956917 1.797863 -0.004423 0.011215 -0.010434
N 1.608525 -0.934414 6.879107 -0.001214 0.004672 -0.004442
N 1.575635 -0.959673 -3.320179 -0.003739 0.002248 0.000222
N 3.156500 1.846568 1.875833 -0.007315 -0.030291 -0.008824
N 3.128909 1.789157 6.891199 -0.000351 -0.001788 -0.001042
N 3.113236 1.787105 -3.278097 0.003366 -0.000592 0.004377
N 6.291217 -3.675138 1.763467 0.001159 -0.004387 0.003444
N 6.298496 -3.678267 6.887969 -0.000558 0.001343 -0.000757
N 6.289418 -3.716212 -3.288309 -0.000597 -0.002602 0.002614
N 4.726873 -0.933831 1.764921 -0.007035 0.003319 0.009910
N 4.728364 -0.948254 6.885308 -0.001467 0.002949 -0.002546
N 4.696639 -0.937584 -3.328233 -0.005409 0.004454 -0.002185
N -3.151061 1.678966 1.828381 -0.019278 0.020730 -0.024444
N -3.190126 1.757740 6.879193 0.000273 -0.007519 -0.003185
N -3.196578 1.790213 -3.326940 -0.000487 -0.000512 0.000035
N -0.021470 -3.752888 1.773244 -0.005426 -0.000150 0.015180
N -0.052628 -3.689492 6.847759 -0.006165 -0.002382 0.004045
N -0.033882 -3.673547 -3.302148 -0.000634 -0.000032 0.000808
N -1.667434 -1.028942 1.786420 0.023265 0.035577 -0.011101
N -1.625399 -0.926079 6.880837 -0.005812 0.005997 -0.004786
N -1.576691 -0.928387 -3.323238 0.002810 0.004155 -0.000655
