108
Energy=-8.486435e+05 Lattice="9.445140e+00 0.000000e+00 0.000000e+00 -4.723974e+00 8.177110e+00 0.000000e+00 -7.785837e-03 -4.827659e-03 1.518882e+01" Stress="3.296377e-04 -5.925546e-05 -3.585705e-04 -6.188526e-05 -2.106091e-04 -2.289236e-04 -3.739071e-04 -2.323629e-04 7.067141e-04" Properties=species:S:1:pos:R:3:forces:R:3 Config_type=AlGaN_super3_9_1_66.xyz
Al 1.551068e+00 8.688103e-01 2.422089e+00 -4.249052e-05 1.402880e-04 -8.856142e-06
Al 1.552697e+00 8.752058e-01 7.443006e+00 -1.194555e-05 -2.175252e-05 -3.231152e-05
Al 1.552420e+00 8.722749e-01 -2.719116e+00 -1.519699e-05 2.281838e-05 1.770461e-05
Al -9.108010e-03 3.598595e+00 2.418619e+00 1.676016e-05 -1.513478e-04 -7.263922e-05
Al -2.768172e-02 3.592052e+00 7.441813e+00 -3.103531e-06 -1.989966e-05 -9.710569e-06
Al -2.013476e-02 3.589693e+00 -2.714300e+00 -2.048604e-06 -2.344957e-05 -9.324286e-05
Al 3.134352e+00 -1.846089e+00 2.413865e+00 7.266323e-05 3.438079e-06 -9.157342e-06
Al 3.130700e+00 -1.858936e+00 7.444222e+00 2.602693e-06 -2.878059e-06 -3.263338e-05
Al 3.126261e+00 -1.850423e+00 -2.709590e+00 1.236297e-04 2.906548e-05 -1.651902e-04
Al -4.743841e+00 8.598625e-01 2.402624e+00 -2.017576e-05 1.473521e-05 -2.190497e-05
Al -4.755072e+00 8.652269e-01 7.432008e+00 2.420539e-06 -1.745037e-05 -9.458275e-05
Al -4.751447e+00 8.685356e-01 -2.688451e+00 1.113337e-04 1.169543e-04 -1.746589e-05
Al -6.335664e+00 3.598522e+00 2.390539e+00 2.357697e-06 -2.400299e-04 -2.825258e-04
Al -6.334808e+00 3.580334e+00 7.458319e+00 8.015688e-06 -1.522824e-05 -1.443200e-05
Al -6.316956e+00 3.593073e+00 -2.699732e+00 -1.495352e-06 -1.535832e-06 1.856024e-05
Al -3.172862e+00 -1.859284e+00 2.379753e+00 1.457545e-05 2.180819e-05 -6.249864e-05
Al -3.181528e+00 -1.857411e+00 7.443063e+00 -8.872337e-05 -1.548408e-05 3.607770e-05
Ga -3.173247e+00 -1.854997e+00 -2.677836e+00 -1.185593e-06 -1.450936e-05 -1.080449e-07
Al -1.600825e+00 8.606595e-01 2.399411e+00 -9.670319e-05 -7.250509e-06 -3.379508e-05
Al -1.600011e+00 8.696671e-01 7.434474e+00 1.715227e-05 9.361563e-05 1.121174e-04
Al -1.587481e+00 8.730287e-01 -2.683932e+00 3.018715e-05 -4.455576e-05 -9.485802e-05
Ga -3.173885e+00 3.586724e+00 2.387915e+00 -1.727609e-05 -6.633168e-05 -3.275521e-05
Al -3.163767e+00 3.586959e+00 7.449716e+00 -8.599968e-06 1.307946e-05 5.230449e-05
Al -3.174326e+00 3.600271e+00 -2.685194e+00 1.297925e-05 -2.897756e-05 4.029733e-06
Al -3.162234e-02 -1.847921e+00 2.391790e+00 -2.923216e-05 8.007887e-05 7.702416e-05
Ga -2.788675e-02 -1.848753e+00 7.463231e+00 3.264105e-05 -3.643786e-05 -1.831052e-05
Al -1.696397e-02 -1.856495e+00 -2.702674e+00 -1.565473e-05 -2.247930e-05 -6.407046e-05
Al -2.649210e-02 1.776572e+00 4.920312e+00 2.961126e-06 -1.253947e-05 -4.716343e-05
Al -1.439396e-02 1.778523e+00 -5.226700e+00 -2.921294e-05 4.846660e-06 4.549205e-06
Ga -2.860881e-02 1.781218e+00 -1.385081e-01 1.515445e-05 4.941937e-05 -7.942880e-06
Al 3.138574e+00 -3.670348e+00 4.932538e+00 -5.519526e-05 -9.956177e-07 -6.314642e-05
Al 3.133468e+00 -3.664936e+00 -5.219111e+00 -2.563471e-05 -1.867000e-06 -2.144144e-05
Ga 3.137320e+00 -3.667807e+00 -1.566424e-01 -4.227524e-06 -4.725421e-05 -1.642368e-05
Al 1.557015e+00 -9.405898e-01 4.916902e+00 -3.883487e-05 -4.915426e-06 -1.903183e-04
Al 1.561309e+00 -9.433812e-01 -5.210878e+00 -4.597886e-06 1.320684e-05 -4.909751e-05
Ga 1.550454e+00 -9.547049e-01 -1.478226e-01 1.958598e-05 4.229505e-05 -1.064858e-05
Al 3.118903e+00 1.772307e+00 4.919083e+00 -1.412774e-07 2.425413e-06 -5.827713e-05
Al 3.121870e+00 1.778840e+00 -5.219107e+00 -1.261575e-05 -2.078487e-05 -3.087636e-05
Ga 3.138914e+00 1.784945e+00 -1.454624e-01 -8.597688e-06 2.135403e-05 5.608755e-05
Al 6.265808e+00 -3.671593e+00 4.925976e+00 6.133933e-05 -2.166573e-05 -4.490102e-05
Al 6.277274e+00 -3.674039e+00 -5.234064e+00 -3.603476e-05 8.047676e-06 -2.518230e-05
Al 6.282111e+00 -3.667407e+00 -1.401136e-01 -1.470901e-04 1.878195e-05 -7.418383e-06
Al 4.701273e+00 -9.513827e-01 4.919736e+00 -3.180919e-05 1.546425e-05 -3.474673e-05
Al 4.696942e+00 -9.507079e-01 -5.236079e+00 1.225926e-06 1.785467e-05 -4.032745e-05
Al 4.709289e+00 -9.438801e-01 -1.314385e-01 1.671629e-04 1.799507e-05 1.002510e-04
Al -3.169598e+00 1.761802e+00 4.937710e+00 -2.422422e-05 1.282486e-04 -6.837175e-05
Ga -3.167978e+00 1.776283e+00 -5.215295e+00 1.714083e-05 -2.845947e-05 -7.133110e-06
Al -3.175328e+00 1.763158e+00 -1.644827e-01 -7.684838e-06 3.583735e-05 4.938702e-05
Ga -3.323585e-02 -3.675670e+00 4.929055e+00 -1.845345e-06 9.929053e-06 -1.959066e-05
Al -2.330541e-02 -3.673404e+00 -5.210043e+00 1.475904e-05 1.484202e-07 -2.541118e-05
Al -3.654901e-02 -3.667626e+00 -1.595200e-01 -1.821439e-05 -1.933739e-04 4.134387e-05
Al -1.610949e+00 -9.418575e-01 4.907016e+00 4.977549e-05 -2.278774e-05 -1.397845e-04
Al -1.594424e+00 -9.470789e-01 -5.212475e+00 -1.874305e-04 2.398571e-04 1.451802e-05
Al -1.600865e+00 -9.508067e-01 -1.388903e-01 -1.667077e-04 -8.992672e-05 7.536498e-05
N 1.548225e+00 8.701871e-01 4.331563e+00 -4.109008e-06 9.051795e-06 2.412597e-05
N 1.555293e+00 8.706036e-01 -5.821429e+00 2.728206e-05 -1.970431e-05 1.443571e-05
N 1.552252e+00 8.723729e-01 -8.147712e-01 7.067747e-06 -5.211952e-05 -4.769996e-07
N -2.230868e-02 3.596336e+00 4.333927e+00 3.377629e-05 -1.431963e-05 4.174228e-05
N -2.339498e-02 3.595974e+00 -5.826036e+00 3.290758e-05 -9.976571e-06 2.191693e-05
N 2.409928e-02 3.617419e+00 -8.043071e-01 6.504069e-05 6.705387e-06 1.389924e-04
N 3.127555e+00 -1.857138e+00 4.328161e+00 3.166106e-05 2.004686e-06 2.722286e-05
N 3.126510e+00 -1.856055e+00 -5.825669e+00 -5.433012e-06 5.943873e-06 1.673449e-05
N 3.172779e+00 -1.826159e+00 -8.004538e-01 -1.156230e-04 -2.979078e-05 5.677095e-05
N -4.744060e+00 8.677309e-01 4.326044e+00 3.564684e-05 1.999522e-06 4.769364e-05
N -4.785397e+00 8.497044e-01 -5.847135e+00 4.462233e-06 2.783680e-05 9.182011e-05
N -4.709621e+00 8.389958e-01 -7.751415e-01 5.649251e-06 4.076660e-05 -5.838384e-05
N -6.368527e+00 3.572872e+00 4.298836e+00 -1.144567e-04 9.545245e-06 3.196282e-04
N -6.317949e+00 3.592803e+00 -5.816197e+00 3.289260e-05 -7.546352e-06 1.423248e-05
N -6.324364e+00 3.642445e+00 -7.807061e-01 4.232741e-05 -5.363738e-05 -3.523314e-05
N -3.175684e+00 -1.861010e+00 4.305681e+00 3.458036e-05 -1.454980e-05 5.026747e-05
N -3.166209e+00 -1.853043e+00 -5.824510e+00 1.777417e-05 -1.671093e-05 -9.983781e-07
N -3.172227e+00 -1.855509e+00 -6.925505e-01 1.088469e-04 4.519038e-05 1.525846e-05
N -1.603349e+00 8.704192e-01 4.318156e+00 2.155058e-05 1.122480e-05 3.844375e-05
N -1.552516e+00 8.460830e-01 -5.844826e+00 7.475462e-06 -9.094310e-05 -1.128582e-04
N -1.629885e+00 8.428458e-01 -7.697837e-01 2.907306e-05 1.266024e-05 -5.956748e-05
N -3.132233e+00 3.566951e+00 4.358132e+00 2.843913e-05 -1.477790e-04 9.212747e-05
N -3.165747e+00 3.643202e+00 -5.829075e+00 6.995562e-06 3.569786e-06 -8.191532e-05
N -3.212606e+00 3.575597e+00 -7.623241e-01 4.918697e-06 -4.643718e-05 -6.628667e-05
N -2.648601e-02 -1.810059e+00 4.304886e+00 -7.196719e-05 3.265889e-05 1.021480e-04
N -1.886447e-02 -1.851864e+00 -5.755108e+00 1.425241e-04 -1.439756e-04 2.304429e-05
N -6.396269e-02 -1.875638e+00 -7.801393e-01 -2.036190e-05 2.075180e-04 -2.996828e-05
N -2.293153e-02 1.778938e+00 1.847447e+00 1.272577e-05 1.471983e-04 2.614929e-05
N -2.489477e-02 1.775889e+00 6.840782e+00 -1.020462e-05 2.582661e-05 1.431660e-05
N -2.595722e-02 1.777482e+00 -3.307567e+00 4.544103e-06 1.741006e-06 7.454620e-06
N 3.172939e+00 -3.647458e+00 1.818823e+00 8.026338e-06 -2.297970e-05 2.301694e-05
N 3.126611e+00 -3.673427e+00 6.848425e+00 -8.607134e-06 3.079837e-05 2.752502e-05
N 3.125741e+00 -3.673299e+00 -3.295093e+00 6.451078e-08 4.144737e-05 1.184300e-05
N 1.554349e+00 -9.470845e-01 1.838357e+00 -8.135166e-05 -9.361879e-05 -6.505675e-05
N 1.589741e+00 -9.262090e-01 6.828853e+00 -7.688869e-06 1.725802e-05 2.019626e-04
N 1.555103e+00 -9.475061e-01 -3.296162e+00 -1.376503e-05 9.062111e-06 7.285121e-06
N 3.125024e+00 1.773903e+00 1.838812e+00 9.415985e-05 1.968966e-04 3.581278e-05
N 3.120170e+00 1.778311e+00 6.837401e+00 -5.397539e-06 3.032212e-05 5.645536e-06
N 3.131508e+00 1.780309e+00 -3.298651e+00 -8.850259e-06 1.867670e-05 1.100706e-05
N 6.269885e+00 -3.678216e+00 1.781506e+00 -1.963405e-05 1.184174e-05 3.165307e-05
N 6.272581e+00 -3.674823e+00 6.848713e+00 1.072989e-05 1.726921e-05 8.277356e-06
N 6.278414e+00 -3.714791e+00 -3.324926e+00 5.233476e-06 7.467888e-06 1.688782e-05
N 4.694833e+00 -9.460833e-01 1.791924e+00 2.590961e-05 -2.346641e-06 4.887892e-05
N 4.697874e+00 -9.528196e-01 6.838545e+00 4.344921e-07 1.859669e-05 2.880597e-05
N 4.665940e+00 -9.219860e-01 -3.326924e+00 -1.545845e-04 -1.586858e-04 3.757014e-05
N -3.173275e+00 1.724037e+00 1.755498e+00 5.046225e-05 -4.032424e-05 5.233723e-05
N -3.174917e+00 1.772698e+00 6.853870e+00 4.684609e-06 4.884855e-05 1.029601e-05
N -3.169011e+00 1.777862e+00 -3.238362e+00 -8.438383e-05 3.402875e-05 6.548275e-05
N -6.710197e-02 -3.648800e+00 1.764185e+00 3.484492e-05 -4.314611e-06 1.061710e-05
N -3.041304e-02 -3.721924e+00 6.891825e+00 1.671064e-05 2.473020e-06 4.219929e-05
N -2.017797e-02 -3.676497e+00 -3.292443e+00 -2.182067e-05 2.915035e-05 9.928459e-07
N -1.595982e+00 -9.456128e-01 1.784891e+00 -3.143122e-06 -2.377493e-06 2.221310e-05
N -1.643610e+00 -9.289841e-01 6.818092e+00 5.548897e-05 -7.025612e-05 -2.697442e-05
N -1.561182e+00 -9.211773e-01 -3.305263e+00 6.397767e-05 -5.061066e-05 6.281523e-05
