108
Energy=-1.169072e+06 Lattice="9.481824e+00 0.000000e+00 0.000000e+00 -4.742765e+00 8.213091e+00 0.000000e+00 -7.006257e-04 1.763564e-03 1.528089e+01" Stress="1.608405e-04 -1.427109e-04 -2.104607e-05 -1.525762e-04 4.080258e-04 1.384161e-04 -1.421681e-05 1.385840e-04 -3.729823e-04" Properties=species:S:1:pos:R:3:forces:R:3 Config_type=AlGaN_super3_16_0_34.xyz
Al 1.553870e+00 8.725080e-01 2.409871e+00 8.735393e-05 1.097004e-04 -5.164475e-05
Al 1.559131e+00 8.681778e-01 7.484430e+00 2.435844e-04 2.870692e-06 4.823611e-05
Al 1.542243e+00 8.822193e-01 -2.705147e+00 -1.048854e-04 -3.526402e-05 1.276343e-04
Al -2.209390e-02 3.614135e+00 2.378048e+00 -3.365398e-05 2.072012e-05 -1.403293e-05
Al -2.385323e-02 3.609307e+00 7.485992e+00 -1.403542e-05 1.069809e-04 -1.262812e-04
Al -1.359557e-02 3.594871e+00 -2.673335e+00 -5.675421e-05 -1.503929e-05 8.214627e-06
Al 3.135818e+00 -1.870087e+00 2.399705e+00 9.653830e-05 -4.647461e-05 -1.321583e-05
Al 3.129887e+00 -1.860423e+00 7.468179e+00 4.040236e-05 -2.686837e-06 1.573563e-04
Al 3.140045e+00 -1.861749e+00 -2.671739e+00 3.027426e-05 -5.191035e-05 -1.291831e-05
Al -4.761721e+00 8.735523e-01 2.382171e+00 -3.882848e-05 1.096646e-05 -8.796565e-05
Al -4.782102e+00 8.696424e-01 7.498424e+00 2.580547e-05 -4.516411e-05 -7.639884e-05
Ga -4.778704e+00 8.636855e-01 -2.678045e+00 5.813856e-05 -1.294942e-05 1.036738e-05
Al -6.347290e+00 3.617217e+00 2.408359e+00 1.025781e-05 -4.672246e-05 -4.079963e-05
Ga -6.348585e+00 3.603393e+00 7.483358e+00 -9.314959e-06 -2.137260e-05 -2.235585e-05
Al -6.354599e+00 3.615527e+00 -2.698901e+00 1.558433e-05 8.581048e-06 1.538886e-05
Al -3.186381e+00 -1.874871e+00 2.384635e+00 3.507478e-05 6.760350e-05 -2.379612e-05
Ga -3.185494e+00 -1.864408e+00 7.512919e+00 -1.384484e-05 5.779149e-06 -6.241931e-06
Ga -3.187083e+00 -1.873622e+00 -2.700440e+00 -2.325840e-05 -6.240455e-06 1.847794e-05
Al -1.599316e+00 8.812923e-01 2.379210e+00 -2.503147e-05 -9.842471e-05 -1.184941e-04
Al -1.587735e+00 8.719232e-01 7.509285e+00 -9.080287e-05 -5.923515e-05 -1.449687e-04
Al -1.575733e+00 8.765386e-01 -2.687394e+00 1.897245e-05 7.025906e-05 1.370544e-04
Al -3.181813e+00 3.616223e+00 2.380510e+00 3.643141e-05 1.139630e-05 -3.221682e-05
Ga -3.178177e+00 3.624920e+00 7.482534e+00 1.621565e-05 2.246174e-07 -6.244304e-06
Ga -3.190178e+00 3.624289e+00 -2.664414e+00 1.171412e-05 -6.463047e-06 5.359485e-05
Al -1.546430e-02 -1.869711e+00 2.405703e+00 -6.137344e-05 7.106158e-05 -3.934852e-05
Al -1.180370e-02 -1.855807e+00 7.486654e+00 -6.745677e-05 1.775253e-05 -5.030398e-05
Al -2.294230e-02 -1.864990e+00 -2.694130e+00 1.556831e-05 3.886374e-06 -1.349793e-04
Ga -1.092214e-02 1.798247e+00 4.943063e+00 -1.161690e-05 5.790058e-05 1.556075e-05
Al -1.169303e-02 1.789806e+00 -5.248366e+00 -3.409476e-05 3.983466e-06 7.819639e-05
Al -2.732016e-02 1.800677e+00 -1.393726e-01 -1.611479e-05 2.079081e-05 -4.193566e-05
Al 3.141030e+00 -3.682834e+00 4.920768e+00 -5.739621e-05 6.840557e-05 1.989946e-05
Ga 3.161041e+00 -3.683785e+00 -5.227592e+00 -3.174338e-05 7.664639e-05 3.683996e-05
Al 3.150845e+00 -3.692504e+00 -1.378101e-01 -4.736388e-06 -2.841083e-05 4.752440e-05
Al 1.560567e+00 -9.599715e-01 4.939838e+00 1.420236e-04 -1.403757e-04 -7.907806e-05
Ga 1.556849e+00 -9.480934e-01 -5.240615e+00 1.733293e-05 -3.130433e-05 1.860688e-05
Ga 1.561776e+00 -9.559580e-01 -1.452593e-01 -5.185194e-06 2.997892e-05 -2.897968e-05
Al 3.134649e+00 1.788106e+00 4.922596e+00 -1.120314e-04 1.798009e-04 2.524468e-04
Al 3.128878e+00 1.791768e+00 -5.236303e+00 8.032364e-05 -1.128510e-04 -8.605945e-05
Ga 3.130703e+00 1.801809e+00 -1.319374e-01 -9.483450e-06 -1.915757e-06 4.506989e-05
Al 6.298017e+00 -3.699280e+00 4.919477e+00 -2.994834e-05 -5.577432e-06 1.079670e-04
Al 6.301060e+00 -3.701794e+00 -5.227668e+00 8.106624e-05 -5.698845e-05 6.001933e-05
Al 6.294762e+00 -3.698779e+00 -1.394754e-01 -1.306947e-05 2.517901e-05 -2.572862e-05
Ga 4.706045e+00 -9.566385e-01 4.930966e+00 -5.661726e-05 -3.657722e-05 1.748286e-05
Al 4.712191e+00 -9.516691e-01 -5.254555e+00 -6.655791e-05 -5.788748e-05 2.640085e-05
Al 4.716746e+00 -9.646811e-01 -1.143048e-01 -1.816655e-04 -7.357171e-05 1.663630e-05
Ga -3.192031e+00 1.796636e+00 4.937761e+00 2.312081e-05 2.673387e-05 5.467147e-05
Ga -3.185223e+00 1.770517e+00 -5.243413e+00 -3.378993e-05 2.766450e-06 4.794585e-05
Al -3.173386e+00 1.790717e+00 -1.270333e-01 9.757593e-05 1.094995e-04 -1.158966e-04
Al -2.140210e-02 -3.685582e+00 4.914426e+00 -4.389734e-05 2.669147e-05 -7.042389e-05
Al -4.536208e-02 -3.681025e+00 -5.231145e+00 -7.205369e-05 1.130936e-05 7.450173e-05
Al -2.911030e-02 -3.693658e+00 -1.268414e-01 -4.310977e-05 -2.585964e-05 -4.712956e-06
Ga -1.590606e+00 -9.645181e-01 4.933284e+00 -5.013503e-05 -3.694299e-05 6.224191e-05
Al -1.593970e+00 -9.537629e-01 -5.235566e+00 3.688620e-05 -1.360515e-04 -7.377142e-05
Ga -1.605177e+00 -9.499639e-01 -1.351202e-01 -6.949439e-06 3.831395e-05 4.550079e-05
N 1.593355e+00 8.466710e-01 4.323082e+00 -5.258155e-05 1.045440e-05 -8.756581e-05
N 1.561204e+00 9.184098e-01 -5.872830e+00 5.318108e-05 -3.000291e-05 -8.561533e-05
N 1.513169e+00 9.017787e-01 -7.928099e-01 5.239640e-05 -2.482456e-05 -3.619991e-05
N -2.529284e-02 3.657012e+00 4.293349e+00 1.614756e-04 -7.204167e-05 -3.165242e-05
N 1.955826e-02 3.589738e+00 -5.877687e+00 -3.271175e-05 2.695209e-05 5.617335e-05
N -1.988689e-02 3.607775e+00 -7.470822e-01 1.009103e-05 2.265431e-05 -2.052143e-05
N 3.095581e+00 -1.888596e+00 4.310809e+00 -1.725732e-04 1.202166e-04 2.072449e-04
N 3.172086e+00 -1.846194e+00 -5.904173e+00 -9.645406e-06 5.126080e-06 -1.152643e-04
N 3.184094e+00 -1.886163e+00 -7.589237e-01 5.964900e-05 5.139326e-05 -3.132660e-05
N -4.801468e+00 8.961673e-01 4.286208e+00 1.347550e-04 -1.078048e-04 -8.329544e-05
N -4.813711e+00 8.534080e-01 -5.865516e+00 -7.184403e-05 1.282521e-04 1.459971e-04
N -4.726060e+00 8.450952e-01 -7.000326e-01 5.017608e-05 1.308165e-04 1.639009e-05
N -6.345624e+00 3.611639e+00 4.330451e+00 -2.634416e-05 1.051337e-05 -3.167439e-05
N -6.346317e+00 3.609745e+00 -5.810997e+00 7.513621e-05 2.742878e-05 4.169440e-05
N -6.344527e+00 3.661362e+00 -7.777202e-01 2.272313e-05 3.827045e-05 2.172763e-05
N -3.183465e+00 -1.912521e+00 4.293451e+00 9.026014e-06 6.928996e-06 -4.267129e-05
N -3.179800e+00 -1.870275e+00 -5.780618e+00 -6.227385e-08 9.654746e-05 9.497857e-07
N -3.226708e+00 -1.889109e+00 -7.188659e-01 1.192146e-04 -1.317297e-04 -5.923379e-06
N -1.600283e+00 8.787797e-01 4.277436e+00 4.955096e-05 4.473929e-06 6.080466e-05
N -1.555473e+00 8.483976e-01 -5.860917e+00 1.834033e-05 1.027156e-05 9.172880e-05
N -1.597711e+00 9.221768e-01 -7.655447e-01 -8.477742e-05 -2.817287e-06 4.563589e-06
N -3.181374e+00 3.657998e+00 4.304273e+00 4.980405e-05 -4.829754e-05 2.166578e-05
N -3.224750e+00 3.642514e+00 -5.825723e+00 2.750148e-05 -4.777672e-05 -2.553104e-05
N -3.188298e+00 3.615581e+00 -6.804531e-01 -1.402395e-05 -1.491886e-04 -3.216617e-06
N 2.347867e-02 -1.886960e+00 4.311446e+00 -4.131501e-06 4.232337e-05 -3.646377e-05
N -5.971256e-02 -1.890210e+00 -5.873895e+00 -2.043076e-06 7.168695e-06 2.627261e-05
N -2.449882e-02 -1.915516e+00 -7.865478e-01 1.455730e-05 -1.560455e-05 7.631812e-05
N -1.612273e-02 1.786760e+00 1.782672e+00 -3.601103e-05 -3.825669e-06 8.801931e-06
N -2.218094e-02 1.787858e+00 6.924987e+00 -2.206158e-05 5.242594e-05 -1.454034e-05
N -2.420096e-02 1.791497e+00 -3.318702e+00 -1.979861e-05 -5.391455e-06 -1.553055e-05
N 3.143037e+00 -3.686517e+00 1.781330e+00 -1.675871e-05 -3.559676e-06 2.123384e-06
N 3.184663e+00 -3.667345e+00 6.844740e+00 -3.995757e-05 -3.265961e-05 -4.518618e-05
N 3.185113e+00 -3.667261e+00 -3.250196e+00 3.434566e-06 -2.035099e-06 2.156972e-05
N 1.558498e+00 -9.492096e-01 1.832504e+00 -1.597227e-04 -1.218228e-04 -6.683690e-06
N 1.554753e+00 -9.497622e-01 6.872771e+00 6.363508e-06 -1.177898e-05 -1.703861e-05
N 1.560921e+00 -9.537981e-01 -3.249646e+00 -4.051391e-05 1.971783e-06 -5.514195e-06
N 3.130443e+00 1.792081e+00 1.842739e+00 -3.865069e-05 4.306299e-06 1.285845e-04
N 3.137055e+00 1.739235e+00 6.845644e+00 -1.289199e-04 -1.957186e-05 -6.444180e-05
N 3.096013e+00 1.808638e+00 -3.314422e+00 7.198424e-05 8.550406e-05 -6.146013e-05
N 6.304084e+00 -3.696858e+00 1.780029e+00 -3.132484e-06 5.238210e-06 -5.857848e-06
N 6.258564e+00 -3.710112e+00 6.833388e+00 1.617288e-05 -2.134630e-05 -6.519156e-05
N 6.291171e+00 -3.743846e+00 -3.314577e+00 2.321700e-05 2.708078e-05 -6.997121e-05
N 4.713991e+00 -9.566066e-01 1.801017e+00 1.395500e-05 2.883260e-06 7.774169e-06
N 4.682243e+00 -9.276736e-01 6.905205e+00 1.424058e-05 -4.880287e-06 -5.537693e-05
N 4.670016e+00 -9.751752e-01 -3.347046e+00 -2.089926e-06 -1.939970e-06 -2.152250e-05
N -3.180511e+00 1.787453e+00 1.789344e+00 -1.811638e-05 1.142179e-05 2.342760e-06
N -3.183574e+00 1.735951e+00 6.922651e+00 -6.727438e-07 -5.432463e-06 2.908400e-05
N -3.144043e+00 1.761242e+00 -3.274094e+00 -2.581314e-05 -7.919546e-06 -3.102277e-05
N -2.938578e-02 -3.688432e+00 1.793994e+00 -8.732892e-06 3.618997e-05 -7.693501e-06
N -2.548330e-02 -3.639960e+00 6.825857e+00 1.679320e-05 1.365948e-05 9.654848e-05
N -6.534480e-02 -3.664700e+00 -3.317955e+00 1.864960e-05 -5.730454e-05 -9.048597e-05
N -1.597902e+00 -9.531825e-01 1.841536e+00 1.113028e-04 -4.732006e-05 9.740346e-05
N -1.563704e+00 -9.278970e-01 6.910944e+00 3.733264e-05 -1.489738e-05 1.328131e-05
N -1.559371e+00 -9.245804e-01 -3.312474e+00 -1.014293e-05 1.777864e-05 -3.964948e-05
