108
Energy=-1.352174e+06 Lattice="9.501892e+00 0.000000e+00 0.000000e+00 -4.752379e+00 8.229467e+00 0.000000e+00 1.767091e-03 2.294706e-03 1.533811e+01" Stress="-4.912777e-04 -9.505030e-05 1.229769e-04 -9.807827e-05 -5.173520e-04 1.391248e-04 1.176875e-04 1.325062e-04 -7.846893e-05" Properties=species:S:1:pos:R:3:forces:R:3 Config_type=AlGaN_super3_20_1_28.xyz
Al 1.570513e+00 8.723032e-01 2.404274e+00 -1.238198e-04 3.956956e-05 1.432839e-04
Al 1.566059e+00 8.811239e-01 7.530959e+00 9.291377e-05 -4.348807e-04 1.682849e-05
Al 1.569679e+00 8.701609e-01 -2.720010e+00 9.126809e-05 -1.373748e-04 -1.214978e-04
Al 2.128092e-03 3.623374e+00 2.430975e+00 -1.303690e-04 7.584700e-05 -1.344165e-04
Al -8.583201e-03 3.611807e+00 7.507487e+00 -6.042337e-05 1.562429e-04 -2.548711e-04
Al -1.923616e-02 3.610278e+00 -2.708148e+00 1.066756e-06 7.804340e-05 -2.112940e-06
Al 3.150853e+00 -1.846132e+00 2.398447e+00 -1.849771e-04 3.532348e-05 3.143686e-05
Al 3.142457e+00 -1.856683e+00 7.525671e+00 -1.910789e-04 4.540993e-05 -1.353976e-04
Ga 3.131596e+00 -1.860358e+00 -2.697202e+00 -1.118953e-04 7.036660e-05 8.873052e-06
Al -4.791990e+00 8.597299e-01 2.418263e+00 1.390936e-04 1.113573e-04 8.331265e-05
Al -4.793550e+00 8.729325e-01 7.497769e+00 6.792474e-05 -6.512066e-05 4.842062e-05
Al -4.799962e+00 8.743513e-01 -2.683058e+00 3.208182e-05 3.423205e-05 -7.262411e-05
Al -6.367673e+00 3.622714e+00 2.393008e+00 2.035671e-04 3.591447e-05 -2.960503e-05
Al -6.362035e+00 3.611969e+00 7.502151e+00 -4.632570e-04 -2.290797e-06 9.680327e-05
Ga -6.364285e+00 3.595953e+00 -2.675561e+00 2.661812e-06 3.348756e-05 -2.233820e-06
Al -3.198168e+00 -1.876138e+00 2.409775e+00 -1.008475e-05 8.235167e-05 -9.165097e-06
Ga -3.189417e+00 -1.873737e+00 7.487465e+00 1.126110e-04 5.461332e-06 -1.438907e-05
Ga -3.181587e+00 -1.866536e+00 -2.675587e+00 -6.107914e-05 -2.565752e-06 7.243476e-05
Ga -1.596582e+00 8.650309e-01 2.434681e+00 -2.580378e-05 1.390085e-04 3.244010e-05
Ga -1.588835e+00 8.709743e-01 7.507593e+00 5.398296e-05 -1.836133e-04 6.145062e-06
Ga -1.588302e+00 8.648270e-01 -2.707914e+00 1.545006e-04 -1.009007e-05 -7.857342e-05
Ga -3.208821e+00 3.630349e+00 2.434331e+00 1.169759e-05 2.377263e-05 -4.565377e-05
Ga -3.199077e+00 3.627731e+00 7.503692e+00 1.096039e-04 9.510086e-06 5.884775e-05
Ga -3.185515e+00 3.626713e+00 -2.697584e+00 6.685533e-05 1.645357e-05 -1.439408e-04
Al -2.282490e-02 -1.868956e+00 2.403090e+00 7.549316e-05 -1.984930e-04 -3.183100e-05
Al -1.950402e-02 -1.864477e+00 7.508147e+00 -3.238293e-04 1.323570e-04 2.782305e-04
Al -1.702874e-02 -1.850508e+00 -2.686651e+00 1.370165e-04 -2.439580e-05 -7.794783e-05
Al -1.601319e-02 1.794982e+00 4.966334e+00 1.718335e-04 -1.739199e-04 -1.781318e-04
Al -7.433097e-03 1.789123e+00 -5.265260e+00 3.729558e-05 1.057175e-05 -1.537684e-04
Ga 3.079626e-03 1.787350e+00 -1.447638e-01 -3.290773e-05 3.113580e-05 5.705009e-05
Ga 3.163921e+00 -3.691122e+00 4.959552e+00 -2.189939e-05 1.018396e-04 6.991166e-05
Al 3.157507e+00 -3.697089e+00 -5.280379e+00 -1.374004e-05 1.951248e-05 -4.732682e-06
Ga 3.158706e+00 -3.685422e+00 -1.137276e-01 -5.309777e-05 -9.761095e-06 -3.753713e-05
Ga 1.552477e+00 -9.519011e-01 4.966610e+00 -1.354222e-05 2.715275e-05 -6.851684e-06
Al 1.547486e+00 -9.456545e-01 -5.282651e+00 -4.879625e-05 1.655862e-05 2.947314e-04
Al 1.553779e+00 -9.482041e-01 -1.365589e-01 -5.502307e-06 1.513642e-04 6.030153e-05
Ga 3.145431e+00 1.799461e+00 4.955689e+00 -7.143673e-07 -7.164983e-05 -2.872282e-05
Al 3.133080e+00 1.777318e+00 -5.281323e+00 -4.296526e-05 -6.892719e-05 -4.026905e-05
Al 3.142180e+00 1.778625e+00 -1.252044e-01 -1.577251e-04 -3.407639e-05 9.527528e-05
Al 6.320206e+00 -3.693777e+00 4.946936e+00 1.291031e-04 2.999636e-06 2.202400e-04
Ga 6.305412e+00 -3.712670e+00 -5.272518e+00 5.259856e-05 4.896174e-05 1.502210e-05
Al 6.316469e+00 -3.693733e+00 -1.188826e-01 -1.301802e-04 8.251780e-05 -1.264628e-04
Al 4.739164e+00 -9.504801e-01 4.950581e+00 -1.599440e-04 -2.898793e-04 2.755719e-05
Ga 4.716887e+00 -9.470745e-01 -5.268457e+00 -6.010399e-06 -2.789825e-05 7.153688e-05
Al 4.728763e+00 -9.458670e-01 -1.230116e-01 2.374221e-05 -2.696522e-05 -5.728310e-06
Al -3.195570e+00 1.774947e+00 4.965105e+00 1.228032e-04 -2.379795e-05 -4.811841e-05
Ga -3.196072e+00 1.778975e+00 -5.261605e+00 -5.551810e-05 -3.518830e-05 -1.899761e-05
Ga -3.211355e+00 1.775703e+00 -1.345295e-01 5.795968e-05 2.743690e-05 -2.180781e-07
Al -4.589095e-02 -3.685657e+00 4.961323e+00 -7.213164e-05 1.138593e-04 1.204253e-04
Ga -3.111918e-02 -3.677772e+00 -5.266603e+00 -1.415910e-05 6.267102e-05 5.090683e-05
Al -3.913603e-02 -3.677234e+00 -1.328546e-01 1.236955e-05 -1.831736e-04 -1.713803e-07
Al -1.608500e+00 -9.634488e-01 4.940954e+00 3.664255e-05 2.703497e-04 1.950205e-04
Al -1.582796e+00 -9.556342e-01 -5.264261e+00 1.765003e-05 -6.395455e-05 -2.106395e-05
Al -1.599536e+00 -9.775693e-01 -1.183563e-01 -5.796552e-05 1.117077e-04 6.805966e-05
N 1.522325e+00 8.958379e-01 4.310756e+00 1.555709e-04 5.617814e-05 -1.419113e-04
N 1.557896e+00 8.760302e-01 -5.881468e+00 1.510865e-05 -3.240522e-05 -7.233971e-07
N 1.608737e+00 8.479412e-01 -7.901866e-01 9.912841e-05 -3.285882e-05 1.709774e-04
N 2.533057e-02 3.594037e+00 4.337144e+00 -1.125746e-04 -1.951455e-05 1.582954e-04
N -6.199744e-02 3.587553e+00 -5.913451e+00 -9.179277e-05 -1.622247e-05 2.134290e-04
N 1.789791e-02 3.643925e+00 -7.954189e-01 8.616196e-05 4.798866e-05 7.245645e-05
N 3.182651e+00 -1.833460e+00 4.307335e+00 1.612282e-04 -8.685652e-06 2.239332e-05
N 3.101295e+00 -1.889464e+00 -5.891105e+00 -1.542514e-05 4.043222e-05 4.815974e-06
N 3.141913e+00 -1.819177e+00 -7.138605e-01 -1.545967e-05 1.838408e-05 -9.750098e-06
N -4.738443e+00 8.500326e-01 4.330120e+00 2.157414e-05 1.605697e-04 -2.641006e-05
N -4.817354e+00 8.960190e-01 -5.933447e+00 2.984435e-05 6.254074e-06 9.053037e-06
N -4.825784e+00 8.499247e-01 -7.682294e-01 4.520869e-06 -3.892216e-06 6.745121e-05
N -6.357573e+00 3.666160e+00 4.313710e+00 -4.704593e-05 -4.248027e-05 -7.355571e-05
N -6.358028e+00 3.569275e+00 -5.920404e+00 7.627298e-05 7.190384e-05 -3.624768e-05
N -6.362127e+00 3.609765e+00 -6.859080e-01 1.137592e-04 6.094885e-05 -2.418187e-05
N -3.193458e+00 -1.868858e+00 4.344016e+00 -2.289250e-05 -5.364335e-05 -4.776179e-05
N -3.147055e+00 -1.844202e+00 -5.874582e+00 -3.712227e-05 4.640488e-05 -4.503209e-05
N -3.189147e+00 -1.867532e+00 -6.866230e-01 1.394256e-05 -8.758111e-05 -8.265305e-06
N -1.600373e+00 8.770131e-01 4.415381e+00 -3.400953e-04 -6.939776e-05 -7.267679e-05
N -1.561491e+00 8.515411e-01 -5.843440e+00 6.117575e-05 7.573835e-05 -3.668418e-06
N -1.600776e+00 8.208332e-01 -7.316397e-01 -2.967168e-05 -1.117020e-04 6.442054e-05
N -3.236764e+00 3.600636e+00 4.410489e+00 4.788608e-05 -1.955526e-04 -1.026943e-05
N -3.156729e+00 3.640474e+00 -5.861789e+00 2.731777e-05 -4.429912e-05 2.242927e-05
N -3.227802e+00 3.648151e+00 -7.236098e-01 -6.914758e-05 3.190229e-05 1.129433e-04
N -5.725701e-02 -1.890519e+00 4.316931e+00 -4.988513e-05 -7.891583e-05 5.249428e-05
N -2.492648e-02 -1.820561e+00 -5.916985e+00 6.435817e-05 2.944463e-06 -2.274525e-04
N -2.095982e-02 -1.860854e+00 -7.563298e-01 -2.368789e-05 -2.713527e-05 6.028560e-05
N 2.077696e-02 1.816984e+00 1.828601e+00 1.103526e-04 -1.810377e-04 -4.284540e-05
N 2.861755e-02 1.811953e+00 6.882765e+00 -1.293014e-04 1.853105e-04 3.368781e-05
N 2.692892e-02 1.814375e+00 -3.338306e+00 -1.355107e-04 8.292533e-05 4.794845e-05
N 3.190684e+00 -3.676311e+00 1.860636e+00 1.231300e-04 6.222313e-06 2.893216e-05
N 3.194169e+00 -3.665992e+00 6.933733e+00 1.144197e-04 -1.398602e-04 7.909953e-05
N 3.192590e+00 -3.716953e+00 -3.358721e+00 3.993173e-05 6.959859e-05 4.387600e-06
N 1.555468e+00 -9.506880e-01 1.791944e+00 -1.130613e-04 1.845559e-05 -4.094248e-05
N 1.561707e+00 -9.490482e-01 6.952937e+00 3.075042e-04 2.295334e-04 1.493760e-04
N 1.515103e+00 -9.320665e-01 -3.350088e+00 -7.805240e-05 -9.632841e-05 -1.798037e-04
N 3.145008e+00 1.785201e+00 1.802616e+00 -7.797104e-06 -5.794739e-05 4.098780e-05
N 3.138315e+00 1.789639e+00 6.936486e+00 5.350773e-05 -2.539120e-05 -5.602886e-05
N 3.145901e+00 1.741355e+00 -3.352488e+00 2.229278e-05 5.140449e-05 7.988363e-06
N 6.307059e+00 -3.695774e+00 1.801646e+00 5.112984e-05 4.942614e-05 -1.946661e-05
N 6.314610e+00 -3.746699e+00 6.869332e+00 1.199664e-04 -8.624757e-05 -7.644224e-05
N 6.278394e+00 -3.720528e+00 -3.301469e+00 7.597685e-05 -1.014589e-05 -6.280294e-05
N 4.732054e+00 -9.494567e-01 1.797597e+00 -9.662391e-06 -2.174156e-05 -2.388580e-05
N 4.682540e+00 -9.322824e-01 6.873278e+00 4.704291e-05 2.065103e-04 -7.568134e-05
N 4.729766e+00 -9.083578e-01 -3.297429e+00 1.848468e-05 -4.730766e-05 -6.239678e-05
N -3.232917e+00 1.764171e+00 1.831935e+00 -4.205140e-05 -7.842657e-05 -9.936622e-05
N -3.231062e+00 1.760849e+00 6.875300e+00 -8.591542e-05 -3.428216e-05 -5.922300e-05
N -3.237198e+00 1.759829e+00 -3.285981e+00 -3.963386e-05 -5.825659e-05 1.246836e-04
N -6.451391e-02 -3.667965e+00 1.778319e+00 -1.622654e-04 2.022726e-04 -6.753857e-05
N -7.191715e-02 -3.666571e+00 6.882123e+00 1.937809e-04 -6.983167e-06 -2.592908e-04
N -3.229553e-02 -3.644734e+00 -3.291439e+00 -2.957835e-05 7.321279e-05 3.004300e-05
N -1.607056e+00 -1.002253e+00 1.796919e+00 1.168917e-04 -8.785334e-05 -1.221905e-04
N -1.561306e+00 -9.791045e-01 6.846502e+00 -8.163831e-06 -1.218898e-04 -2.635607e-05
N -1.562366e+00 -9.863929e-01 -3.352138e+00 -1.173879e-04 -5.186775e-05 2.552725e-05
