108
Energy=-2816990.080506 Lattice="9.703662 0.000000 0.000000 -4.858575 8.387963 0.000000 -0.058813 -0.020464 15.770277" Stress="0.000011 0.000002 -0.000013 0.000002 0.000003 -0.000005 -0.000013 -0.000005 0.000022" Properties=species:S:1:pos:R:3:forces:R:3
Al 1.590376 0.882620 2.473064 0.000966 0.002141 0.001780
Ga 1.560779 0.878321 7.735305 0.001119 0.000077 0.001001
Ga 1.598923 0.895916 -2.775018 0.001037 0.000099 0.000680
Ga -0.019815 3.673103 2.473742 0.000780 0.000615 0.000608
Ga -0.053283 3.671704 7.737347 0.000681 0.000198 0.000737
Ga -0.014412 3.698948 -2.772234 0.000681 -0.000150 0.000446
Ga 3.216265 -1.899871 2.479967 0.000472 -0.000105 -0.000259
Ga 3.186903 -1.914724 7.737514 0.000777 -0.000326 0.000853
Ga 3.231264 -1.898212 -2.774337 0.000575 -0.000167 0.000616
Ga -4.884747 0.885722 2.479642 0.000313 0.000367 -0.000599
Ga -4.909478 0.880443 7.739206 0.000582 -0.000035 0.000288
Ga -4.867598 0.892517 -2.772705 0.000515 -0.000025 0.000224
Ga -6.498178 3.677113 2.478759 0.000016 0.000177 -0.000517
Ga -6.525507 3.675578 7.738586 0.000148 0.000030 0.000390
Ga -6.492145 3.701946 -2.773460 0.000199 -0.000221 0.000253
Ga -3.250667 -1.906204 2.483762 0.000163 -0.000411 -0.000441
Ga -3.282125 -1.913445 7.738155 0.000316 -0.000472 0.000920
Al -3.247303 -1.896320 -2.782778 0.000579 -0.000277 0.001040
Ga -1.636476 0.888840 2.481105 0.000096 -0.000526 -0.001150
Ga -1.673126 0.883249 7.740206 0.001025 -0.000353 0.000198
Ga -1.643459 0.894723 -2.768806 0.001296 -0.000449 0.001190
Ga -3.259983 3.686494 2.487004 0.000200 -0.000181 -0.000679
Ga -3.291673 3.679226 7.739574 0.000549 -0.000291 0.000131
Ga -3.255463 3.697551 -2.772673 0.000534 -0.000388 0.000275
Ga -0.015696 -1.895069 2.481178 0.000469 -0.000479 -0.000701
Ga -0.049728 -1.909103 7.739490 0.000717 -0.000696 0.000463
Ga -0.022067 -1.892564 -2.772153 0.000945 -0.000523 0.000310
Ga -0.035321 1.805147 5.092644 0.000540 0.001215 0.001378
Ga -0.003473 1.827383 -5.400724 -0.000393 0.000973 0.000721
Ga -0.022506 1.819035 -0.136203 -0.002418 0.000294 -0.000518
Ga 3.201422 -3.780835 5.110511 0.000266 0.000715 0.000279
Ga 3.238194 -3.762397 -5.401333 -0.000255 0.000466 0.000341
Ga 3.203060 -3.770182 -0.142512 0.000784 0.000654 -0.001251
Ga 1.584342 -0.978798 5.098436 -0.000353 0.001351 0.000269
Ga 1.621707 -0.966460 -5.400412 -0.000682 0.000594 0.000024
Ga 1.587939 -0.969005 -0.134134 0.000492 0.000427 -0.000388
Ga 3.184679 1.807922 5.094576 -0.000218 0.000541 0.000900
Ga 3.227909 1.830038 -5.403100 -0.000095 0.000597 0.000627
Ga 3.190992 1.821134 -0.136688 0.001775 0.000732 -0.000411
Ga 6.432708 -3.778438 5.109408 0.000167 0.000099 0.000383
Ga 6.470073 -3.754988 -5.392732 -0.000024 -0.000118 0.000514
Ga 6.435497 -3.757476 -0.160121 0.001773 0.000606 -0.000000
Ga 4.817208 -0.983207 5.111211 -0.000295 0.000499 0.000280
Ga 4.858523 -0.967239 -5.391431 -0.000694 0.000406 0.000269
Ga 4.826800 -0.976634 -0.157497 0.001081 0.000509 -0.001003
Ga -3.277028 1.813865 5.108613 -0.000546 0.000638 0.000881
Ga -3.240279 1.833238 -5.403412 -0.000607 0.000472 0.001205
Ga -3.276759 1.829361 -0.141638 0.001646 -0.000217 -0.001310
Ga -0.036614 -3.774853 5.109342 -0.000322 0.000202 0.000626
Ga 0.001063 -3.756468 -5.402206 -0.000416 -0.000027 0.000734
Ga -0.032578 -3.764266 -0.143535 0.000896 0.000245 -0.001109
Ga -1.652282 -0.979128 5.110862 -0.000496 0.000058 0.000524
Ga -1.619224 -0.963874 -5.391908 -0.000691 0.000256 0.000759
Ga -1.658306 -0.976433 -0.156206 0.000378 0.001467 -0.000799
N 1.575214 0.880826 4.406437 0.000736 -0.000238 -0.001117
N 1.611370 0.899412 -6.047150 0.000719 -0.000233 -0.000520
N 1.584546 0.892484 -0.791898 0.000424 -0.000608 -0.000019
N -0.040399 3.678359 4.463938 0.000268 -0.000288 -0.000853
N -0.001978 3.696005 -6.041910 0.000327 -0.000321 -0.000583
N -0.035238 3.687686 -0.783549 -0.000050 -0.000536 -0.000403
N 3.201759 -1.912500 4.466000 0.000461 -0.000545 -0.000340
N 3.238958 -1.893405 -6.042695 0.000427 -0.000402 -0.000329
N 3.202354 -1.900750 -0.787742 0.000338 -0.000616 0.000654
N -4.893358 0.882661 4.465791 0.000538 -0.000088 -0.000574
N -4.857686 0.899308 -6.041791 0.000391 -0.000166 -0.000579
N -4.891239 0.896555 -0.786609 0.000509 -0.000065 0.000334
N -6.510185 3.680692 4.465902 0.000052 -0.000115 -0.000627
N -6.475318 3.698987 -6.041459 -0.000099 -0.000256 -0.000656
N -6.505397 3.689462 -0.786397 0.000151 -0.000234 0.000181
N -3.268188 -1.910222 4.468585 0.000199 -0.000388 -0.000418
N -3.232012 -1.892496 -6.046715 0.000225 -0.000427 -0.000290
N -3.265788 -1.899395 -0.856447 0.000472 -0.000452 0.001055
N -1.660510 0.886028 4.466077 0.000279 -0.000616 -0.000770
N -1.623290 0.903022 -6.041084 0.000579 -0.000734 -0.000715
N -1.653358 0.900576 -0.777239 0.001067 -0.000468 -0.001628
N -3.275963 3.683852 4.471396 -0.000065 -0.000800 -0.000683
N -3.239989 3.701634 -6.044618 0.000047 -0.000681 -0.000630
N -3.272333 3.695512 -0.788584 0.000013 -0.000635 0.000131
N -0.035704 -1.906471 4.466529 0.000099 -0.000979 -0.000432
N -0.000518 -1.887462 -6.041571 0.000209 -0.000775 -0.000565
N -0.028939 -1.894237 -0.785564 0.000541 -0.001064 0.000317
N 0.014383 1.788983 1.853448 0.001667 0.000658 0.001131
N -0.049073 1.805449 7.086714 -0.000818 0.000739 -0.000762
N -0.014659 1.826207 -3.413048 -0.001180 0.000490 -0.000713
N 3.220681 -3.772059 1.838844 -0.001177 -0.000054 0.000983
N 3.190425 -3.783298 7.097667 -0.000359 0.000556 -0.000488
N 3.226861 -3.765013 -3.415816 -0.000550 0.000390 -0.000381
N 1.606936 -0.926087 1.859592 -0.002216 -0.001193 -0.000780
N 1.573633 -0.984337 7.089243 -0.000816 0.000133 -0.000770
N 1.611157 -0.969303 -3.415987 -0.001215 -0.000073 -0.000195
N 3.171597 1.793839 1.853676 -0.002414 -0.000209 0.001294
N 3.178718 1.808783 7.088367 -0.000189 0.000304 -0.000813
N 3.219455 1.829924 -3.416522 -0.000463 0.000068 -0.000341
N 6.455639 -3.767394 1.827911 -0.001605 -0.000451 0.000319
N 6.422424 -3.780426 7.096750 -0.000191 0.000138 -0.000765
N 6.459415 -3.714079 -3.397278 -0.000502 0.000334 -0.000529
N 4.842960 -0.977859 1.826790 -0.001750 -0.000289 0.000980
N 4.806744 -0.983846 7.096678 -0.000625 -0.000118 -0.000613
N 4.885421 -0.989410 -3.397387 -0.000697 -0.000243 -0.000597
N -3.255863 1.819784 1.838567 -0.002041 0.000495 0.001786
N -3.287607 1.811667 7.096863 -0.000628 0.000348 -0.000321
N -3.250340 1.831499 -3.415980 -0.000901 0.000081 -0.000590
N -0.014234 -3.768401 1.838301 -0.001555 -0.000094 0.001381
N -0.047504 -3.777283 7.097205 -0.000406 0.000128 -0.000338
N -0.009715 -3.759043 -3.415831 -0.000689 0.000080 -0.000494
N -1.634027 -0.974987 1.828870 -0.001898 -0.000681 0.000870
N -1.662269 -0.981345 7.096768 -0.000974 0.000024 -0.000635
N -1.667141 -0.987990 -3.396766 -0.001707 -0.000113 -0.000540
