108
Energy=-985967.268874 Lattice="9.465099 0.000000 0.000000 -4.731484 8.201270 0.000000 -0.008833 0.004497 15.201772" Stress="-0.000048 0.000031 -0.000006 0.000031 -0.000008 0.000002 -0.000006 0.000002 -0.000028" Properties=species:S:1:pos:R:3:forces:R:3
Al 1.552859 0.902396 2.408168 0.001848 -0.019294 0.004012
Al 1.553924 0.897875 7.451075 -0.000151 -0.011881 -0.002836
Al 1.568557 0.893493 -2.716354 -0.002198 -0.012195 -0.009818
Al -0.019637 3.613788 2.417712 -0.001946 0.002723 -0.001873
Al -0.008941 3.603810 7.452926 -0.007387 0.002611 -0.005604
Al -0.001044 3.601686 -2.705621 -0.002232 -0.001575 -0.001418
Al 3.142491 -1.871362 2.423270 0.046019 -0.025012 0.013704
Al 3.162408 -1.864903 7.452722 -0.006911 -0.003053 -0.003461
Al 3.167353 -1.882287 -2.715360 -0.002447 0.001065 -0.001779
Al -4.788844 0.906427 2.427837 0.002067 -0.014872 -0.003395
Al -4.778817 0.886499 7.450712 0.000160 -0.003912 -0.000678
Al -4.769015 0.898742 -2.717470 0.001564 -0.010917 -0.002429
Al -6.352170 3.605503 2.437696 -0.006412 0.003105 0.001933
Al -6.345118 3.603845 7.450647 -0.005747 -0.003549 0.002081
Ga -6.333176 3.606811 -2.722135 -0.000103 -0.000333 -0.001903
Al -3.182644 -1.876330 2.448423 0.006452 0.007488 -0.007314
Ga -3.179890 -1.874321 7.463502 0.001157 0.001150 -0.001400
Ga -3.165263 -1.879118 -2.727631 -0.000045 0.001936 -0.003218
Al -1.656048 0.898890 2.407750 0.011399 0.000173 0.002636
Al -1.647730 0.899926 7.451942 0.011584 -0.006486 -0.003733
Ga -1.634383 0.900317 -2.719051 0.013944 -0.006070 -0.004109
Al -3.221838 3.613065 2.414664 0.011171 0.004180 0.000308
Ga -3.217397 3.605441 7.451696 0.013839 0.007001 -0.003775
Al -3.201335 3.606591 -2.703632 0.011309 0.004319 -0.001135
Ga -0.008840 -1.881579 2.475385 0.008384 0.007285 -0.010597
Al -0.040192 -1.866238 7.456367 0.009164 0.000774 -0.004750
Al -0.030722 -1.877654 -2.719829 0.011491 0.006854 -0.004267
Al -0.014796 1.800615 4.931818 -0.010801 -0.006007 -0.002030
Al 0.006749 1.798257 -5.235151 -0.010779 -0.007228 -0.002149
Al 0.006441 1.800520 -0.141790 -0.012212 -0.004408 -0.000831
Al 3.148505 -3.691849 4.936125 -0.010612 -0.001930 -0.009029
Ga 3.175492 -3.690738 -5.229552 -0.012180 -0.005577 -0.001154
Al 3.169469 -3.687598 -0.173235 -0.011344 -0.003495 0.013051
Al 1.581478 -0.973334 4.940520 -0.004290 0.008190 -0.000462
Al 1.608563 -0.973833 -5.233146 -0.012134 0.007057 -0.003597
Ga 1.600316 -0.970349 -0.188261 -0.008604 0.001781 0.019957
Al 3.113404 1.801464 4.938000 0.000111 -0.002295 -0.000555
Al 3.131744 1.794632 -5.237437 0.000310 -0.001833 -0.001757
Ga 3.117081 1.799388 -0.192541 0.003126 -0.001895 0.023654
Al 6.279273 -3.690323 4.942075 -0.000452 -0.000283 -0.001872
Al 6.301746 -3.695394 -5.241247 0.000059 -0.000071 0.000591
Al 6.294827 -3.681411 -0.219994 -0.001609 -0.000297 0.028160
Ga 4.714465 -0.971469 4.945852 -0.002550 0.012248 -0.005777
Al 4.733351 -0.972404 -5.232059 -0.000656 0.010657 -0.001902
Al 4.732952 -0.973419 -0.222153 -0.002777 0.011060 0.027065
Al -3.214547 1.800184 4.933479 0.002799 -0.000663 -0.001440
Al -3.204240 1.799846 -5.234664 0.002757 -0.003094 -0.001436
Al -3.212719 1.799897 -0.162386 0.005970 -0.001949 0.007437
Ga -0.054586 -3.692177 4.956426 0.003266 -0.001791 -0.001952
Ga -0.032358 -3.686890 -5.234157 0.000629 0.001390 -0.001992
Al -0.045426 -3.688779 -0.208031 0.003527 0.001460 0.025555
Al -1.607290 -0.972283 4.942221 -0.002122 0.013925 -0.002718
Al -1.592410 -0.966139 -5.234895 -0.001813 0.010085 -0.004667
Al -1.594640 -0.964225 -0.216932 0.000321 0.013579 0.024921
N 1.548312 0.899221 4.334118 -0.001578 -0.012036 0.000536
N 1.566348 0.894008 -5.832045 -0.000144 -0.011528 0.002662
N 1.553975 0.898613 -0.827810 -0.016879 -0.005515 0.007847
N -0.020063 3.608751 4.338490 -0.000635 -0.001225 -0.001330
N 0.010169 3.600946 -5.833476 0.012571 -0.008820 -0.008259
N -0.001189 3.604740 -0.783785 -0.000060 0.000221 0.001235
N 3.139892 -1.882456 4.341542 -0.014896 -0.007942 -0.004544
N 3.170954 -1.873211 -5.831196 -0.002241 0.017570 -0.006586
N 3.169469 -1.881922 -0.796419 0.014194 -0.008126 -0.006913
N -4.784639 0.908093 4.340607 0.000708 0.004761 -0.002423
N -4.768939 0.893853 -5.832447 0.001644 -0.010707 0.003530
N -4.770336 0.896477 -0.796680 0.016819 -0.019863 -0.002018
N -6.356283 3.606344 4.348239 -0.017325 -0.009433 -0.003845
N -6.335149 3.601407 -5.834746 -0.016173 -0.009357 -0.004493
N -6.339322 3.613683 -0.800423 -0.000354 0.019013 0.017620
N -3.175606 -1.880443 4.355782 0.016603 -0.007759 -0.004032
N -3.169500 -1.887982 -5.810461 0.001651 0.004739 0.017649
N -3.165791 -1.873158 -0.804075 0.001717 0.001637 0.024713
N -1.653315 0.898906 4.333441 0.012075 -0.005065 0.004941
N -1.637545 0.901027 -5.831539 0.011356 -0.006803 0.004693
N -1.620747 0.906605 -0.795067 0.004851 -0.007357 0.030259
N -3.215405 3.605931 4.340098 0.026163 -0.005143 -0.006310
N -3.197159 3.600806 -5.826746 0.013088 -0.010959 0.010102
N -3.204937 3.606643 -0.779867 0.008089 0.005423 0.003065
N -0.031350 -1.867992 4.394077 0.005645 0.022738 0.011996
N -0.030968 -1.868760 -5.831612 0.010251 0.023429 -0.003668
N -0.041406 -1.878450 -0.803018 -0.003759 -0.002614 0.001497
N -0.014319 1.806377 1.800574 -0.005303 -0.009137 -0.007531
N -0.009760 1.799155 6.852811 -0.010046 -0.005319 0.002585
N 0.011220 1.801175 -3.317124 0.003992 0.002124 -0.004326
N 3.147434 -3.678239 1.804359 -0.007075 -0.011316 -0.009640
N 3.141585 -3.667214 6.809870 0.010707 -0.001529 0.015714
N 3.170189 -3.692368 -3.301806 -0.010621 -0.004782 0.022810
N 1.705645 -1.079254 1.875325 -0.062535 0.062646 -0.030581
N 1.596125 -0.968535 6.857588 -0.012220 0.006762 0.006067
N 1.607685 -0.977852 -3.313967 -0.011794 0.006585 0.004108
N 3.107327 1.816258 1.845535 0.001938 -0.007370 -0.010368
N 3.119644 1.796125 6.854925 0.000531 -0.001853 0.000839
N 3.133034 1.792504 -3.318670 0.000554 -0.019650 -0.006308
N 6.284376 -3.682739 1.859292 0.000977 0.001172 -0.026896
N 6.284074 -3.693277 6.857313 -0.000579 -0.017158 -0.005203
N 6.289326 -3.694242 -3.325899 -0.015432 -0.009945 -0.009349
N 4.717859 -0.970411 1.860175 0.004631 0.012709 -0.025382
N 4.711833 -0.953863 6.873015 -0.012656 0.015515 0.013627
N 4.729426 -0.971303 -3.317153 -0.017723 0.020833 -0.002147
N -3.224327 1.804806 1.804069 0.003291 -0.001404 -0.012424
N -3.213192 1.791327 6.851603 0.001802 -0.020310 -0.006152
N -3.207060 1.804377 -3.314540 -0.014458 0.008116 -0.006514
N -0.079118 -3.703064 1.901222 0.010473 -0.011942 -0.042569
N -0.075771 -3.712978 6.878290 -0.006493 0.021525 0.011861
N -0.025638 -3.684725 -3.310526 0.016706 0.009253 0.015805
N -1.554869 -0.915085 1.889218 -0.026508 -0.000644 -0.036035
N -1.603667 -0.967796 6.860026 0.014471 0.020260 -0.003397
N -1.588654 -0.978367 -3.324617 0.016078 0.005448 -0.006772
