108
Energy=-757092.198001 Lattice="9.459831 0.000000 0.000000 -4.745437 8.182697 0.000000 0.004611 -0.001228 15.224137" Stress="0.000056 -0.000014 -0.000001 -0.000014 0.000040 -0.000000 -0.000001 -0.000000 0.000067" Properties=species:S:1:pos:R:3:forces:R:3
Al 1.541593 0.858195 2.418263 0.000112 0.008774 -0.006130
Al 1.545003 0.854121 7.462580 0.002509 0.005928 0.003165
Al 1.538515 0.867666 -2.710518 0.005540 0.002772 -0.008634
Al -0.037796 3.588226 2.385696 0.005611 -0.001202 0.001204
Al -0.030996 3.588162 7.458348 0.001862 0.000764 0.001653
Al -0.029734 3.581038 -2.700147 -0.000760 0.001129 0.001532
Al 3.149650 -1.865638 2.399627 -0.009338 0.005023 -0.001471
Al 3.129864 -1.861891 7.445111 0.003422 -0.001215 0.003332
Al 3.115078 -1.854831 -2.687220 0.002816 -0.003225 0.002470
Al -4.777174 0.845694 2.408004 0.006735 0.010719 -0.002827
Al -4.757938 0.872393 7.449055 0.001670 0.003067 0.001135
Al -4.774725 0.869058 -2.687151 -0.000670 0.003476 0.003548
Al -6.343266 3.586971 2.383088 0.000617 0.001736 -0.002448
Al -6.339160 3.594651 7.474827 -0.000722 -0.000636 -0.000134
Al -6.346889 3.586123 -2.694353 0.002649 -0.000880 -0.001037
Al -3.175069 -1.848817 2.368022 0.002293 -0.005880 0.001054
Al -3.160579 -1.857004 7.468688 -0.001217 -0.001987 0.000965
Ga -3.167864 -1.858286 -2.661449 0.000397 0.002360 0.000417
Al -1.586021 0.866963 2.404498 -0.002651 0.003262 -0.001693
Al -1.600416 0.876013 7.473824 -0.002799 0.002970 0.001553
Al -1.585090 0.875689 -2.701616 -0.004020 -0.001420 0.001135
Al -3.161538 3.618471 2.391840 -0.007476 -0.008236 -0.003150
Al -3.171674 3.602970 7.480864 -0.001868 -0.004150 0.000963
Ga -3.184315 3.620504 -2.693135 -0.001150 -0.003164 0.001769
Al -0.015496 -1.837357 2.380623 0.002696 -0.004644 -0.005395
Al -0.001075 -1.836176 7.490520 -0.002295 -0.004453 0.001682
Al -0.013275 -1.832894 -2.701504 -0.005245 -0.004277 -0.001057
Al -0.027587 1.773008 4.941149 0.002954 0.006280 0.002338
Al -0.038137 1.764738 -5.243755 0.003390 0.005310 0.003418
Al -0.048622 1.775187 -0.164231 0.017635 -0.001648 -0.000799
Al 3.147100 -3.687736 4.934222 0.003549 0.003147 0.002718
Al 3.134566 -3.688002 -5.247487 0.004085 0.003710 0.004209
Al 3.157994 -3.682965 -0.121674 0.003056 0.005451 -0.007553
Al 1.568644 -0.934011 4.941890 0.004959 -0.002891 0.001372
Al 1.545667 -0.950228 -5.238850 0.004641 -0.000532 0.006383
Ga 1.561693 -0.949157 -0.185729 0.002448 -0.001244 -0.002326
Al 3.112835 1.763496 4.934045 0.002229 0.003744 0.002000
Al 3.116616 1.782592 -5.238741 -0.000839 0.000717 0.003918
Al 3.101323 1.782410 -0.138984 0.006840 -0.000313 -0.006265
Al 6.276556 -3.687261 4.929077 0.001105 0.001420 0.000416
Al 6.295130 -3.693998 -5.238819 -0.002239 0.002017 0.002130
Al 6.292090 -3.680276 -0.149745 -0.001998 -0.004155 0.000333
Al 4.706649 -0.947030 4.935364 0.001157 -0.003329 0.002983
Ga 4.704637 -0.938695 -5.240648 -0.001036 -0.004225 0.004593
Al 4.712405 -0.945045 -0.108246 -0.003764 -0.001682 -0.012805
Al -3.172418 1.779858 4.924367 -0.003691 0.000510 0.003575
Al -3.178298 1.782712 -5.241412 -0.001690 0.001214 0.004257
Ga -3.170814 1.770846 -0.131275 -0.003582 -0.000472 -0.006974
Ga -0.001683 -3.677669 4.938028 -0.002549 -0.000951 0.000880
Al -0.021521 -3.662789 -5.242045 -0.000891 -0.001015 0.000926
Al -0.045820 -3.663070 -0.143761 0.004121 -0.001118 -0.001676
Ga -1.578907 -0.926818 4.932357 -0.003870 -0.006387 0.003103
Al -1.573042 -0.926068 -5.242687 -0.004846 -0.005209 0.005440
Al -1.586258 -0.942578 -0.111448 -0.000980 -0.004395 -0.009139
N 1.542881 0.864927 4.344914 0.000513 0.001212 -0.003565
N 1.539819 0.854242 -5.832491 0.001910 0.004650 -0.001955
N 1.598412 0.893433 -0.844040 -0.020015 0.009476 0.018405
N -0.031272 3.590088 4.329321 -0.000022 -0.001217 -0.002783
N -0.034213 3.590902 -5.843603 0.001236 -0.001259 -0.001026
N -0.035249 3.592236 -0.758612 0.001618 -0.002627 -0.001054
N 3.138118 -1.859358 4.344734 -0.000851 -0.000142 -0.004679
N 3.084278 -1.883725 -5.862740 0.001631 0.000714 -0.001546
N 3.194545 -1.897499 -0.767219 -0.003368 0.001301 0.001428
N -4.765766 0.856080 4.342284 0.002333 0.005084 -0.003690
N -4.765210 0.919437 -5.859322 0.002148 0.002252 -0.002309
N -4.810231 0.839442 -0.755434 0.005533 0.005696 -0.000853
N -6.380913 3.570211 4.303895 0.002902 0.000211 0.001023
N -6.343608 3.596039 -5.835786 0.001982 -0.000528 -0.001250
N -6.344354 3.596830 -0.765452 0.001292 -0.000646 0.002192
N -3.209865 -1.877446 4.309145 0.002766 0.000646 -0.003170
N -3.126117 -1.879777 -5.840091 -0.000075 0.000278 0.000185
N -3.167853 -1.856515 -0.642620 0.001137 0.002269 -0.009811
N -1.592476 0.924231 4.325243 -0.001894 -0.001737 -0.005284
N -1.604680 0.876074 -5.832171 -0.002540 0.001847 -0.003479
N -1.545094 0.820245 -0.778903 -0.006793 0.007733 -0.001196
N -3.126738 3.582387 4.317348 -0.005027 -0.002396 -0.004687
N -3.176738 3.608147 -5.819931 -0.004642 -0.004231 -0.002185
N -3.167409 3.669421 -0.688711 -0.008481 -0.007081 -0.007956
N 0.051554 -1.821130 4.279104 -0.007630 -0.002973 0.003183
N -0.008632 -1.834370 -5.823996 -0.003138 -0.005198 -0.002387
N -0.073792 -1.868510 -0.790076 0.002271 -0.003697 0.003420
N -0.033768 1.763535 1.777041 0.004578 0.004107 0.000496
N -0.032673 1.761745 6.869859 0.003422 0.003464 -0.003355
N -0.038612 1.767768 -3.313938 0.003820 0.005084 -0.001184
N 3.143453 -3.680764 1.778819 0.003513 0.005253 0.008505
N 3.135027 -3.690842 6.864162 0.002834 0.003721 -0.003992
N 3.183540 -3.654115 -3.323149 -0.000119 0.000786 -0.002140
N 1.538050 -0.903123 1.767185 0.010163 -0.016574 0.018038
N 1.558946 -0.946378 6.870718 0.000585 -0.001526 -0.007259
N 1.552107 -0.948381 -3.298806 0.001834 -0.001192 -0.002382
N 3.117175 1.764070 1.776407 -0.000430 0.001187 0.006737
N 3.122351 1.775534 6.860860 -0.001593 0.000448 -0.002181
N 3.122707 1.776998 -3.309266 -0.000005 0.001118 -0.003306
N 6.288449 -3.687068 1.761120 -0.001144 0.001287 0.008964
N 6.294761 -3.678669 6.861022 -0.000777 0.000426 -0.003004
N 6.289708 -3.731528 -3.314245 -0.001305 0.003614 0.001047
N 4.703898 -0.941106 1.781072 -0.000631 -0.003867 0.010323
N 4.720863 -0.941547 6.869936 -0.001711 -0.004317 -0.003466
N 4.645968 -0.924657 -3.249087 0.009037 -0.002241 -0.006313
N -3.157037 1.766989 1.816550 -0.008778 0.001202 0.015863
N -3.173867 1.781758 6.861413 -0.001002 0.000895 -0.002615
N -3.178648 1.730784 -3.310587 -0.002245 0.001791 0.001316
N -0.014078 -3.672326 1.776277 -0.001484 0.001398 0.006796
N -0.008564 -3.667603 6.933768 -0.000945 0.000953 -0.003975
N -0.067062 -3.639927 -3.325995 0.000660 -0.001321 0.001602
N -1.582964 -0.931438 1.782022 -0.003922 -0.003744 0.009919
N -1.579095 -0.933283 6.928655 -0.001517 -0.004839 -0.006056
N -1.545353 -0.901551 -3.314166 -0.006542 -0.007316 -0.004406
