108
Energy=-1.489494e+06 Lattice="9.476278e+00 0.000000e+00 0.000000e+00 -4.738139e+00 8.206697e+00 0.000000e+00 9.377101e-16 1.624162e-15 1.531397e+01" Stress="-3.284068e-02 5.869018e-03 -2.674919e-04 5.845129e-03 -2.665027e-02 -2.142801e-04 -2.659446e-04 -2.255672e-04 -2.485977e-02" Properties=species:S:1:pos:R:3:forces:R:3 Config_type=AlGaN_super3_23_2_0.xyz
Al 1.564294e+00 9.031460e-01 2.504900e+00 -1.099247e-03 -1.434986e-02 -1.227851e-02
Al 1.564294e+00 9.031460e-01 7.521855e+00 -1.527254e-03 -1.451826e-02 -6.172192e-03
Al 1.564294e+00 9.031460e-01 -2.775158e+00 -1.688113e-03 -1.464816e-02 -4.736497e-03
Al 2.938992e-08 3.612582e+00 2.504900e+00 -3.710627e-03 -1.132136e-03 -1.157205e-02
Al 2.938992e-08 3.612582e+00 7.521855e+00 -3.274495e-03 -1.874340e-03 -3.383424e-03
Al 2.938992e-08 3.612582e+00 -2.775158e+00 -3.132684e-03 -1.592798e-03 -3.875055e-03
Al 3.173845e+00 -1.884678e+00 2.504900e+00 -3.404127e-03 8.797441e-04 -1.256831e-02
Al 3.173845e+00 -1.884678e+00 7.521855e+00 -3.440772e-03 2.082406e-03 -5.075384e-03
Al 3.173845e+00 -1.884678e+00 -2.775158e+00 -3.730836e-03 1.769473e-03 -4.912601e-03
Al -4.783396e+00 9.031460e-01 2.504900e+00 8.920717e-04 -1.296044e-02 -1.109423e-02
Al -4.783396e+00 9.031460e-01 7.521855e+00 1.032821e-03 -1.354070e-02 -4.752876e-03
Ga -4.783396e+00 9.031460e-01 -2.775158e+00 7.010070e-04 -1.743738e-02 -5.254989e-03
Al -6.347690e+00 3.612582e+00 2.504900e+00 5.468898e-05 -3.885973e-04 -1.033973e-02
Ga -6.347690e+00 3.612582e+00 7.521855e+00 -2.367334e-04 -4.827318e-04 -1.182575e-03
Ga -6.347690e+00 3.612582e+00 -2.775158e+00 -6.258798e-04 -6.932496e-05 -1.570073e-03
Ga -3.173845e+00 -1.884678e+00 2.504900e+00 -9.062751e-04 2.648595e-03 -1.197433e-02
Ga -3.173845e+00 -1.884678e+00 7.521855e+00 -9.552669e-04 3.313348e-03 -2.315981e-03
Ga -3.173845e+00 -1.884678e+00 -2.775158e+00 -4.901393e-04 3.264872e-03 -3.631144e-03
Ga -1.654808e+00 9.031460e-01 2.504900e+00 1.619805e-02 -8.793610e-03 -1.563914e-02
Ga -1.654808e+00 9.031460e-01 7.521855e+00 1.658539e-02 -9.042755e-03 -8.951261e-03
Al -1.654808e+00 9.031460e-01 -2.775158e+00 1.413825e-02 -7.686629e-03 -6.420464e-03
Al -3.219102e+00 3.612582e+00 2.504900e+00 1.270636e-02 5.879729e-03 -1.110962e-02
Ga -3.219102e+00 3.612582e+00 7.521855e+00 1.539246e-02 8.302927e-03 -4.880139e-03
Ga -3.219102e+00 3.612582e+00 -2.775158e+00 1.564675e-02 7.988715e-03 -5.087527e-03
Ga -4.525702e-02 -1.884678e+00 2.504900e+00 1.539679e-02 1.050260e-02 -1.492992e-02
Al -4.525702e-02 -1.884678e+00 7.521855e+00 1.258330e-02 8.513323e-03 -4.986433e-03
Al -4.525702e-02 -1.884678e+00 -2.775158e+00 1.214520e-02 8.715103e-03 -5.362691e-03
Al 1.469567e-08 1.806291e+00 5.013378e+00 -1.215301e-02 -8.685847e-03 -5.964418e-03
Ga 1.469567e-08 1.806291e+00 -5.283635e+00 -1.508596e-02 -1.058408e-02 -6.503936e-03
Al 1.469567e-08 1.806291e+00 -2.666800e-01 -1.147218e-02 -8.236645e-03 3.335434e-02
Ga 3.173845e+00 -3.690969e+00 5.013378e+00 -1.529659e-02 -8.147016e-03 -6.415625e-03
Al 3.173845e+00 -3.690969e+00 -5.283635e+00 -1.210734e-02 -5.441858e-03 -4.599806e-03
Al 3.173845e+00 -3.690969e+00 -2.666800e-01 -1.200825e-02 -5.229056e-03 3.515237e-02
Al 1.609551e+00 -9.815320e-01 5.013378e+00 -1.365279e-02 8.259034e-03 -6.934425e-03
Al 1.609551e+00 -9.815320e-01 -5.283635e+00 -1.384708e-02 7.770401e-03 -7.013802e-03
Al 1.609551e+00 -9.815320e-01 -2.666800e-01 -1.351596e-02 8.149760e-03 3.215944e-02
Ga 3.128588e+00 1.806291e+00 5.013378e+00 2.066365e-04 -3.725709e-03 -4.107488e-03
Ga 3.128588e+00 1.806291e+00 -5.283635e+00 6.265163e-04 -3.068056e-03 -3.533877e-03
Al 3.128588e+00 1.806291e+00 -2.666800e-01 -2.589004e-04 -3.283084e-03 3.685508e-02
Ga 6.302433e+00 -3.690969e+00 5.013378e+00 -4.068183e-05 -7.184053e-05 -2.551985e-03
Al 6.302433e+00 -3.690969e+00 -5.283635e+00 -6.794639e-05 6.904075e-05 -2.325208e-03
Ga 6.302433e+00 -3.690969e+00 -2.666800e-01 6.691101e-06 -7.718090e-04 4.924387e-02
Al 4.738139e+00 -9.815320e-01 5.013378e+00 -1.594915e-03 1.333040e-02 -4.495657e-03
Ga 4.738139e+00 -9.815320e-01 -5.283635e+00 -4.899323e-04 1.685578e-02 -5.433744e-03
Ga 4.738139e+00 -9.815320e-01 -2.666800e-01 -1.489299e-03 1.702549e-02 4.555009e-02
Al -3.219102e+00 1.806291e+00 5.013378e+00 3.338147e-03 -1.858407e-03 -5.448527e-03
Al -3.219102e+00 1.806291e+00 -5.283635e+00 3.025475e-03 -1.680403e-03 -4.412220e-03
Ga -3.219102e+00 1.806291e+00 -2.666800e-01 3.352607e-03 -1.856026e-03 4.706563e-02
Ga -4.525703e-02 -3.690969e+00 5.013378e+00 3.375586e-03 1.048448e-03 -3.739625e-03
Ga -4.525703e-02 -3.690969e+00 -5.283635e+00 2.979535e-03 1.401825e-03 -3.074095e-03
Al -4.525703e-02 -3.690969e+00 -2.666800e-01 2.858861e-03 1.428934e-03 3.672225e-02
Ga -1.609551e+00 -9.815320e-01 5.013378e+00 1.847592e-03 1.917418e-02 -6.392638e-03
Al -1.609551e+00 -9.815320e-01 -5.283635e+00 1.203555e-03 1.441445e-02 -5.192169e-03
Al -1.609551e+00 -9.815320e-01 -2.666800e-01 1.663134e-03 1.462072e-02 3.410579e-02
N 1.564294e+00 9.031460e-01 4.418497e+00 -1.991782e-02 -2.461466e-02 -1.845275e-03
N 1.564294e+00 9.031460e-01 -5.878516e+00 -1.000253e-03 -3.572767e-02 -1.012587e-02
N 1.564294e+00 9.031460e-01 -8.615610e-01 -7.512587e-05 -1.337819e-02 6.383061e-03
N 2.938992e-08 3.612582e+00 4.418497e+00 -2.018516e-03 -2.197561e-02 -1.261276e-02
N 2.938992e-08 3.612582e+00 -5.878516e+00 -1.767837e-03 2.184585e-02 -4.944812e-03
N 2.938992e-08 3.612582e+00 -8.615610e-01 -2.070978e-02 -1.048309e-02 -3.027582e-03
N 3.173845e+00 -1.884678e+00 4.418497e+00 -2.465177e-03 2.332899e-02 -4.673164e-03
N 3.173845e+00 -1.884678e+00 -5.878516e+00 -2.164784e-02 -9.203893e-03 -5.398773e-03
N 3.173845e+00 -1.884678e+00 -8.615610e-01 -2.073990e-02 -9.353726e-03 -3.438098e-03
N -4.783396e+00 9.031460e-01 4.418497e+00 2.018155e-02 -2.436861e-02 -1.782399e-03
N -4.783396e+00 9.031460e-01 -5.878516e+00 1.932263e-02 -6.582714e-03 -9.235614e-03
N -4.783396e+00 9.031460e-01 -8.615610e-01 -1.799643e-02 -6.780402e-03 1.738769e-02
N -6.347690e+00 3.612582e+00 4.418497e+00 -8.123241e-04 5.310247e-04 -2.020027e-02
N -6.347690e+00 3.612582e+00 -5.878516e+00 -1.954224e-02 1.136147e-02 1.056137e-02
N -6.347690e+00 3.612582e+00 -8.615610e-01 1.868334e-02 -1.053861e-02 2.105299e-02
N -3.173845e+00 -1.884678e+00 4.418497e+00 -1.970607e-02 1.275798e-02 1.072666e-02
N -3.173845e+00 -1.884678e+00 -5.878516e+00 1.813144e-02 -8.839345e-03 1.811164e-02
N -3.173845e+00 -1.884678e+00 -8.615610e-01 1.730205e-02 1.271743e-02 1.393041e-02
N -1.654808e+00 9.031460e-01 4.418497e+00 1.336911e-02 9.703275e-03 2.488802e-02
N -1.654808e+00 9.031460e-01 -5.878516e+00 -1.701299e-03 -1.675693e-02 2.524983e-02
N -1.654808e+00 9.031460e-01 -8.615610e-01 3.153592e-02 -1.849097e-02 1.541874e-03
N -3.219102e+00 3.612582e+00 4.418497e+00 1.541398e-02 -1.366181e-02 -8.250625e-03
N -3.219102e+00 3.612582e+00 -5.878516e+00 3.099660e-02 -5.146484e-03 2.059512e-02
N -3.219102e+00 3.612582e+00 -8.615610e-01 1.201347e-02 2.756203e-02 2.277764e-02
N -4.525702e-02 -1.884678e+00 4.418497e+00 3.032826e-02 1.867856e-02 1.345225e-02
N -4.525702e-02 -1.884678e+00 -5.878516e+00 1.125534e-02 2.962708e-02 -2.830116e-03
N -4.525702e-02 -1.884678e+00 -8.615610e-01 1.123990e-02 6.629010e-03 6.194680e-03
N 1.469567e-08 1.806291e+00 1.910020e+00 4.254445e-03 3.974738e-04 -3.529410e-02
N 1.469567e-08 1.806291e+00 6.926975e+00 4.083692e-03 1.332824e-03 -1.221696e-03
N 1.469567e-08 1.806291e+00 -3.370038e+00 -1.130159e-02 -7.205152e-03 2.869417e-02
N 3.173845e+00 -3.690969e+00 1.910020e+00 -1.231740e-02 -5.915486e-03 -2.888573e-02
N 3.173845e+00 -3.690969e+00 6.926975e+00 3.515633e-03 2.549253e-03 2.278602e-02
N 3.173845e+00 -3.690969e+00 -3.370038e+00 3.921235e-03 2.706968e-03 -6.141839e-04
N 1.609551e+00 -9.815320e-01 1.910020e+00 1.810497e-03 1.710780e-02 -3.204862e-02
N 1.609551e+00 -9.815320e-01 6.926975e+00 -1.354414e-02 7.418568e-03 7.966697e-03
N 1.609551e+00 -9.815320e-01 -3.370038e+00 -1.323798e-02 7.884613e-03 8.139642e-03
N 3.128588e+00 1.806291e+00 1.910020e+00 1.204756e-03 -1.979295e-03 -3.231835e-02
N 3.128588e+00 1.806291e+00 6.926975e+00 1.136862e-03 -2.326127e-02 1.791033e-02
N 3.128588e+00 1.806291e+00 -3.370038e+00 -1.788034e-02 -1.296125e-02 1.040563e-02
N 6.302433e+00 -3.690969e+00 1.910020e+00 8.795823e-04 -2.241589e-02 -2.800941e-02
N 6.302433e+00 -3.690969e+00 6.926975e+00 -1.819026e-02 -1.117127e-02 1.048802e-02
N 6.302433e+00 -3.690969e+00 -3.370038e+00 -1.852560e-02 -1.143575e-02 -1.313093e-02
N 4.738139e+00 -9.815320e-01 1.910020e+00 -1.984758e-02 2.535410e-02 -2.479062e-02
N 4.738139e+00 -9.815320e-01 6.926975e+00 -1.949348e-02 2.403966e-02 -3.024120e-03
N 4.738139e+00 -9.815320e-01 -3.370038e+00 -1.942797e-02 6.695570e-03 1.423894e-02
N -3.219102e+00 1.806291e+00 1.910020e+00 -1.614462e-02 8.876026e-03 -2.853330e-02
N -3.219102e+00 1.806291e+00 6.926975e+00 -1.599522e-02 -1.244937e-02 -1.326081e-02
N -3.219102e+00 1.806291e+00 -3.370038e+00 2.132396e-02 -1.233622e-02 -1.384502e-02
N -4.525703e-02 -3.690969e+00 1.910020e+00 2.128141e-03 -2.199516e-02 -4.023332e-02
N -4.525703e-02 -3.690969e+00 6.926975e+00 1.923876e-03 2.190299e-02 1.029013e-02
N -4.525703e-02 -3.690969e+00 -3.370038e+00 2.212300e-03 2.186688e-02 1.086780e-02
N -1.609551e+00 -9.815320e-01 1.910020e+00 1.626761e-03 1.854666e-02 -5.136220e-02
N -1.609551e+00 -9.815320e-01 6.926975e+00 2.000671e-02 6.832842e-03 1.473618e-02
N -1.609551e+00 -9.815320e-01 -3.370038e+00 1.955054e-02 2.452216e-02 -2.451518e-03
