108
Energy=-985969.905886 Lattice="9.465039 0.000000 0.000000 -4.734989 8.193341 0.000000 0.001478 0.002212 15.223774" Stress="0.000004 -0.000001 0.000000 -0.000001 0.000001 0.000000 0.000001 0.000000 0.000002" Properties=species:S:1:pos:R:3:forces:R:3
Al 1.545935 0.866855 2.375454 0.000355 -0.000229 0.000158
Al 1.552220 0.872136 7.468731 0.000317 0.000632 0.000070
Al 1.551771 0.865316 -2.691986 -0.000562 -0.000132 0.000158
Al -0.032529 3.594564 2.410958 0.000072 -0.000076 0.000033
Al -0.032755 3.590393 7.437652 -0.000802 -0.000016 0.000324
Al -0.042891 3.586852 -2.682547 0.000595 0.000020 -0.000918
Al 3.131182 -1.861093 2.385007 -0.000095 0.000155 0.000762
Al 3.127617 -1.859389 7.441171 -0.000301 -0.000667 0.000342
Al 3.123595 -1.860492 -2.671140 0.000042 0.000158 0.000368
Al -4.750257 0.868610 2.385601 0.000017 0.000413 0.000055
Al -4.754288 0.881686 7.451237 0.000157 0.000308 0.000318
Al -4.761256 0.872312 -2.673531 -0.000083 0.000119 -0.000148
Al -6.339397 3.594564 2.396364 0.000329 0.000184 0.000161
Al -6.336163 3.588068 7.469131 -0.000779 0.000261 -0.000183
Ga -6.331112 3.581489 -2.683802 0.000148 0.000536 -0.000457
Al -3.185889 -1.855432 2.414067 -0.000126 -0.000436 -0.000051
Ga -3.183248 -1.852613 7.438559 0.000320 -0.000116 0.000367
Ga -3.179469 -1.843229 -2.675362 0.000322 -0.000099 -0.000617
Al -1.598917 0.884493 2.402261 -0.000071 -0.000033 0.000095
Al -1.597705 0.887665 7.453573 -0.000201 -0.000079 0.000392
Al -1.592027 0.880004 -2.696067 0.000217 0.000342 0.000077
Al -3.165023 3.593643 2.393972 -0.000296 0.000214 -0.000062
Al -3.164501 3.591539 7.467655 0.000071 0.000175 -0.000034
Ga -3.164408 3.598929 -2.695112 0.000280 -0.000237 0.000056
Al -0.012927 -1.850035 2.409868 0.000655 0.000517 0.000785
Ga -0.011783 -1.845908 7.466523 0.000014 0.000107 0.000095
Al -0.007517 -1.842215 -2.706321 -0.000307 -0.000214 -0.000757
Al -0.030136 1.776062 4.924938 -0.000074 0.000338 0.000140
Al -0.028359 1.773340 -5.236553 -0.000100 0.000297 0.000555
Al -0.025639 1.783270 -0.149483 -0.000008 -0.000066 0.000307
Al 3.140672 -3.681329 4.918972 -0.000170 0.000436 0.000562
Al 3.128162 -3.684881 -5.244068 0.000048 0.000512 0.000276
Al 3.141138 -3.679008 -0.129210 -0.000175 0.000086 0.000240
Al 1.562547 -0.944436 4.916638 0.000048 0.000276 -0.000609
Al 1.557097 -0.948088 -5.215557 0.000177 0.000385 0.000171
Al 1.569408 -0.941852 -0.151249 -0.000483 -0.000065 0.000327
Ga 3.122883 1.768174 4.926288 -0.000139 -0.000036 0.000407
Al 3.132281 1.771250 -5.240031 -0.000194 0.000150 -0.000259
Al 3.131611 1.756687 -0.129629 -0.000063 -0.000097 0.000507
Al 6.273985 -3.680484 4.916583 -0.000103 -0.000063 -0.000013
Ga 6.283957 -3.698419 -5.230706 -0.000198 -0.000031 -0.000035
Ga 6.265501 -3.693499 -0.117107 0.000106 0.000348 0.000245
Al 4.706830 -0.951872 4.912935 -0.000562 -0.000066 0.000070
Ga 4.692021 -0.935823 -5.224494 -0.000697 0.000178 0.000576
Al 4.691967 -0.937460 -0.130685 -0.000415 0.000030 0.000043
Al -3.163217 1.775236 4.925843 -0.000244 0.000231 0.000152
Al -3.175065 1.780947 -5.242386 0.000052 0.000101 0.000479
Al -3.177478 1.775567 -0.137381 0.000402 -0.000355 0.000422
Ga -0.013065 -3.680284 4.921606 -0.000041 0.000295 0.000121
Al -0.012465 -3.683285 -5.241868 0.000127 0.000513 0.000083
Ga -0.002715 -3.675187 -0.117817 -0.000269 -0.000257 0.001003
Al -1.600966 -0.932017 4.898998 -0.000122 -0.000006 0.000045
Al -1.581849 -0.927993 -5.214685 -0.000114 0.000118 -0.000137
Ga -1.587820 -0.926449 -0.122713 -0.000126 0.000115 -0.000298
N 1.508318 0.847877 4.288042 -0.000022 0.000001 0.000176
N 1.548680 0.865764 -5.830399 0.000197 -0.000081 -0.000176
N 1.553559 0.874212 -0.755974 0.000027 -0.000007 -0.000020
N -0.029377 3.595197 4.329328 -0.000048 -0.000135 -0.000319
N -0.068523 3.573515 -5.869695 -0.000299 -0.000451 -0.000277
N -0.070824 3.577577 -0.771203 -0.000201 -0.000264 0.001054
N 3.131291 -1.861565 4.310445 0.000207 -0.000203 -0.000545
N 3.087222 -1.882685 -5.866435 0.000058 -0.000227 0.000336
N 3.132838 -1.863658 -0.740999 0.000056 -0.000408 -0.000584
N -4.713406 0.851730 4.300535 0.000696 -0.000112 -0.000177
N -4.752749 0.918608 -5.863264 0.000165 -0.000042 -0.000304
N -4.756052 0.874844 -0.743955 0.000260 0.000226 -0.000044
N -6.375179 3.618891 4.295469 -0.000056 0.000229 -0.000524
N -6.295690 3.576688 -5.844675 0.000132 -0.000354 0.000244
N -6.328998 3.552609 -0.715311 -0.000026 0.000057 0.000288
N -3.182226 -1.858375 4.333523 0.000087 -0.000034 -0.000121
N -3.135860 -1.831383 -5.812919 0.000323 -0.000018 -0.000305
N -3.213371 -1.831928 -0.711217 -0.000142 -0.000138 0.000322
N -1.600124 0.883765 4.315044 0.000276 -0.000268 -0.000235
N -1.601198 0.873657 -5.843916 0.000499 -0.000189 -0.000667
N -1.600490 0.922873 -0.778439 -0.000224 0.000031 0.000740
N -3.131570 3.574812 4.305545 0.000399 -0.000614 -0.000420
N -3.173480 3.599750 -5.832226 0.000009 -0.000728 -0.000196
N -3.134282 3.578528 -0.715771 0.000192 0.000224 -0.000017
N -0.013902 -1.809935 4.315636 -0.000394 -0.000142 -0.000084
N -0.019009 -1.850352 -5.779399 -0.000312 -0.000685 0.000158
N 0.019713 -1.833806 -0.793242 0.000288 0.000039 0.000896
N -0.025834 1.783962 1.777591 -0.000203 0.000019 -0.000635
N -0.019407 1.775552 6.848301 0.000043 -0.000226 -0.000293
N -0.020211 1.780364 -3.305052 0.000011 0.000166 -0.000160
N 3.139749 -3.681298 1.791355 0.000080 0.000050 -0.000139
N 3.131309 -3.679990 6.843353 -0.000149 0.000016 -0.000307
N 3.178639 -3.653121 -3.322196 -0.000354 0.000451 -0.000559
N 1.556425 -0.953502 1.772579 -0.000213 0.000554 -0.000461
N 1.598065 -0.919956 6.826876 -0.000372 0.000314 0.000143
N 1.566903 -0.947277 -3.291614 -0.000142 -0.000119 -0.000383
N 3.131555 1.773787 1.791694 0.000030 -0.000270 -0.000379
N 3.127780 1.779219 6.903144 -0.000491 -0.000431 -0.000148
N 3.129787 1.725292 -3.320192 0.001067 0.000012 0.000095
N 6.278092 -3.682837 1.857980 0.000301 0.000513 -0.000332
N 6.283740 -3.730240 6.835815 0.002049 -0.000025 -0.000167
N 6.244930 -3.706821 -3.267006 -0.000240 -0.000216 0.000421
N 4.707504 -0.949083 1.790974 -0.000263 -0.000216 0.000074
N 4.662241 -0.920610 6.829548 0.000637 0.000149 -0.000809
N 4.659236 -0.922972 -3.251954 0.000192 -0.000075 -0.000104
N -3.175470 1.776874 1.783023 -0.000169 0.000075 -0.000661
N -3.174179 1.782634 6.850230 -0.000243 0.000271 -0.000203
N -3.180555 1.728630 -3.319875 -0.000797 0.000076 -0.000082
N -0.017443 -3.673869 1.863692 -0.000122 -0.001168 -0.001244
N -0.017702 -3.727329 6.897053 -0.000032 -0.000004 0.000004
N -0.019688 -3.638690 -3.329870 -0.000156 0.000355 0.000004
N -1.598011 -0.945078 1.856962 0.000105 -0.000065 0.000077
N -1.595584 -0.894995 6.805145 0.000139 -0.000108 0.000075
N -1.557858 -0.915904 -3.303496 0.000199 -0.000976 0.000203
