108
Energy=-482439.830570 Lattice="9.403614 0.000000 0.000000 -4.707634 8.136884 0.000000 -0.001006 -0.000483 15.074016" Stress="0.000000 -0.000002 -0.000000 -0.000002 -0.000005 -0.000000 -0.000000 -0.000000 0.000001" Properties=species:S:1:pos:R:3:forces:R:3
Al 1.537994 0.861839 2.365452 0.000517 0.000200 -0.000321
Al 1.542310 0.863951 7.387986 0.000426 0.000130 -0.000264
Al 1.545119 0.864692 -2.665310 0.000444 0.000133 -0.000127
Al -0.029867 3.574832 2.366319 0.000050 -0.000110 -0.000339
Al -0.026607 3.575743 7.388040 0.000134 -0.000074 -0.000330
Al -0.021683 3.577264 -2.665767 0.000197 0.000009 -0.000125
Al 3.109607 -1.850008 2.367616 0.000157 -0.000269 -0.000432
Al 3.113784 -1.849099 7.388287 0.000228 -0.000197 -0.000302
Al 3.117597 -1.845848 -2.666230 0.000256 -0.000183 -0.000311
Al -4.730975 0.862210 2.365553 0.000367 0.000352 -0.000361
Al -4.728756 0.865198 7.388409 0.000293 0.000153 -0.000361
Al -4.723419 0.865957 -2.665131 0.000299 0.000119 -0.000212
Al -6.299559 3.576264 2.366093 0.000235 -0.000235 -0.000396
Al -6.295410 3.576123 7.388602 0.000011 -0.000093 -0.000442
Al -6.291595 3.579208 -2.665224 0.000026 -0.000039 -0.000376
Al -3.166926 -1.852831 2.379328 0.000199 0.000214 -0.000047
Al -3.155426 -1.846780 7.387919 0.000095 -0.000173 -0.000403
Al -3.156972 -1.848375 -2.674580 0.000237 -0.000081 -0.000257
Al -1.595315 0.871036 2.375206 -0.000161 0.001987 0.001223
Al -1.593654 0.866070 7.387557 0.000151 -0.000204 -0.000290
Al -1.589139 0.873104 -2.673840 0.000038 -0.000307 -0.000415
Al -3.165690 3.576657 2.366293 0.000141 -0.000374 -0.000337
Al -3.161037 3.578847 7.388447 -0.000060 -0.000455 -0.000390
Al -3.158216 3.579681 -2.665448 0.000019 -0.000323 -0.000406
Al -0.019330 -1.849658 2.380373 0.000442 -0.000705 -0.000232
Al -0.021853 -1.845320 7.387763 -0.000018 -0.000525 -0.000349
Al -0.012910 -1.847058 -2.674663 -0.000016 -0.000404 -0.000327
Al -0.025861 1.767157 4.879067 -0.000125 0.000454 -0.000052
Al -0.022177 1.768275 -5.178111 0.000010 0.000508 -0.000297
Al -0.019605 1.776374 -0.151953 0.001643 0.000773 0.000595
Al 3.112660 -3.658502 4.877635 -0.000007 0.000436 -0.000531
Al 3.116351 -3.656673 -5.175444 0.000076 0.000432 -0.000299
Al 3.120138 -3.654032 -0.154302 -0.000213 0.000204 0.000831
Al 1.546709 -0.944884 4.881368 -0.000128 0.000173 -0.000433
Al 1.549890 -0.943079 -5.178389 -0.000176 0.000191 -0.000269
Al 1.561499 -0.942423 -0.151357 -0.000755 0.000252 0.000797
Al 3.107008 1.767693 4.876501 -0.000045 0.000123 -0.000422
Al 3.110569 1.769177 -5.174368 -0.000065 0.000171 -0.000238
Al 3.114957 1.771262 -0.152255 -0.000630 -0.000212 -0.000050
Al 6.246305 -3.658270 4.881309 -0.000014 0.000062 -0.000449
Al 6.250460 -3.656439 -5.178149 0.000005 0.000091 -0.000435
Al 6.250266 -3.660521 -0.149158 -0.000476 -0.000221 -0.000446
Al 4.677583 -0.943665 4.881253 -0.000323 -0.000101 -0.000394
Al 4.681635 -0.941584 -5.178116 -0.000260 -0.000152 -0.000366
Al 4.678183 -0.941203 -0.148654 -0.000646 -0.000049 -0.000606
Al -3.163277 1.769677 4.879750 -0.000176 0.000209 -0.000314
Al -3.159969 1.771053 -5.178061 -0.000194 0.000200 -0.000282
Al -3.156158 1.779259 -0.150306 -0.001617 0.000029 -0.000075
Al -0.022411 -3.656917 4.880810 -0.000059 0.000052 -0.000405
Al -0.019115 -3.655061 -5.178163 -0.000096 0.000106 -0.000401
Al -0.009271 -3.659387 -0.149787 -0.000923 -0.000082 -0.000104
Al -1.590321 -0.942339 4.877027 -0.000405 -0.000035 -0.000302
Al -1.586618 -0.940980 -5.175648 -0.000370 -0.000132 -0.000311
Ga -1.582453 -0.941122 -0.141156 -0.000569 -0.000116 -0.001299
N 1.539454 0.863179 4.281302 0.000385 0.000089 0.000187
N 1.544082 0.865553 -5.772654 0.000424 0.000114 0.000281
N 1.545589 0.866214 -0.747318 0.000345 0.000210 0.000083
N -0.027573 3.576000 4.281629 0.000142 -0.000192 0.000233
N -0.024967 3.577782 -5.772995 0.000120 -0.000184 0.000404
N -0.020699 3.580016 -0.749310 -0.000067 -0.000336 0.000101
N 3.111685 -1.848273 4.282060 0.000226 -0.000219 0.000499
N 3.115257 -1.847678 -5.772856 0.000263 -0.000248 0.000406
N 3.119400 -1.844945 -0.750788 0.000107 -0.000337 0.000568
N -4.729655 0.863879 4.281090 0.000290 0.000149 0.000206
N -4.727269 0.866517 -5.772434 0.000308 0.000209 0.000282
N -4.720483 0.867217 -0.747389 0.000045 0.000108 0.000232
N -6.297403 3.577271 4.281179 -0.000008 -0.000056 0.000344
N -6.293509 3.577379 -5.772568 0.000007 -0.000123 0.000387
N -6.289258 3.581234 -0.747730 -0.000042 -0.000124 0.000372
N -3.161503 -1.849515 4.290649 0.000147 -0.000205 0.000240
N -3.154066 -1.845633 -5.771454 0.000169 -0.000167 0.000454
N -3.191940 -1.867996 -0.765603 0.000111 -0.000268 0.000268
N -1.595816 0.870044 4.288902 0.000257 -0.000103 0.000052
N -1.592245 0.867742 -5.771194 0.000205 -0.000213 0.000199
N -1.586844 0.917502 -0.764711 -0.000724 -0.000831 -0.000727
N -3.163772 3.578378 4.281273 -0.000121 -0.000473 0.000306
N -3.158958 3.580680 -5.772706 -0.000075 -0.000499 0.000302
N -3.154583 3.581937 -0.749959 -0.000232 -0.000529 0.000340
N -0.020230 -1.847524 4.291116 -0.000022 -0.000600 0.000295
N -0.020214 -1.843912 -5.771436 0.000038 -0.000557 0.000355
N 0.025850 -1.866611 -0.766183 -0.000148 -0.000649 0.000170
N -0.027490 1.766074 1.767529 -0.000072 0.000417 0.000284
N -0.024439 1.766283 6.793169 -0.000063 0.000546 0.000304
N -0.018480 1.769195 -3.265168 -0.000095 0.000443 0.000269
N 3.109844 -3.659783 1.769827 0.000595 0.000723 -0.000869
N 3.114221 -3.658504 6.791447 0.000083 0.000499 0.000228
N 3.118185 -3.656674 -3.260187 0.000016 0.000489 0.000388
N 1.542460 -0.947551 1.771351 0.000314 0.000412 -0.000852
N 1.547779 -0.945232 6.794528 -0.000226 0.000213 0.000177
N 1.553131 -0.942161 -3.265648 -0.000231 0.000147 0.000239
N 3.105397 1.766289 1.767928 0.000344 0.000401 0.000057
N 3.108865 1.767888 6.790567 -0.000183 0.000134 0.000317
N 3.112726 1.769445 -3.259042 -0.000136 0.000119 0.000450
N 6.244028 -3.657519 1.769015 0.000662 0.000522 0.000316
N 6.248325 -3.657306 6.794212 -0.000044 0.000115 0.000396
N 6.252362 -3.657788 -3.265629 -0.000037 0.000111 0.000389
N 4.676423 -0.946476 1.768519 0.000314 0.000038 0.000533
N 4.680258 -0.943358 6.794203 -0.000308 -0.000207 0.000335
N 4.682533 -0.940517 -3.265602 -0.000329 -0.000185 0.000276
N -3.163869 1.766313 1.767332 0.000396 0.000665 0.000608
N -3.161269 1.769083 6.793463 -0.000230 0.000242 0.000405
N -3.158811 1.771492 -3.265029 -0.000228 0.000186 0.000339
N -0.025422 -3.655814 1.769258 0.000294 0.000462 0.000211
N -0.021149 -3.656301 6.793801 -0.000122 0.000221 0.000469
N -0.017369 -3.656860 -3.265787 -0.000116 0.000174 0.000464
N -1.592605 -0.938732 1.832262 -0.000093 -0.002670 0.000294
N -1.588443 -0.942647 6.792294 -0.000418 -0.000110 0.000330
N -1.584532 -0.941490 -3.259040 -0.000410 0.000016 0.000295
