108
Energy=-619766.206822 Lattice="9.421785 0.000000 0.000000 -4.719845 8.154860 0.000000 0.007589 0.021951 15.109460" Stress="0.000003 -0.000002 0.000001 -0.000002 0.000000 0.000006 0.000001 0.000006 -0.000001" Properties=species:S:1:pos:R:3:forces:R:3
Al 1.548455 0.877322 2.366254 0.000797 -0.000057 0.000345
Al 1.553739 0.884505 7.400612 0.000486 0.000168 0.000295
Al 1.548159 0.865776 -2.667594 0.000514 0.000218 0.000512
Al -0.024029 3.590428 2.374036 -0.002500 -0.001783 0.002276
Al -0.021829 3.595753 7.403435 0.000246 -0.000030 -0.000049
Al -0.035011 3.572716 -2.681633 0.000404 -0.000024 -0.000069
Al 3.130070 -1.843593 2.368367 0.000186 -0.000652 0.000110
Al 3.134085 -1.839863 7.402432 0.000246 -0.000600 0.000082
Al 3.129099 -1.862025 -2.668373 0.000336 -0.000401 0.000074
Al -4.732517 0.875285 2.372461 0.000532 0.000084 -0.000758
Al -4.730870 0.878405 7.403520 0.000315 0.000034 -0.000334
Al -4.741989 0.858571 -2.672964 0.000613 0.000130 -0.000469
Al -6.301780 3.589366 2.381683 0.002295 -0.001263 0.000791
Al -6.308478 3.589333 7.401145 0.000047 0.000336 -0.000110
Al -6.311251 3.564605 -2.677017 -0.000291 0.000287 -0.000303
Al -3.162991 -1.840621 2.374787 0.000028 0.000189 0.000179
Al -3.173448 -1.846966 7.416861 0.000286 0.000415 -0.000276
Al -3.172676 -1.853842 -2.675289 0.000439 -0.000427 -0.000156
Al -1.594504 0.888063 2.360356 0.000375 -0.000330 -0.000145
Al -1.594358 0.900129 7.414283 -0.000158 -0.000729 0.000602
Al -1.606362 0.868530 -2.667478 0.000988 -0.000372 0.000649
Al -3.163236 3.594696 2.370995 0.000241 -0.000425 -0.000531
Al -3.160696 3.591173 7.401979 0.000567 0.000170 0.000229
Al -3.167074 3.571266 -2.670302 0.000493 -0.000289 0.000195
Al -0.011460 -1.842060 2.357605 0.000561 -0.001066 0.000224
Ga -0.011551 -1.838532 7.428927 0.000990 -0.000641 -0.001130
Ga -0.024347 -1.857566 -2.658998 0.000777 -0.000067 -0.001606
Al -0.017214 1.788700 4.884137 -0.000045 0.000583 0.000740
Al -0.026029 1.760476 -5.187604 -0.000558 0.000430 0.000081
Al -0.029905 1.760846 -0.154784 -0.000390 0.000242 0.000365
Al 3.127809 -3.654863 4.887200 -0.000397 0.000368 -0.000699
Al 3.118031 -3.673646 -5.192285 -0.000253 0.000257 -0.000220
Al 3.110317 -3.672717 -0.152771 0.000224 0.001222 0.000978
Al 1.570592 -0.933950 4.876059 -0.001194 0.000299 -0.000269
Al 1.561199 -0.947751 -5.180699 -0.000312 -0.000118 0.000328
Al 1.557772 -0.946559 -0.139355 0.000573 0.000626 -0.000603
Al 3.118112 1.781839 4.886631 0.000022 0.000335 -0.000252
Al 3.111489 1.762391 -5.192438 -0.000101 0.000114 -0.000015
Al 3.118722 1.761605 -0.149937 -0.000190 0.000018 0.001308
Al 6.261244 -3.659699 4.884830 0.000509 -0.000152 0.000049
Al 6.259435 -3.674817 -5.184250 -0.000038 -0.000138 -0.000517
Ga 6.259625 -3.670673 -0.143635 -0.000096 -0.000160 -0.001073
Al 4.687012 -0.934401 4.889481 -0.000484 0.000232 0.000040
Al 4.685459 -0.956003 -5.187744 -0.000387 0.000372 -0.000096
Al 4.682634 -0.943365 -0.152228 -0.000325 0.000581 0.000461
Al -3.167040 1.793470 4.886515 -0.000578 0.000137 -0.000025
Al -3.170799 1.765805 -5.187367 -0.000119 0.000255 0.000216
Al -3.173686 1.769995 -0.154372 0.000285 0.000515 0.000299
Al -0.008802 -3.662083 4.879766 -0.000587 0.000448 -0.000398
Al -0.022180 -3.684815 -5.183711 0.000331 -0.000294 -0.000145
Al -0.016602 -3.672565 -0.147304 0.001364 -0.001997 0.003226
Ga -1.587804 -0.928985 4.886127 -0.000542 0.000215 -0.000075
Al -1.604139 -0.948484 -5.184422 -0.000432 0.001014 -0.000635
Al -1.597930 -0.939898 -0.129872 0.000818 0.000990 -0.001912
N 1.547230 0.878993 4.284940 0.000564 0.000189 -0.000042
N 1.541635 0.858596 -5.790579 0.000272 -0.000145 -0.000226
N 1.544320 0.863386 -0.745690 0.000372 -0.000322 -0.000808
N -0.025130 3.594300 4.293222 -0.000185 -0.000314 -0.000065
N -0.029937 3.574633 -5.785106 0.000199 -0.000154 0.000388
N -0.071184 3.556008 -0.769167 -0.000176 -0.000059 -0.000660
N 3.128475 -1.843160 4.283863 0.000620 -0.000553 0.000388
N 3.117968 -1.861612 -5.790341 0.000438 -0.000257 0.000027
N 3.118179 -1.859938 -0.749575 0.000693 0.000189 0.000354
N -4.733090 0.877178 4.290618 0.000456 0.000049 0.000462
N -4.740018 0.857217 -5.786656 0.000527 -0.000029 0.000169
N -4.741711 0.861227 -0.755058 0.000633 0.000212 0.000430
N -6.303940 3.594051 4.294599 -0.000057 -0.000224 0.000621
N -6.313737 3.575290 -5.789590 -0.000131 -0.000025 0.000123
N -6.271972 3.555177 -0.767607 0.000521 0.000265 0.000021
N -3.199137 -1.860532 4.277821 -0.000375 -0.000640 0.000006
N -3.169142 -1.864590 -5.779563 -0.000066 -0.000278 0.000405
N -3.164449 -1.810420 -0.762653 0.000675 0.000390 -0.000059
N -1.594685 0.933123 4.268676 0.000691 -0.000281 -0.000416
N -1.600516 0.866041 -5.781718 0.000447 -0.000320 0.000203
N -1.601896 0.863426 -0.744852 0.000495 -0.000520 -0.000664
N -3.162469 3.598297 4.285571 0.000653 -0.000531 0.000320
N -3.171269 3.577137 -5.790575 0.000131 -0.000665 -0.000038
N -3.172472 3.582397 -0.753276 -0.000093 -0.000674 0.000371
N 0.023770 -1.859778 4.271615 0.000929 -0.000937 -0.000065
N -0.020278 -1.860338 -5.710965 0.000177 0.000140 0.000082
N -0.018921 -1.858105 -0.684898 -0.002208 0.002343 0.000785
N -0.018022 1.779941 1.763273 -0.000384 0.000654 0.000371
N -0.018524 1.783264 6.805932 -0.000354 0.000222 -0.000152
N -0.026105 1.757570 -3.267778 -0.000413 0.000632 -0.000371
N 3.129258 -3.657240 1.771871 -0.000349 -0.000279 -0.000898
N 3.127981 -3.654042 6.806430 -0.000147 0.000431 0.000299
N 3.117852 -3.673655 -3.273806 -0.000173 0.000727 0.000087
N 1.565534 -0.934715 1.773336 -0.001541 -0.000288 0.000505
N 1.597733 -0.912429 6.788048 -0.000476 0.000554 -0.000042
N 1.595902 -0.930177 -3.273665 -0.000592 0.000569 0.000246
N 3.121183 1.780336 1.775505 -0.000613 -0.000105 -0.001384
N 3.121067 1.783023 6.804382 0.000041 -0.000071 0.000182
N 3.112171 1.761809 -3.275108 -0.000120 -0.000167 -0.000113
N 6.268281 -3.664873 1.831273 -0.000082 0.002559 -0.001239
N 6.267271 -3.652809 6.806110 -0.000215 -0.000039 0.000200
N 6.260924 -3.673018 -3.263755 -0.000153 0.000134 0.000160
N 4.696354 -0.935419 1.768408 -0.000809 -0.000574 -0.000870
N 4.696164 -0.933471 6.806506 -0.000425 0.000027 0.000236
N 4.687239 -0.953130 -3.271655 -0.000672 0.000145 0.000096
N -3.166319 1.783793 1.766744 -0.000747 -0.000155 -0.000639
N -3.161695 1.785965 6.804419 -0.000574 0.000008 -0.000000
N -3.170373 1.765165 -3.267671 -0.000602 0.000138 0.000079
N -0.015150 -3.662022 1.777817 -0.000873 0.000326 -0.001666
N -0.013235 -3.693961 6.790900 -0.000535 -0.000817 0.000105
N -0.019627 -3.720060 -3.280189 -0.000297 -0.000485 0.000411
N -1.591038 -0.932719 1.784387 -0.000431 -0.000968 0.000218
N -1.629159 -0.907767 6.853774 -0.000204 0.000310 -0.000010
N -1.632992 -0.927004 -3.279327 -0.001372 0.000395 0.000293
