108
Energy=-1.489500e+06 Lattice="9.521139e+00 0.000000e+00 0.000000e+00 -4.762079e+00 8.244583e+00 0.000000e+00 3.526933e-03 1.044870e-04 1.537653e+01" Stress="-1.115488e-04 -3.895833e-05 1.395537e-05 -4.013677e-05 -3.338413e-04 -5.250201e-05 1.427117e-05 -6.577775e-05 -2.253604e-04" Properties=species:S:1:pos:R:3:forces:R:3 Config_type=AlGaN_super3_23_1_61.xyz
Al 1.576709e+00 8.741819e-01 2.422292e+00 7.663373e-05 6.712876e-06 2.752721e-04
Al 1.569433e+00 8.825512e-01 7.528862e+00 4.923722e-05 2.931910e-05 -9.194953e-05
Al 1.562232e+00 8.835341e-01 -2.704257e+00 5.251212e-05 -3.172565e-06 3.004101e-05
Al -2.855253e-02 3.639904e+00 2.430036e+00 4.402049e-05 1.007955e-04 2.450327e-06
Al -3.498091e-02 3.621297e+00 7.520282e+00 4.846081e-05 6.568963e-05 -4.730328e-05
Al -2.884853e-02 3.619591e+00 -2.706299e+00 -1.660989e-06 2.296012e-05 -2.998011e-05
Al 3.158247e+00 -1.877566e+00 2.393364e+00 -3.812188e-05 -5.439883e-06 6.896256e-05
Al 3.160085e+00 -1.877335e+00 7.510007e+00 -3.905392e-05 2.146740e-05 -5.912091e-05
Ga 3.163141e+00 -1.871906e+00 -2.667172e+00 -1.596489e-05 2.504228e-05 8.944610e-05
Al -4.795326e+00 8.680827e-01 2.430030e+00 -5.285346e-05 1.527232e-04 -1.416877e-04
Al -4.787126e+00 8.740940e-01 7.515529e+00 -1.540944e-04 -9.427827e-05 2.252945e-04
Al -4.778158e+00 8.741627e-01 -2.706298e+00 5.183447e-05 3.179966e-05 -1.182265e-05
Al -6.369822e+00 3.622645e+00 2.419660e+00 5.941161e-05 1.002936e-04 2.000480e-04
Ga -6.374535e+00 3.606771e+00 7.526872e+00 -1.973357e-05 1.585749e-05 -3.169561e-05
Ga -6.364079e+00 3.622599e+00 -2.700688e+00 -2.779594e-05 -2.431170e-05 -4.233250e-05
Al -3.212138e+00 -1.877233e+00 2.432791e+00 -6.065159e-06 8.843937e-05 1.943325e-04
Ga -3.214276e+00 -1.868872e+00 7.520176e+00 -2.625503e-05 -3.017458e-05 9.142898e-06
Al -3.206831e+00 -1.864448e+00 -2.702986e+00 -2.876812e-05 -1.028320e-05 3.328092e-06
Ga -1.611004e+00 8.810287e-01 2.418570e+00 -5.072239e-06 -4.205223e-05 -4.259224e-07
Al -1.608481e+00 8.933610e-01 7.569772e+00 4.708383e-05 -4.649244e-05 3.586873e-05
Ga -1.615269e+00 8.898812e-01 -2.741571e+00 6.666611e-05 -2.177118e-05 -2.598495e-05
Al -3.192135e+00 3.639335e+00 2.410775e+00 1.994680e-05 2.877257e-05 9.270022e-05
Al -3.179862e+00 3.619366e+00 7.539252e+00 8.634348e-06 9.912217e-05 -6.267888e-07
Al -3.199305e+00 3.618938e+00 -2.707368e+00 -2.730438e-05 4.187119e-06 4.567004e-06
Al -1.058870e-02 -1.880361e+00 2.395038e+00 1.380540e-05 -4.449850e-05 6.992704e-05
Ga -1.061890e-02 -1.868531e+00 7.559315e+00 2.194760e-05 -3.839603e-05 5.485892e-05
Ga -2.026051e-02 -1.879774e+00 -2.701602e+00 3.375744e-05 -5.611543e-05 2.396051e-05
Ga -8.683200e-03 1.811648e+00 4.991364e+00 4.718557e-06 3.990240e-06 3.151858e-05
Al -2.671961e-02 1.792971e+00 -5.293073e+00 4.561972e-05 -5.580591e-06 -5.359023e-05
Ga -1.319530e-02 1.800485e+00 -1.343662e-01 2.847323e-05 4.328073e-06 8.583263e-06
Al 3.164979e+00 -3.694843e+00 4.969512e+00 -4.423777e-05 8.722549e-05 2.517901e-06
Ga 3.142252e+00 -3.720960e+00 -5.279864e+00 -7.761403e-06 4.424298e-05 2.315166e-05
Al 3.142408e+00 -3.699185e+00 -1.370817e-01 -2.103698e-05 8.804690e-05 8.761155e-06
Ga 1.588767e+00 -9.576345e-01 4.965157e+00 -1.069220e-04 3.902267e-05 8.506531e-06
Ga 1.559247e+00 -9.493151e-01 -5.280197e+00 -3.605766e-05 3.740444e-05 1.338167e-05
Al 1.573508e+00 -9.615498e-01 -1.217525e-01 -1.682176e-05 2.725678e-04 7.582474e-05
Al 3.151577e+00 1.787070e+00 4.960389e+00 -6.160219e-05 1.659202e-04 -1.341474e-04
Ga 3.154140e+00 1.786188e+00 -5.269378e+00 3.614612e-05 -1.153813e-04 1.720546e-05
Ga 3.155873e+00 1.776658e+00 -1.304850e-01 -1.717967e-05 -1.570978e-05 7.451511e-05
Al 6.312504e+00 -3.706888e+00 4.947494e+00 1.019986e-04 -1.239116e-04 7.487904e-05
Ga 6.320378e+00 -3.704293e+00 -5.260575e+00 -7.772874e-05 7.864990e-05 2.929942e-05
Ga 6.311400e+00 -3.691696e+00 -1.268139e-01 -2.214538e-07 -1.984647e-05 5.400634e-05
Al 4.727151e+00 -9.617106e-01 4.957344e+00 2.310567e-05 -9.891710e-05 -1.088191e-05
Ga 4.745283e+00 -9.439281e-01 -5.274849e+00 -3.937438e-05 2.463879e-06 -3.726004e-06
Al 4.734644e+00 -9.559534e-01 -1.268125e-01 1.946739e-05 -1.953110e-04 1.296956e-05
Ga -3.209593e+00 1.799481e+00 4.990215e+00 8.604756e-05 1.393644e-05 -1.362531e-05
Al -3.201308e+00 1.799621e+00 -5.294037e+00 2.920448e-05 -7.959877e-06 4.683656e-05
Ga -3.215339e+00 1.808726e+00 -1.389170e-01 -6.877177e-05 2.442789e-05 3.074270e-05
Ga -1.880132e-02 -3.713047e+00 4.954249e+00 -5.148275e-05 3.778780e-05 -2.032024e-05
Al -1.120437e-02 -3.710783e+00 -5.275307e+00 5.915466e-06 -2.643335e-05 -2.168944e-05
Al -9.245743e-04 -3.700989e+00 -1.155170e-01 -4.140018e-06 -3.457990e-05 6.123934e-05
Ga -1.617447e+00 -9.650864e-01 4.973087e+00 -2.031414e-05 -3.691882e-05 3.730397e-05
Al -1.610848e+00 -9.466062e-01 -5.271829e+00 -2.515287e-05 -2.345224e-05 6.335550e-06
Ga -1.614333e+00 -9.715681e-01 -1.313407e-01 -5.065073e-05 2.531630e-07 -4.431400e-05
N 1.601689e+00 8.983369e-01 4.329387e+00 -3.477019e-05 -5.534181e-05 -2.524055e-04
N 1.526929e+00 9.033496e-01 -5.936711e+00 -2.298320e-05 1.373154e-05 2.496300e-05
N 1.561572e+00 8.274924e-01 -7.892250e-01 -1.362455e-05 -9.282952e-05 -1.453167e-05
N -3.154978e-02 3.671466e+00 4.343924e+00 3.990474e-05 -8.247220e-06 -3.820230e-05
N -2.429069e-02 3.583826e+00 -5.939856e+00 -1.201693e-05 -2.394325e-06 2.974453e-05
N -6.832788e-02 3.648564e+00 -7.922982e-01 2.233625e-05 -1.776478e-05 -7.529215e-06
N 3.195081e+00 -1.901024e+00 4.320673e+00 2.080907e-05 -4.779954e-05 -9.093723e-05
N 3.156372e+00 -1.876424e+00 -5.952433e+00 4.668609e-06 -3.975510e-06 -2.325357e-05
N 3.153541e+00 -1.870307e+00 -6.796375e-01 1.294052e-04 -7.155196e-05 2.025328e-05
N -4.821627e+00 8.510290e-01 4.346938e+00 7.560600e-05 -1.106543e-04 2.817686e-05
N -4.748603e+00 8.986729e-01 -5.945138e+00 1.071182e-06 -2.015678e-05 -1.043037e-04
N -4.781955e+00 8.263067e-01 -7.938337e-01 1.646522e-05 5.391062e-05 3.289983e-07
N -6.410586e+00 3.598923e+00 4.341920e+00 7.082198e-06 3.459688e-05 -8.311775e-05
N -6.335730e+00 3.645881e+00 -5.872739e+00 6.719746e-05 6.455579e-05 -5.035038e-05
N -6.326152e+00 3.652206e+00 -7.224643e-01 -1.081543e-05 3.078795e-06 -7.679067e-06
N -3.241261e+00 -1.892763e+00 4.349878e+00 -3.168403e-05 1.290764e-04 -1.447279e-04
N -3.159093e+00 -1.851115e+00 -5.887530e+00 -8.749647e-06 2.007037e-05 -1.205061e-05
N -3.241608e+00 -1.845577e+00 -7.904754e-01 -4.657727e-05 4.417009e-05 2.301861e-05
N -1.608164e+00 8.838895e-01 4.372207e+00 5.121132e-05 2.071503e-07 -7.298689e-05
N -1.612194e+00 8.803221e-01 -5.871430e+00 5.238922e-05 -1.028405e-05 1.454081e-06
N -1.612661e+00 8.796223e-01 -7.644573e-01 1.149186e-04 -7.837959e-05 -3.416222e-05
N -3.145363e+00 3.649481e+00 4.321004e+00 -4.768474e-05 -2.692218e-05 -8.234557e-05
N -3.236600e+00 3.604111e+00 -5.921427e+00 3.688200e-06 -3.925731e-05 6.493133e-07
N -3.199929e+00 3.675712e+00 -7.801983e-01 -1.883795e-05 -1.234915e-05 -1.508777e-05
N -1.547294e-02 -1.869721e+00 4.300642e+00 3.955439e-05 -3.268405e-05 -8.745398e-05
N -6.495894e-02 -1.896818e+00 -5.843262e+00 4.193304e-06 -1.732225e-05 4.100657e-06
N 2.173445e-02 -1.897341e+00 -7.143116e-01 -4.667210e-05 -4.460674e-05 -2.560081e-05
N 2.494906e-02 1.823236e+00 1.839884e+00 -2.346029e-05 -4.402424e-06 -1.384293e-05
N -2.369147e-02 1.790999e+00 6.974946e+00 -5.803558e-06 -5.527453e-05 -2.425717e-05
N 2.519026e-02 1.820675e+00 -3.361498e+00 -4.334074e-05 4.165167e-05 3.568941e-05
N 3.154083e+00 -3.710058e+00 1.787820e+00 -1.060549e-05 3.387001e-05 -5.636404e-05
N 3.150916e+00 -3.705948e+00 6.904915e+00 1.729253e-05 3.339678e-06 1.221587e-05
N 3.149138e+00 -3.748214e+00 -3.294797e+00 2.853329e-05 -8.272009e-06 -1.830468e-05
N 1.569040e+00 -9.498882e-01 1.804127e+00 1.675348e-05 5.963892e-05 -2.701347e-05
N 1.606403e+00 -9.332863e-01 6.946325e+00 -4.290999e-05 6.189912e-05 1.984719e-05
N 1.573645e+00 -9.106477e-01 -3.306522e+00 -6.694238e-05 4.812091e-06 -5.132676e-05
N 3.153477e+00 1.790078e+00 1.850840e+00 3.326452e-05 -2.478358e-04 -4.012530e-05
N 3.151165e+00 1.743367e+00 6.883434e+00 2.291369e-05 -3.488629e-05 1.802032e-04
N 3.151835e+00 1.741500e+00 -3.287839e+00 9.799911e-06 -2.079057e-05 1.341300e-05
N 6.322053e+00 -3.701873e+00 1.859598e+00 -1.069471e-04 -8.486831e-05 -1.107070e-04
N 6.283820e+00 -3.730892e+00 6.867346e+00 -3.509749e-05 -1.896187e-05 -8.832329e-06
N 6.280864e+00 -3.680284e+00 -3.280003e+00 2.220496e-05 4.152960e-07 8.636712e-06
N 4.744346e+00 -9.515244e-01 1.800769e+00 -3.568158e-05 5.491903e-05 -7.674231e-06
N 4.694953e+00 -9.313229e-01 6.878022e+00 1.371488e-05 4.828300e-05 2.098231e-05
N 4.772272e+00 -9.315508e-01 -3.297967e+00 -3.402594e-05 -1.292457e-05 -3.164279e-05
N -3.247977e+00 1.819800e+00 1.837162e+00 -1.366749e-05 -8.939566e-05 -5.153988e-06
N -3.193832e+00 1.793017e+00 6.976656e+00 6.349905e-05 -6.621288e-06 -6.824474e-05
N -3.246928e+00 1.822283e+00 -3.360221e+00 -1.241922e-05 -3.245165e-05 7.313939e-06
N -1.853197e-02 -3.709921e+00 1.808451e+00 1.684482e-05 3.890758e-05 -3.855440e-05
N 2.291447e-02 -3.728104e+00 6.924966e+00 5.089330e-06 -1.517931e-05 9.641390e-06
N 2.391056e-02 -3.729572e+00 -3.364272e+00 8.784145e-06 -1.963098e-06 1.728009e-05
N -1.617419e+00 -1.007699e+00 1.842106e+00 -1.682749e-05 -9.887219e-07 -2.039907e-05
N -1.605003e+00 -9.042745e-01 6.943862e+00 -8.197502e-06 4.049645e-05 -3.761215e-05
N -1.649976e+00 -9.819184e-01 -3.355382e+00 -4.130178e-05 3.244865e-06 3.631415e-05
