108
Energy=-8.028681e+05 Lattice="9.440616e+00 0.000000e+00 0.000000e+00 -4.723487e+00 8.171414e+00 0.000000e+00 3.088664e-03 -2.132648e-05 1.517731e+01" Stress="4.697907e-04 -2.682569e-04 3.661741e-04 -2.590121e-04 -2.386614e-04 -1.283725e-05 3.530979e-04 -2.054881e-05 1.208247e-03" Properties=species:S:1:pos:R:3:forces:R:3 Config_type=AlGaN_super3_8_1_19.xyz
Al 1.558964e+00 8.787550e-01 2.373425e+00 -5.927907e-04 -4.198938e-04 1.044084e-04
Al 1.557649e+00 8.778877e-01 7.444391e+00 -5.033256e-05 -1.543305e-04 7.193436e-05
Al 1.549531e+00 8.718238e-01 -2.686223e+00 3.034235e-04 7.983940e-05 3.047048e-04
Al -4.144917e-03 3.583793e+00 2.386250e+00 -5.761300e-04 -2.631793e-04 -9.058498e-05
Al -1.364174e-02 3.585836e+00 7.448058e+00 -2.209256e-05 -3.502987e-05 -2.428363e-04
Al -1.262001e-02 3.589075e+00 -2.693577e+00 1.127699e-04 2.103663e-04 -1.579822e-04
Al 3.135668e+00 -1.849984e+00 2.395476e+00 -2.728333e-03 1.181175e-03 6.299468e-05
Al 3.133177e+00 -1.850994e+00 7.444034e+00 -1.774997e-04 2.215137e-04 -1.767936e-04
Al 3.122027e+00 -1.850299e+00 -2.689889e+00 -1.470444e-04 -9.716948e-04 5.262226e-04
Al -4.739402e+00 8.754412e-01 2.394425e+00 -4.531350e-04 -5.474474e-05 -3.042607e-04
Al -4.744892e+00 8.728539e-01 7.425097e+00 2.537366e-04 2.053837e-04 -1.880960e-04
Al -4.751360e+00 8.763119e-01 -2.679483e+00 1.149795e-04 8.770445e-05 1.938322e-04
Al -6.318369e+00 3.587076e+00 2.379752e+00 -8.302093e-04 -6.072378e-05 -5.839518e-05
Al -6.322081e+00 3.583916e+00 7.440577e+00 1.099433e-04 1.057508e-04 1.416803e-04
Al -6.330968e+00 3.590523e+00 -2.681846e+00 9.463250e-05 4.553794e-05 3.788323e-05
Al -3.173820e+00 -1.863559e+00 2.381291e+00 -7.831981e-04 -3.019977e-04 1.153987e-04
Al -3.178640e+00 -1.863529e+00 7.446507e+00 8.359991e-04 7.250289e-04 -2.128028e-04
Al -3.160038e+00 -1.862656e+00 -2.680608e+00 -1.034451e-05 -8.201606e-06 -6.944212e-05
Al -1.594806e+00 8.838858e-01 2.368648e+00 -4.075469e-04 -5.881773e-04 -1.882133e-04
Al -1.597960e+00 8.866709e-01 7.452703e+00 -4.164917e-05 -1.745886e-04 2.086582e-04
Al -1.598826e+00 8.649433e-01 -2.684072e+00 5.372478e-04 -1.032197e-04 -1.354107e-04
Al -3.173711e+00 3.577203e+00 2.380204e+00 -2.328374e-03 -1.390110e-04 2.970818e-04
Al -3.172710e+00 3.580955e+00 7.456138e+00 1.631895e-04 2.921793e-05 -4.686707e-05
Ga -3.174849e+00 3.589433e+00 -2.686290e+00 5.206090e-04 1.042442e-04 -5.091672e-04
Ga -1.734936e-02 -1.857171e+00 2.376384e+00 3.771294e-04 2.951593e-04 -1.747155e-04
Ga -1.234729e-02 -1.855130e+00 7.456533e+00 2.339304e-04 4.099786e-05 -3.200837e-04
Al -2.847185e-02 -1.844777e+00 -2.683306e+00 2.791523e-04 -3.786216e-04 -3.641161e-05
Al -1.130468e-02 1.772649e+00 4.912377e+00 -3.631898e-05 1.205514e-04 4.137203e-04
Al -2.497055e-02 1.774315e+00 -5.208495e+00 -8.446153e-05 3.205401e-04 1.711361e-04
Al -2.118697e-02 1.768931e+00 -1.614774e-01 1.929170e-04 3.305228e-04 3.173225e-04
Ga 3.128041e+00 -3.676696e+00 4.915187e+00 -4.021745e-04 8.893006e-05 -4.141424e-04
Al 3.125570e+00 -3.678824e+00 -5.223191e+00 4.108313e-05 2.984364e-04 -8.211155e-05
Ga 3.129184e+00 -3.677932e+00 -1.291196e-01 -3.175017e-04 2.393481e-05 4.758320e-04
Al 1.569068e+00 -9.294465e-01 4.914503e+00 -1.208579e-03 -5.779708e-04 7.533663e-04
Al 1.548630e+00 -9.420272e-01 -5.194941e+00 -2.740777e-04 3.331474e-04 -2.284795e-04
Al 1.542019e+00 -9.348907e-01 -1.636803e-01 -5.987479e-04 8.634454e-05 4.946758e-04
Al 3.121800e+00 1.779096e+00 4.906680e+00 -9.833839e-05 9.471059e-05 -1.239535e-05
Al 3.115970e+00 1.785437e+00 -5.213902e+00 4.867133e-05 -1.210654e-04 2.123019e-04
Al 3.113656e+00 1.788214e+00 -1.497093e-01 8.284840e-04 -2.302600e-04 2.193515e-04
Al 6.281212e+00 -3.680118e+00 4.914175e+00 3.142873e-04 2.533605e-04 1.100811e-04
Al 6.276634e+00 -3.681067e+00 -5.208624e+00 1.048270e-04 3.098422e-06 4.750185e-05
Al 6.284251e+00 -3.680245e+00 -1.537802e-01 2.160117e-04 2.369832e-04 3.104452e-04
Al 4.698604e+00 -9.410974e-01 4.913829e+00 -7.315163e-05 1.152445e-04 5.590851e-06
Ga 4.698682e+00 -9.450575e-01 -5.201771e+00 -2.548918e-04 5.407174e-04 2.279694e-05
Ga 4.700822e+00 -9.374514e-01 -1.483002e-01 1.329907e-04 2.100835e-04 -5.619754e-05
Al -3.175231e+00 1.777000e+00 4.914823e+00 9.792118e-06 1.575103e-04 -4.659781e-05
Al -3.171945e+00 1.778198e+00 -5.219666e+00 4.862920e-05 8.253452e-05 1.603545e-04
Al -3.173485e+00 1.770793e+00 -1.408801e-01 -4.393112e-04 -1.836444e-04 3.523928e-04
Al -2.474048e-02 -3.691626e+00 4.917012e+00 -2.606309e-05 -2.203828e-04 2.590969e-04
Al -3.121763e-02 -3.674360e+00 -5.203464e+00 1.370518e-04 3.714574e-05 -2.124912e-04
Al -4.005085e-02 -3.670150e+00 -1.557867e-01 1.123930e-04 8.846577e-05 -2.974895e-04
Ga -1.601019e+00 -9.391057e-01 4.915223e+00 -4.350048e-04 4.905617e-04 2.290976e-04
Al -1.593904e+00 -9.410024e-01 -5.198761e+00 -1.838928e-04 1.467348e-04 -1.480794e-04
Al -1.593244e+00 -9.434447e-01 -1.592943e-01 -2.764115e-04 -1.185724e-05 4.059457e-04
N 1.551800e+00 8.719929e-01 4.297728e+00 5.777309e-05 -1.136566e-04 -7.162553e-05
N 1.547500e+00 8.693841e-01 -5.809753e+00 2.544026e-04 -5.464708e-05 -8.848199e-05
N 1.549333e+00 8.742765e-01 -7.640238e-01 3.796653e-04 -9.530197e-05 9.184798e-05
N 2.499925e-02 3.564938e+00 4.297942e+00 3.135220e-04 -3.218083e-04 -5.152512e-05
N -1.885099e-02 3.588011e+00 -5.811669e+00 -8.005221e-05 -2.836298e-04 1.793923e-04
N 1.589984e-02 3.570072e+00 -7.762928e-01 2.143968e-04 -3.417736e-04 4.104432e-04
N 3.127692e+00 -1.808633e+00 4.302050e+00 -1.191759e-04 2.645388e-04 9.045441e-05
N 3.083003e+00 -1.872615e+00 -5.824294e+00 -3.908408e-04 -2.708967e-04 2.962908e-04
N 3.082301e+00 -1.836986e+00 -7.854025e-01 8.512442e-05 -3.175057e-05 -4.951855e-04
N -4.743198e+00 8.717067e-01 4.317422e+00 3.474805e-04 1.180430e-04 2.633695e-04
N -4.750968e+00 9.162572e-01 -5.838820e+00 2.336346e-04 2.092325e-04 -2.751682e-04
N -4.750142e+00 9.236458e-01 -7.688413e-01 3.350057e-04 3.874206e-04 2.242087e-04
N -6.317809e+00 3.593379e+00 4.301903e+00 4.554686e-05 -4.408705e-04 3.438560e-05
N -6.321338e+00 3.592040e+00 -5.818255e+00 -2.282362e-05 -3.144322e-05 -1.538936e-04
N -6.322559e+00 3.592343e+00 -7.630803e-01 -6.976494e-05 -5.111393e-04 -8.138128e-05
N -3.207360e+00 -1.882420e+00 4.294180e+00 -3.282981e-04 -5.467346e-04 -1.633597e-05
N -3.130619e+00 -1.880932e+00 -5.819976e+00 3.720381e-04 -2.153936e-04 1.732722e-05
N -3.129190e+00 -1.881824e+00 -7.693448e-01 4.589553e-04 -2.291676e-04 6.111744e-05
N -1.594572e+00 9.238813e-01 4.283996e+00 5.661893e-04 -3.783307e-04 -5.428711e-05
N -1.598768e+00 8.737338e-01 -5.807933e+00 5.194902e-04 -2.455595e-04 -6.270571e-06
N -1.602445e+00 8.729059e-01 -7.594387e-01 4.114436e-04 -5.900384e-05 3.466981e-04
N -3.212437e+00 3.565411e+00 4.291239e+00 -4.292091e-04 -3.843411e-05 -1.329409e-04
N -3.178827e+00 3.593161e+00 -5.802452e+00 -9.106549e-06 -3.110991e-04 1.069766e-04
N -3.211754e+00 3.570307e+00 -7.194699e-01 1.201283e-05 -2.245701e-04 6.480908e-04
N 2.055460e-02 -1.882233e+00 4.351387e+00 1.702964e-03 1.166882e-03 1.660357e-04
N -2.061814e-02 -1.852197e+00 -5.748739e+00 8.042737e-06 -3.042939e-04 4.878703e-04
N -2.519579e-02 -1.851679e+00 -7.549441e-01 3.170113e-04 -1.598795e-04 -1.176242e-05
N -1.649065e-02 1.776988e+00 1.762831e+00 -2.630468e-04 -4.822408e-04 -4.383990e-04
N -1.959082e-02 1.773210e+00 6.838543e+00 -5.568049e-05 3.170831e-04 -1.103448e-04
N -2.553969e-02 1.772992e+00 -3.287314e+00 -2.739928e-04 2.164184e-05 1.378866e-04
N 3.128991e+00 -3.678482e+00 1.856326e+00 1.989055e-03 1.994747e-03 -1.877075e-03
N 3.127721e+00 -3.676727e+00 6.896006e+00 2.665458e-05 1.492025e-04 5.578855e-04
N 3.169143e+00 -3.652150e+00 -3.308276e+00 -3.175055e-04 8.247742e-04 -2.080657e-05
N 1.592595e+00 -9.193645e-01 1.750932e+00 2.029893e-03 -9.444360e-04 -5.452978e-06
N 1.597925e+00 -9.179165e-01 6.826744e+00 4.461186e-05 1.037490e-04 -9.434097e-04
N 1.551794e+00 -9.434375e-01 -3.279529e+00 -4.052763e-04 2.249441e-04 -1.426393e-04
N 3.128921e+00 1.779007e+00 1.777349e+00 -2.414031e-05 -4.987012e-04 -2.246985e-04
N 3.121242e+00 1.779128e+00 6.828696e+00 -6.722531e-05 -2.636908e-04 -1.676436e-04
N 3.120021e+00 1.779060e+00 -3.291636e+00 -7.982564e-05 -2.404822e-04 -1.253941e-04
N 6.279007e+00 -3.673188e+00 1.769112e+00 -7.901809e-04 -2.070482e-04 -3.877198e-04
N 6.275302e+00 -3.673874e+00 6.835471e+00 1.823369e-05 3.059798e-05 3.855566e-05
N 6.273420e+00 -3.672708e+00 -3.292426e+00 -9.458730e-05 7.820228e-05 -2.887801e-05
N 4.700372e+00 -9.442307e-01 1.830629e+00 1.403518e-04 1.757711e-04 -8.070282e-04
N 4.702047e+00 -9.484861e-01 6.839248e+00 -1.009243e-04 -8.624989e-05 -9.313539e-05
N 4.701439e+00 -9.446128e-01 -3.225494e+00 3.414038e-05 -4.395511e-06 7.384051e-05
N -3.169847e+00 1.771331e+00 1.775569e+00 -4.568078e-04 -2.775529e-04 -4.450343e-04
N -3.166632e+00 1.778106e+00 6.835939e+00 9.964112e-05 -4.754780e-05 -5.160162e-05
N -3.172972e+00 1.727696e+00 -3.311213e+00 -8.901024e-05 -6.367316e-04 6.958456e-05
N -2.695340e-02 -3.716879e+00 1.752554e+00 1.524702e-03 -9.758030e-04 6.892445e-04
N -1.976226e-02 -3.720794e+00 6.829935e+00 -5.023129e-05 -5.160964e-04 2.513850e-05
N -6.768954e-02 -3.648829e+00 -3.294886e+00 -5.073463e-04 3.752560e-04 3.096674e-04
N -1.641618e+00 -9.265887e-01 1.763236e+00 1.695868e-03 2.083945e-03 -9.430965e-04
N -1.634246e+00 -9.170581e-01 6.881573e+00 -1.071213e-03 -6.764671e-04 2.558557e-04
N -1.598027e+00 -9.433017e-01 -3.280187e+00 -4.078614e-04 1.479142e-04 5.328600e-05
