108
Energy=-2816990.094207 Lattice="9.693266 0.000000 0.000000 -4.847466 8.394348 0.000000 0.005349 -0.000875 15.741364" Stress="-0.000000 0.000000 0.000002 0.000000 0.000001 -0.000001 0.000002 -0.000001 -0.000003" Properties=species:S:1:pos:R:3:forces:R:3
Al 1.588063 0.901014 2.474230 -0.000331 0.000140 0.000132
Ga 1.593750 0.892716 7.718113 0.000094 -0.000134 0.000054
Ga 1.589234 0.894296 -2.763474 0.000025 -0.000159 -0.000311
Al -0.018186 3.682058 2.475334 -0.000183 0.000406 -0.000078
Ga -0.019664 3.687807 7.718264 -0.000060 -0.000072 0.000037
Ga -0.024471 3.690218 -2.765113 -0.000040 -0.000212 0.000221
Ga 3.208570 -1.906917 2.474410 -0.000237 0.000412 0.000173
Ga 3.211296 -1.907168 7.716398 -0.000025 -0.000008 -0.000028
Ga 3.206066 -1.905624 -2.761925 -0.000013 -0.000144 0.000016
Ga -4.879604 0.892640 2.477087 -0.000236 0.000354 0.000117
Ga -4.869108 0.892531 7.720674 0.000094 -0.000077 0.000032
Ga -4.873568 0.895009 -2.766904 0.000127 -0.000185 0.000043
Ga -6.499391 3.683056 2.475625 -0.000338 0.000320 0.000090
Ga -6.484597 3.688991 7.716150 -0.000001 -0.000091 0.000012
Ga -6.488505 3.691276 -2.762163 0.000011 -0.000169 0.000038
Ga -3.258195 -1.913321 2.476726 -0.000263 0.000276 0.000091
Ga -3.250665 -1.907823 7.720575 -0.000020 0.000035 0.000017
Ga -3.254742 -1.905800 -2.766610 0.000040 -0.000107 0.000027
Ga -1.625789 0.902158 2.474973 -0.000046 0.000103 0.000265
Ga -1.633784 0.894110 7.716567 0.000032 -0.000195 0.000010
Ga -1.638307 0.896245 -2.761522 0.000147 -0.000222 0.000020
Ga -3.245833 3.691583 2.477188 -0.000232 0.000194 0.000204
Ga -3.250246 3.691080 7.720365 -0.000021 -0.000214 0.000008
Ga -3.255035 3.693524 -2.765056 0.000036 -0.000281 0.000071
Ga -0.018075 -1.896244 2.476404 -0.000261 0.000182 0.000252
Ga -0.018312 -1.904601 7.720588 0.000013 -0.000104 -0.000016
Ga -0.022585 -1.902883 -2.765049 0.000051 -0.000198 0.000033
Ga -0.013567 1.828123 5.072971 -0.000198 -0.000045 0.000030
Ga -0.025305 1.825690 -5.393221 -0.000176 -0.000034 -0.000043
Ga -0.016226 1.825728 -0.121818 -0.000590 0.000818 0.000250
Ga 3.218943 -3.776758 5.085155 -0.000309 0.000139 0.000015
Ga 3.207438 -3.770176 -5.393558 -0.000173 0.000081 0.000079
Ga 3.214224 -3.777050 -0.130522 -0.000330 0.000574 -0.000123
Ga 1.595955 -0.965850 5.084956 -0.000229 0.000028 0.000086
Ga 1.592323 -0.972069 -5.393281 -0.000245 0.000006 0.000015
Ga 1.594114 -0.970082 -0.131380 -0.000551 0.000439 -0.000101
Ga 3.202579 1.820414 5.085554 -0.000103 -0.000114 -0.000004
Ga 3.204233 1.826921 -5.393710 -0.000099 -0.000084 -0.000028
Ga 3.203877 1.819380 -0.131795 -0.000417 0.000581 0.000084
Ga 6.434244 -3.775682 5.085480 -0.000014 0.000040 -0.000016
Ga 6.437777 -3.771175 -5.393897 -0.000066 -0.000014 0.000076
Ga 6.436399 -3.776003 -0.131351 -0.000667 0.000544 0.000054
Ga 4.826691 -0.973668 5.097917 -0.000194 -0.000074 -0.000050
Ga 4.821390 -0.972614 -5.393661 -0.000204 -0.000060 0.000040
Ga 4.825970 -0.975706 -0.142218 -0.000615 0.000629 -0.000214
Ga -3.253090 1.824991 5.097732 -0.000146 -0.000048 -0.000044
Ga -3.256192 1.826681 -5.393299 -0.000060 -0.000045 -0.000016
Ga -3.254417 1.823237 -0.141955 -0.000390 0.000599 -0.000234
Ga -0.020578 -3.770963 5.097441 -0.000082 0.000025 -0.000030
Ga -0.025579 -3.769922 -5.393269 -0.000041 0.000025 0.000014
Ga -0.021394 -3.773274 -0.141700 -0.000395 0.000654 -0.000168
Ga -1.636093 -0.973228 5.097553 -0.000185 -0.000037 -0.000004
Ga -1.639740 -0.970488 -5.393186 -0.000132 -0.000013 0.000006
Ga -1.636398 -0.975151 -0.141845 -0.000609 0.000507 -0.000246
N 1.593948 0.891128 4.397132 0.000148 0.000111 -0.000000
N 1.588763 0.893353 -6.038705 0.000209 0.000061 0.000022
N 1.588381 0.893029 -0.782128 0.000584 -0.000298 0.000079
N -0.021310 3.689597 4.396982 0.000136 -0.000040 0.000292
N -0.025680 3.690611 -6.038343 0.000143 -0.000020 -0.000040
N -0.023880 3.687519 -0.782003 0.000396 -0.000424 -0.000129
N 3.210699 -1.906814 4.456134 0.000148 0.000022 -0.000044
N 3.205555 -1.905307 -6.039212 0.000225 -0.000036 -0.000003
N 3.204722 -1.907821 -0.774684 0.000510 -0.000464 -0.000128
N -4.868837 0.891305 4.457673 0.000140 0.000208 -0.000041
N -4.873550 0.893856 -6.035544 0.000181 0.000068 -0.000036
N -4.873926 0.893837 -0.781665 0.000484 -0.000422 -0.000172
N -6.484010 3.689787 4.456779 0.000016 0.000103 -0.000010
N -6.488354 3.691311 -6.039323 0.000050 0.000027 -0.000039
N -6.488496 3.688770 -0.775054 0.000363 -0.000414 -0.000103
N -3.251954 -1.906377 4.457430 0.000090 0.000092 0.000010
N -3.255874 -1.905255 -6.035702 0.000131 0.000003 -0.000016
N -3.253908 -1.908739 -0.781464 0.000479 -0.000446 -0.000155
N -1.638090 0.892368 4.456477 0.000246 0.000100 -0.000064
N -1.641002 0.894860 -6.039006 0.000203 -0.000010 -0.000035
N -1.634288 0.895955 -0.774298 0.000333 -0.000374 -0.000181
N -3.253023 3.690427 4.457991 0.000113 0.000005 -0.000054
N -3.256700 3.692702 -6.035916 0.000119 -0.000077 -0.000013
N -3.252776 3.692579 -0.779780 0.000319 -0.000528 -0.000162
N -0.021082 -1.905295 4.457545 0.000113 -0.000030 -0.000083
N -0.024544 -1.903627 -6.035774 0.000138 -0.000066 0.000002
N -0.020579 -1.904088 -0.779961 0.000376 -0.000486 -0.000190
N 0.020064 1.853158 1.876092 0.000369 -0.000786 -0.000270
N -0.017345 1.825121 7.062515 -0.000008 0.000257 -0.000024
N -0.024557 1.825278 -3.410032 -0.000017 0.000240 -0.000021
N 3.252847 -3.796256 1.858684 0.000190 -0.000176 -0.000161
N 3.214559 -3.774598 7.071471 0.000076 0.000134 -0.000013
N 3.208045 -3.770415 -3.408498 0.000052 0.000186 -0.000124
N 1.592718 -0.920910 1.856419 0.000321 -0.000060 0.000358
N 1.596547 -0.971044 7.071537 -0.000082 0.000136 -0.000058
N 1.592897 -0.971784 -3.408566 -0.000037 0.000070 0.000022
N 3.162740 1.801784 1.855580 0.000412 -0.000501 -0.000042
N 3.207763 1.822285 7.071596 -0.000084 0.000103 -0.000015
N 3.204503 1.826690 -3.409214 0.000003 0.000124 0.000078
N 6.393706 -3.794399 1.856085 0.000579 -0.000330 -0.000099
N 6.439491 -3.773462 7.071506 -0.000023 0.000013 -0.000007
N 6.438177 -3.771461 -3.408894 0.000005 0.000091 -0.000112
N 4.822780 -0.970874 1.835206 0.000323 -0.000583 0.000233
N 4.827671 -0.973581 7.080802 -0.000077 -0.000013 -0.000033
N 4.821781 -0.972805 -3.407328 -0.000083 0.000058 -0.000038
N -3.256671 1.826184 1.837461 0.000255 -0.000418 0.000220
N -3.252182 1.824359 7.080544 -0.000042 0.000174 0.000043
N -3.255026 1.826051 -3.407044 -0.000087 0.000183 0.000014
N -0.025272 -3.769080 1.839841 0.000327 -0.000495 0.000146
N -0.019722 -3.771633 7.080450 -0.000011 0.000130 0.000013
N -0.025212 -3.770254 -3.406854 0.000025 0.000108 -0.000031
N -1.640822 -0.969908 1.837362 0.000258 -0.000401 0.000281
N -1.635002 -0.973799 7.080604 -0.000077 0.000079 0.000004
N -1.638988 -0.970295 -3.406876 -0.000101 0.000038 -0.000032
