108
Energy=-5.739908e+05 Lattice="9.412648e+00 0.000000e+00 0.000000e+00 -4.706701e+00 8.151811e+00 0.000000e+00 1.022313e-04 2.081077e-04 1.509644e+01" Stress="3.235780e-06 -1.828652e-06 -1.116857e-06 -7.017937e-06 -1.658993e-05 8.378984e-06 -1.498389e-06 8.649128e-06 -9.193120e-06" Properties=species:S:1:pos:R:3:forces:R:3 Config_type=AlGaN_super3_3_1_20.xyz
Al 1.546797e+00 8.673429e-01 2.371628e+00 -1.183166e-05 -1.791787e-06 -2.700130e-05
Al 1.546278e+00 8.745931e-01 7.379265e+00 -4.202412e-06 -3.208196e-06 -2.265216e-05
Al 1.550016e+00 8.828249e-01 -2.649814e+00 -6.358843e-06 -3.000249e-05 -2.390838e-05
Al -2.173772e-02 3.584637e+00 2.367201e+00 4.033257e-06 -8.471785e-06 -2.848536e-05
Al -2.785964e-02 3.581107e+00 7.383944e+00 -1.930455e-06 -9.828919e-06 -2.719364e-05
Al -2.958782e-02 3.580004e+00 -2.651582e+00 9.730350e-06 -7.091653e-06 -9.339454e-06
Al 3.115970e+00 -1.850354e+00 2.371580e+00 -6.719829e-07 -3.450690e-06 -1.379810e-05
Al 3.121916e+00 -1.854278e+00 7.379120e+00 1.814550e-06 -6.156102e-06 -1.556357e-05
Al 3.131096e+00 -1.855382e+00 -2.649729e+00 -3.882140e-05 2.622420e-05 -3.495053e-05
Al -4.727243e+00 8.678501e-01 2.368198e+00 -7.457536e-06 -3.733140e-06 -9.995284e-06
Al -4.730046e+00 8.663001e-01 7.392933e+00 5.664075e-07 -9.191019e-06 -1.058729e-05
Al -4.729447e+00 8.666209e-01 -2.666319e+00 -5.137088e-06 -1.787139e-05 -1.600027e-05
Al -6.299883e+00 3.583272e+00 2.371787e+00 -5.389069e-06 -1.271725e-05 -1.353278e-05
Al -6.293633e+00 3.580302e+00 7.378811e+00 7.146148e-06 -8.308386e-06 -1.086483e-05
Al -6.294641e+00 3.572990e+00 -2.649467e+00 6.719960e-06 -1.272427e-05 -1.605568e-05
Al -3.161725e+00 -1.851982e+00 2.371755e+00 7.454628e-07 -1.174256e-05 -1.737560e-05
Al -3.161178e+00 -1.845002e+00 7.378840e+00 3.999846e-06 -4.658358e-06 -1.575893e-05
Al -3.168089e+00 -1.842351e+00 -2.649502e+00 1.330392e-06 -6.339324e-06 -1.757858e-05
Al -1.593825e+00 8.697809e-01 2.372335e+00 4.995757e-06 7.510652e-06 -1.619262e-05
Al -1.590244e+00 8.679183e-01 7.389341e+00 1.380393e-06 -2.481555e-06 -2.373374e-05
Al -1.595872e+00 8.737127e-01 -2.663869e+00 -6.145916e-07 -8.101424e-06 -2.797370e-05
Al -3.159002e+00 3.580752e+00 2.372367e+00 1.051320e-05 -1.486173e-07 -6.673019e-06
Al -3.158857e+00 3.584864e+00 7.389256e+00 4.264095e-06 -4.072648e-06 -1.613341e-05
Al -3.156606e+00 3.577283e+00 -2.663911e+00 -2.112691e-06 -4.011395e-06 -1.701994e-05
Al -2.116291e-02 -1.849784e+00 2.368274e+00 2.407075e-06 8.027296e-06 1.126324e-06
Al -2.765395e-02 -1.853428e+00 7.381166e+00 7.597737e-06 -3.858674e-06 -7.472779e-06
Ga -3.117980e-02 -1.855469e+00 -2.645048e+00 1.441292e-05 -1.940619e-06 -1.579107e-05
Al -2.383008e-02 1.773129e+00 4.875102e+00 2.253769e-06 -3.175626e-06 -3.178416e-05
Al -3.081189e-02 1.772300e+00 -5.184021e+00 -5.746991e-07 -2.252827e-06 -3.702710e-05
Al -2.430506e-02 1.771823e+00 -1.406407e-01 -1.157385e-06 4.204019e-06 -2.369050e-05
Al 3.115118e+00 -3.663348e+00 4.875076e+00 -1.473019e-07 -5.068486e-06 -1.314173e-05
Al 3.110866e+00 -3.668839e+00 -5.184183e+00 3.160839e-06 -4.182461e-06 -2.755857e-05
Al 3.113896e+00 -3.663291e+00 -1.405895e-01 -1.725099e-05 -8.606334e-06 -4.211594e-05
Al 1.546477e+00 -9.448181e-01 4.880900e+00 2.740693e-06 3.845596e-06 -1.800508e-05
Ga 1.551671e+00 -9.420901e-01 -5.191100e+00 2.324708e-06 -7.933769e-07 -9.446518e-06
Al 1.554019e+00 -9.405523e-01 -1.345680e-01 1.916649e-06 1.767994e-07 -1.241897e-05
Al 3.116896e+00 1.771465e+00 4.875051e+00 -3.209413e-06 -1.246695e-06 -1.795830e-05
Al 3.122392e+00 1.773393e+00 -5.183794e+00 -4.949112e-06 8.071935e-06 -2.724276e-05
Al 3.116945e+00 1.772383e+00 -1.404789e-01 -1.303756e-05 -5.748599e-06 -9.715202e-06
Al 6.251728e+00 -3.662608e+00 4.880585e+00 -5.674430e-06 7.481739e-07 -1.201021e-05
Ga 6.253568e+00 -3.661652e+00 -5.181262e+00 1.895805e-06 9.108323e-06 -1.855748e-05
Al 6.253296e+00 -3.661797e+00 -1.483280e-01 -8.916440e-06 -1.916901e-07 7.696782e-06
Al 4.683914e+00 -9.424282e-01 4.875032e+00 3.002116e-06 1.045349e-05 -1.194152e-05
Al 4.688225e+00 -9.387294e-01 -5.183792e+00 2.178171e-06 5.310182e-06 -2.423660e-05
Al 4.684806e+00 -9.429137e-01 -1.404669e-01 -5.134968e-06 -2.784766e-06 -2.339507e-05
Al -3.161039e+00 1.772334e+00 4.883284e+00 2.248200e-06 -2.515913e-06 -1.861474e-05
Al -3.159823e+00 1.772994e+00 -5.188667e+00 8.373997e-06 3.726745e-06 -1.594214e-05
Al -3.160315e+00 1.772691e+00 -1.492063e-01 -7.970533e-06 -8.133056e-06 -3.504532e-05
Al -2.101306e-02 -3.662476e+00 4.874326e+00 -2.554006e-06 6.107386e-07 -1.412581e-05
Al -1.847135e-02 -3.674606e+00 -5.194676e+00 7.487052e-06 -6.130044e-06 4.916206e-07
Al -2.078983e-02 -3.671073e+00 -1.263348e-01 -8.536570e-06 -1.657086e-05 -4.186789e-05
Al -1.591010e+00 -9.432314e-01 4.874276e+00 4.485248e-06 8.566475e-06 -1.613942e-05
Al -1.600209e+00 -9.349720e-01 -5.194482e+00 -5.507097e-06 1.344979e-05 -2.926211e-06
Al -1.598271e+00 -9.388878e-01 -1.264978e-01 -1.409387e-05 -1.727238e-07 -1.461551e-05
N 1.546300e+00 8.666484e-01 4.285852e+00 8.719609e-07 -1.466812e-05 2.928171e-05
N 1.546016e+00 9.197111e-01 -5.805492e+00 1.039723e-05 -1.572889e-05 2.352478e-05
N 1.546571e+00 8.714191e-01 -7.344175e-01 9.423184e-06 -1.936988e-05 2.526732e-05
N -2.170529e-02 3.584584e+00 4.281847e+00 3.500272e-06 -4.213601e-06 2.460548e-05
N -6.399773e-02 3.560186e+00 -5.800370e+00 -4.712370e-07 -5.439567e-06 2.914950e-05
N -2.640845e-02 3.581743e+00 -7.359602e-01 7.857468e-06 -8.493879e-06 1.265046e-05
N 3.115100e+00 -1.850472e+00 4.285864e+00 2.278066e-07 -7.419867e-06 1.718632e-05
N 3.160669e+00 -1.877037e+00 -5.805479e+00 2.083671e-06 6.269118e-07 2.113890e-05
N 3.119468e+00 -1.852791e+00 -7.343445e-01 2.171191e-06 1.662854e-06 -2.174022e-06
N -4.726896e+00 8.681564e-01 4.281138e+00 2.822034e-06 -1.438566e-05 1.913807e-05
N -4.729636e+00 8.664957e-01 -5.781224e+00 -2.948083e-06 -1.673639e-05 1.495532e-05
N -4.729455e+00 8.666035e-01 -7.456690e-01 6.605310e-06 -1.645239e-05 9.365376e-06
N -6.299436e+00 3.584124e+00 4.285813e+00 8.565749e-06 -4.325145e-06 1.720138e-05
N -6.259024e+00 3.558744e+00 -5.808129e+00 9.260230e-06 -1.335722e-05 1.700074e-05
N -6.292945e+00 3.582124e+00 -7.343652e-01 1.025838e-05 -7.397278e-06 1.063143e-05
N -3.160720e+00 -1.852009e+00 4.285800e+00 5.927086e-06 -9.164984e-06 1.687658e-05
N -3.162467e+00 -1.804425e+00 -5.808101e+00 -1.394144e-06 -4.131590e-06 1.965971e-05
N -3.159141e+00 -1.845605e+00 -7.343962e-01 3.978203e-06 -4.805905e-06 7.343640e-06
N -1.593770e+00 8.691742e-01 4.284601e+00 5.747331e-06 -9.617877e-06 2.427418e-05
N -1.591046e+00 8.696687e-01 -5.787703e+00 5.749373e-06 -1.066872e-05 2.403921e-05
N -1.591172e+00 8.660675e-01 -7.442513e-01 -3.775113e-07 -1.485203e-05 2.693885e-05
N -3.159588e+00 3.581201e+00 4.284653e+00 9.823045e-06 2.752477e-06 1.485565e-05
N -3.157732e+00 3.583209e+00 -5.787827e+00 5.912170e-06 6.000982e-06 1.618962e-05
N -3.160875e+00 3.584846e+00 -7.442889e-01 1.322097e-05 -4.375147e-06 8.609310e-06
N -2.133925e-02 -1.849968e+00 4.284397e+00 8.726916e-06 -1.012678e-06 1.789069e-05
N -6.517241e-02 -1.875218e+00 -5.799860e+00 4.524517e-06 5.700659e-06 -1.811792e-05
N -2.567721e-02 -1.852525e+00 -6.724125e-01 -5.764355e-06 1.234450e-05 6.251672e-05
N -2.327057e-02 1.772126e+00 1.776319e+00 -1.114636e-05 -6.550028e-06 2.043970e-05
N -2.490218e-02 1.772630e+00 6.786584e+00 -1.003492e-05 4.239556e-06 2.735944e-05
N -2.251983e-02 1.772473e+00 -3.260701e+00 -1.460811e-05 4.985583e-06 2.304823e-05
N 3.114356e+00 -3.662302e+00 1.776263e+00 -3.019612e-07 8.987226e-06 4.634163e-05
N 3.114062e+00 -3.663864e+00 6.786590e+00 -8.893508e-06 4.590905e-06 2.212207e-05
N 3.115286e+00 -3.661892e+00 -3.260763e+00 -1.650278e-05 6.611277e-06 1.428167e-05
N 1.550552e+00 -9.425044e-01 1.780742e+00 -1.032993e-05 2.176980e-06 4.028648e-06
N 1.546771e+00 -9.446298e-01 6.800273e+00 -1.143022e-05 4.149976e-06 1.974005e-05
N 1.588361e+00 -9.206964e-01 -3.219827e+00 4.561066e-05 -4.572084e-06 3.984244e-05
N 3.115529e+00 1.772471e+00 1.776299e+00 6.261995e-06 2.094214e-05 8.050896e-06
N 3.118456e+00 1.770524e+00 6.786229e+00 -6.876341e-06 1.293873e-05 1.308041e-05
N 3.114537e+00 1.773047e+00 -3.262328e+00 -3.443023e-06 1.150145e-05 2.250118e-05
N 6.253164e+00 -3.661847e+00 1.771384e+00 -1.684768e-06 2.243405e-05 -8.517068e-07
N 6.251722e+00 -3.662619e+00 6.798188e+00 -5.496650e-06 1.066397e-05 1.776465e-05
N 6.253433e+00 -3.661776e+00 -3.199708e+00 -1.092493e-05 1.379457e-05 9.641324e-06
N 4.684040e+00 -9.442068e-01 1.776279e+00 7.479181e-06 2.387036e-05 1.946030e-05
N 4.683801e+00 -9.406129e-01 6.786264e+00 -3.313420e-06 1.268112e-05 1.528732e-05
N 4.684084e+00 -9.452525e-01 -3.262286e+00 -2.725284e-06 2.229588e-05 1.953648e-05
N -3.160219e+00 1.772867e+00 1.768833e+00 5.048174e-06 2.020242e-05 3.455934e-05
N -3.161164e+00 1.772288e+00 6.799801e+00 -7.535290e-06 1.150959e-05 1.487902e-05
N -3.160774e+00 1.772634e+00 -3.265407e+00 -5.338326e-06 1.368369e-05 1.332159e-05
N -2.164682e-02 -3.666914e+00 1.786345e+00 6.151681e-06 3.090815e-05 1.440317e-05
N -1.959573e-02 -3.663247e+00 6.787597e+00 -9.322452e-06 1.115394e-05 9.194389e-06
N -2.315879e-02 -3.710494e+00 -3.281044e+00 -1.050293e-05 8.810295e-06 2.089673e-05
N -1.595189e+00 -9.417336e-01 1.786351e+00 2.295735e-05 1.344137e-05 -4.643802e-06
N -1.591057e+00 -9.416469e-01 6.787575e+00 -5.434515e-06 1.083901e-05 1.707242e-05
N -1.633787e+00 -9.211633e-01 -3.280799e+00 -4.844772e-06 2.067959e-05 2.048345e-05
