108
Energy=-2.313452e+06 Lattice="9.476278e+00 0.000000e+00 0.000000e+00 -4.738139e+00 8.206697e+00 0.000000e+00 9.377101e-16 1.624162e-15 1.531397e+01" Stress="-7.828256e-02 6.850743e-03 -1.992651e-04 6.843048e-03 -7.031034e-02 -3.777976e-04 -1.949662e-04 -3.925092e-04 -7.317737e-02" Properties=species:S:1:pos:R:3:forces:R:3 Config_type=AlGaN_super3_41_1_0.xyz
Al 1.564294e+00 9.031460e-01 2.504900e+00 -1.449886e-03 -1.461399e-02 -1.259503e-02
Al 1.564294e+00 9.031460e-01 7.521855e+00 -1.634587e-03 -1.470243e-02 -5.157402e-03
Al 1.564294e+00 9.031460e-01 -2.775158e+00 -1.410417e-03 -1.495569e-02 -5.761618e-03
Al 2.938992e-08 3.612582e+00 2.504900e+00 -3.330108e-03 -9.621008e-04 -1.135918e-02
Ga 2.938992e-08 3.612582e+00 7.521855e+00 -3.495339e-03 -1.844484e-03 -3.026103e-03
Ga 2.938992e-08 3.612582e+00 -2.775158e+00 -3.053036e-03 -2.012945e-03 -2.398937e-03
Ga 3.173845e+00 -1.884678e+00 2.504900e+00 -3.452741e-03 1.085670e-03 -1.413612e-02
Al 3.173845e+00 -1.884678e+00 7.521855e+00 -3.437233e-03 1.832691e-03 -3.378615e-03
Ga 3.173845e+00 -1.884678e+00 -2.775158e+00 -3.859390e-03 2.421782e-03 -4.166076e-03
Ga -4.783396e+00 9.031460e-01 2.504900e+00 6.694842e-04 -1.698191e-02 -1.403848e-02
Ga -4.783396e+00 9.031460e-01 7.521855e+00 7.954157e-05 -1.758114e-02 -4.675646e-03
Ga -4.783396e+00 9.031460e-01 -2.775158e+00 1.973802e-04 -1.736098e-02 -4.685860e-03
Ga -6.347690e+00 3.612582e+00 2.504900e+00 -6.118499e-04 -5.409275e-05 -1.142275e-02
Ga -6.347690e+00 3.612582e+00 7.521855e+00 -3.676932e-04 -3.587813e-04 -7.464001e-04
Ga -6.347690e+00 3.612582e+00 -2.775158e+00 -1.213099e-04 -3.186550e-04 -2.157083e-03
Ga -3.173845e+00 -1.884678e+00 2.504900e+00 -5.520983e-04 2.675933e-03 -1.267551e-02
Ga -3.173845e+00 -1.884678e+00 7.521855e+00 -7.862794e-04 3.574044e-03 -2.172138e-03
Ga -3.173845e+00 -1.884678e+00 -2.775158e+00 -4.678484e-04 3.613995e-03 -2.779798e-03
Ga -1.654808e+00 9.031460e-01 2.504900e+00 1.658980e-02 -8.783032e-03 -1.651050e-02
Ga -1.654808e+00 9.031460e-01 7.521855e+00 1.681507e-02 -9.308719e-03 -8.767354e-03
Ga -1.654808e+00 9.031460e-01 -2.775158e+00 1.700735e-02 -9.402753e-03 -7.803772e-03
Al -3.219102e+00 3.612582e+00 2.504900e+00 1.305928e-02 5.330147e-03 -1.165327e-02
Ga -3.219102e+00 3.612582e+00 7.521855e+00 1.580590e-02 8.310020e-03 -4.556955e-03
Ga -3.219102e+00 3.612582e+00 -2.775158e+00 1.527756e-02 8.076802e-03 -4.802120e-03
Ga -4.525702e-02 -1.884678e+00 2.504900e+00 1.541875e-02 1.088778e-02 -1.558033e-02
Ga -4.525702e-02 -1.884678e+00 7.521855e+00 1.542713e-02 1.132324e-02 -5.073636e-03
Ga -4.525702e-02 -1.884678e+00 -2.775158e+00 1.549136e-02 1.132791e-02 -6.962265e-03
Al 1.469567e-08 1.806291e+00 5.013378e+00 -1.217143e-02 -8.364688e-03 -5.903957e-03
Ga 1.469567e-08 1.806291e+00 -5.283635e+00 -1.490143e-02 -1.094011e-02 -6.546795e-03
Ga 1.469567e-08 1.806291e+00 -2.666800e-01 -1.492375e-02 -1.077446e-02 4.490741e-02
Ga 3.173845e+00 -3.690969e+00 5.013378e+00 -1.519361e-02 -8.749022e-03 -6.031195e-03
Ga 3.173845e+00 -3.690969e+00 -5.283635e+00 -1.556220e-02 -7.817155e-03 -5.749194e-03
Al 3.173845e+00 -3.690969e+00 -2.666800e-01 -1.214606e-02 -5.923447e-03 3.680379e-02
Ga 1.609551e+00 -9.815320e-01 5.013378e+00 -1.666201e-02 9.654157e-03 -8.757702e-03
Al 1.609551e+00 -9.815320e-01 -5.283635e+00 -1.404888e-02 7.730771e-03 -6.689908e-03
Ga 1.609551e+00 -9.815320e-01 -2.666800e-01 -1.621376e-02 9.450595e-03 4.224963e-02
Ga 3.128588e+00 1.806291e+00 5.013378e+00 -3.636918e-05 -3.431364e-03 -3.121399e-03
Ga 3.128588e+00 1.806291e+00 -5.283635e+00 1.002162e-04 -2.799830e-03 -2.995620e-03
Ga 3.128588e+00 1.806291e+00 -2.666800e-01 2.724362e-04 -3.600220e-03 4.849644e-02
Ga 6.302433e+00 -3.690969e+00 5.013378e+00 -1.429542e-04 -6.072882e-04 -2.591622e-03
Al 6.302433e+00 -3.690969e+00 -5.283635e+00 5.462752e-04 -3.630891e-04 -2.304389e-03
Al 6.302433e+00 -3.690969e+00 -2.666800e-01 -3.434962e-04 -5.518108e-04 3.886200e-02
Ga 4.738139e+00 -9.815320e-01 5.013378e+00 -5.993511e-04 1.749135e-02 -5.001337e-03
Ga 4.738139e+00 -9.815320e-01 -5.283635e+00 -9.586092e-04 1.698367e-02 -5.327793e-03
Ga 4.738139e+00 -9.815320e-01 -2.666800e-01 -8.876755e-04 1.693779e-02 4.641438e-02
Ga -3.219102e+00 1.806291e+00 5.013378e+00 3.558077e-03 -1.960641e-03 -4.951528e-03
Ga -3.219102e+00 1.806291e+00 -5.283635e+00 3.303200e-03 -1.518240e-03 -3.979363e-03
Al -3.219102e+00 1.806291e+00 -2.666800e-01 3.234152e-03 -1.586590e-03 3.688505e-02
Ga -4.525703e-02 -3.690969e+00 5.013378e+00 3.318157e-03 1.108658e-03 -3.397994e-03
Al -4.525703e-02 -3.690969e+00 -5.283635e+00 2.730611e-03 1.557534e-03 -3.101828e-03
Ga -4.525703e-02 -3.690969e+00 -2.666800e-01 3.424980e-03 9.260691e-04 4.867049e-02
Ga -1.609551e+00 -9.815320e-01 5.013378e+00 2.115190e-03 1.909212e-02 -6.377890e-03
Ga -1.609551e+00 -9.815320e-01 -5.283635e+00 2.366993e-03 1.802001e-02 -6.245586e-03
Ga -1.609551e+00 -9.815320e-01 -2.666800e-01 1.962778e-03 1.873079e-02 4.539169e-02
N 1.564294e+00 9.031460e-01 4.418497e+00 -1.996128e-02 -7.175499e-03 -8.542304e-03
N 1.564294e+00 9.031460e-01 -5.878516e+00 -6.731371e-04 -3.565531e-02 -1.069033e-02
N 1.564294e+00 9.031460e-01 -8.615610e-01 -1.422816e-03 -1.751460e-02 -1.385599e-02
N 2.938992e-08 3.612582e+00 4.418497e+00 -1.983267e-03 -2.165914e-02 -1.281281e-02
N 2.938992e-08 3.612582e+00 -5.878516e+00 1.636292e-02 1.099896e-02 1.001872e-02
N 2.938992e-08 3.612582e+00 -8.615610e-01 -1.826979e-03 2.187158e-02 1.967419e-02
N 3.173845e+00 -1.884678e+00 4.418497e+00 -3.187519e-03 1.971798e-03 2.591954e-03
N 3.173845e+00 -1.884678e+00 -5.878516e+00 -2.125405e-02 1.253322e-02 -1.438236e-02
N 3.173845e+00 -1.884678e+00 -8.615610e-01 -2.650903e-03 -1.978056e-02 1.284537e-02
N -4.783396e+00 9.031460e-01 4.418497e+00 2.988120e-04 -1.777660e-02 7.073572e-03
N -4.783396e+00 9.031460e-01 -5.878516e+00 4.711738e-04 -1.798588e-02 6.287938e-03
N -4.783396e+00 9.031460e-01 -8.615610e-01 1.910902e-02 -6.831110e-03 1.705145e-02
N -6.347690e+00 3.612582e+00 4.418497e+00 -3.945646e-04 5.351118e-04 3.090136e-03
N -6.347690e+00 3.612582e+00 -5.878516e+00 -3.559558e-04 2.223365e-02 1.796334e-02
N -6.347690e+00 3.612582e+00 -8.615610e-01 -1.929087e-02 1.157752e-02 1.330554e-02
N -3.173845e+00 -1.884678e+00 4.418497e+00 -1.026208e-03 2.222785e-03 2.654212e-03
N -3.173845e+00 -1.884678e+00 -5.878516e+00 -1.326398e-03 -1.928177e-02 9.606645e-03
N -3.173845e+00 -1.884678e+00 -8.615610e-01 -1.069334e-03 -1.962227e-02 1.252209e-02
N -1.654808e+00 9.031460e-01 4.418497e+00 3.203537e-02 -1.417809e-03 1.685981e-02
N -1.654808e+00 9.031460e-01 -5.878516e+00 1.656851e-02 -9.766476e-03 1.020194e-02
N -1.654808e+00 9.031460e-01 -8.615610e-01 -1.746144e-03 8.792985e-04 2.060675e-02
N -3.219102e+00 3.612582e+00 4.418497e+00 1.504325e-02 8.777919e-03 -1.643015e-02
N -3.219102e+00 3.612582e+00 -5.878516e+00 -3.197416e-03 1.927557e-02 1.400980e-02
N -3.219102e+00 3.612582e+00 -8.615610e-01 3.065381e-02 -4.526489e-03 2.183112e-02
N -4.525702e-02 -1.884678e+00 4.418497e+00 1.490470e-02 1.020260e-02 6.646910e-03
N -4.525702e-02 -1.884678e+00 -5.878516e+00 3.025658e-02 -3.150687e-03 1.954777e-02
N -4.525702e-02 -1.884678e+00 -8.615610e-01 1.455763e-02 9.919290e-03 9.399191e-03
N 1.469567e-08 1.806291e+00 1.910020e+00 4.079209e-03 4.594493e-04 -2.403809e-02
N 1.469567e-08 1.806291e+00 6.926975e+00 4.125463e-03 -2.070621e-02 -9.615110e-03
N 1.469567e-08 1.806291e+00 -3.370038e+00 3.513441e-03 -2.080526e-02 1.370179e-02
N 3.173845e+00 -3.690969e+00 1.910020e+00 -1.224498e-02 -2.810812e-02 -3.699881e-02
N 3.173845e+00 -3.690969e+00 6.926975e+00 -1.538650e-02 1.349674e-02 1.390027e-02
N 3.173845e+00 -3.690969e+00 -3.370038e+00 -1.542589e-02 -8.610335e-03 6.954475e-03
N 1.609551e+00 -9.815320e-01 1.910020e+00 -1.716258e-02 2.800872e-02 -2.929113e-02
N 1.609551e+00 -9.815320e-01 6.926975e+00 1.864741e-03 1.622599e-02 2.442047e-02
N 1.609551e+00 -9.815320e-01 -3.370038e+00 -1.670876e-02 2.706398e-02 -7.044704e-03
N 3.128588e+00 1.806291e+00 1.910020e+00 -1.782021e-02 -1.339703e-02 -3.659717e-02
N 3.128588e+00 1.806291e+00 6.926975e+00 -1.753306e-02 -1.248428e-02 9.897310e-03
N 3.128588e+00 1.806291e+00 -3.370038e+00 -1.760364e-02 -1.273894e-02 9.853049e-03
N 6.302433e+00 -3.690969e+00 1.910020e+00 -1.852776e-02 -1.128663e-02 -4.739789e-02
N 6.302433e+00 -3.690969e+00 6.926975e+00 9.475140e-04 -1.106812e-04 2.312347e-03
N 6.302433e+00 -3.690969e+00 -3.370038e+00 4.622802e-04 -4.269052e-05 -2.073370e-02
N 4.738139e+00 -9.815320e-01 1.910020e+00 -5.550256e-04 1.832403e-02 -3.941313e-02
N 4.738139e+00 -9.815320e-01 6.926975e+00 -1.904994e-02 6.576933e-03 1.370571e-02
N 4.738139e+00 -9.815320e-01 -3.370038e+00 -1.900214e-04 1.766487e-02 6.356374e-03
N -3.219102e+00 1.806291e+00 1.910020e+00 2.880642e-03 1.975839e-02 -4.844285e-02
N -3.219102e+00 1.806291e+00 6.926975e+00 2.741573e-03 -1.737955e-03 1.767489e-03
N -3.219102e+00 1.806291e+00 -3.370038e+00 3.120038e-03 -1.975891e-03 1.922172e-03
N -4.525703e-02 -3.690969e+00 1.910020e+00 2.120661e-02 -1.079550e-02 -3.629845e-02
N -4.525703e-02 -3.690969e+00 6.926975e+00 2.067188e-03 2.066590e-04 2.137603e-03
N -4.525703e-02 -3.690969e+00 -3.370038e+00 2.353572e-03 -1.659113e-05 -2.107005e-02
N -1.609551e+00 -9.815320e-01 1.910020e+00 1.426649e-03 1.864214e-02 -3.971469e-02
N -1.609551e+00 -9.815320e-01 6.926975e+00 1.400058e-03 1.752261e-02 6.084683e-03
N -1.609551e+00 -9.815320e-01 -3.370038e+00 1.174168e-03 1.809662e-02 6.004697e-03
