108
Energy=-1.535276e+06 Lattice="9.527612e+00 0.000000e+00 0.000000e+00 -4.765990e+00 8.250255e+00 0.000000e+00 -3.823814e-03 1.087930e-02 1.538758e+01" Stress="-1.516811e-04 5.296412e-05 -8.055982e-07 5.259184e-05 -1.380316e-04 5.984175e-04 -2.714014e-06 5.851837e-04 -2.075337e-04" Properties=species:S:1:pos:R:3:forces:R:3 Config_type=AlGaN_super3_24_1_19.xyz
Al 1.555007e+00 8.828498e-01 2.393173e+00 -4.575637e-04 -2.312447e-04 -5.537512e-04
Al 1.552902e+00 8.784077e-01 7.541569e+00 -6.660698e-05 -6.110957e-05 2.350381e-04
Al 1.547588e+00 8.568352e-01 -2.689675e+00 -3.734331e-04 1.270233e-04 5.598044e-04
Al -2.120349e-02 3.610629e+00 2.408253e+00 -1.233455e-03 -9.005458e-05 4.250486e-04
Al -1.836408e-02 3.631802e+00 7.535753e+00 -3.266343e-04 -6.640153e-04 8.010116e-04
Al -3.442390e-02 3.623093e+00 -2.705132e+00 5.587713e-04 -3.242403e-04 2.217723e-04
Al 3.158035e+00 -1.862272e+00 2.385638e+00 7.847302e-04 5.185881e-04 1.952874e-04
Al 3.151325e+00 -1.867152e+00 7.555677e+00 -9.185146e-05 2.744219e-05 3.222584e-04
Al 3.139282e+00 -1.884101e+00 -2.697332e+00 2.237724e-04 1.351834e-03 3.052218e-04
Al -4.797368e+00 8.636549e-01 2.412438e+00 -7.189471e-05 1.258922e-04 -1.183321e-04
Ga -4.805612e+00 8.682315e-01 7.534076e+00 1.663741e-04 -1.176603e-04 6.059232e-05
Ga -4.794577e+00 8.658974e-01 -2.684995e+00 4.160627e-05 -2.076026e-04 1.922782e-05
Al -6.378777e+00 3.624119e+00 2.424967e+00 1.548505e-05 3.223378e-04 -2.268314e-04
Ga -6.394271e+00 3.635775e+00 7.547046e+00 1.323632e-04 -4.244977e-06 1.823511e-04
Ga -6.385280e+00 3.632260e+00 -2.712840e+00 -5.437849e-05 7.635344e-05 -1.015380e-04
Ga -3.210741e+00 -1.861898e+00 2.416992e+00 1.884727e-04 1.946578e-04 2.743776e-05
Ga -3.208017e+00 -1.880168e+00 7.530690e+00 5.898876e-05 2.993520e-04 4.827634e-04
Ga -3.192833e+00 -1.875715e+00 -2.698138e+00 3.112955e-05 7.962593e-05 2.409720e-04
Al -1.587188e+00 8.806128e-01 2.408069e+00 4.467371e-05 4.976972e-04 6.756457e-04
Ga -1.592003e+00 8.826415e-01 7.539868e+00 3.899269e-04 -6.901233e-05 8.985706e-05
Al -1.584790e+00 8.688440e-01 -2.692553e+00 -1.523226e-05 -2.726251e-04 -7.209776e-06
Ga -3.197678e+00 3.635623e+00 2.399841e+00 1.921144e-04 2.965582e-04 7.654886e-05
Ga -3.192121e+00 3.650003e+00 7.558477e+00 2.123063e-04 1.441414e-04 1.914174e-04
Ga -3.181237e+00 3.648700e+00 -2.696537e+00 -2.189590e-04 -1.433931e-05 1.579570e-04
Ga -2.032270e-02 -1.864450e+00 2.400842e+00 1.365734e-04 6.641578e-05 2.755660e-04
Ga -1.560026e-02 -1.859259e+00 7.558518e+00 3.074296e-04 1.057441e-04 5.479500e-04
Al -1.157612e-02 -1.857668e+00 -2.707359e+00 2.871349e-04 8.795173e-05 3.426547e-04
Al -2.025418e-02 1.798424e+00 4.964006e+00 3.735451e-04 -6.995217e-07 1.862535e-04
Ga -1.397440e-02 1.794064e+00 -5.259740e+00 -2.161304e-04 1.742668e-04 3.198671e-04
Al -2.672282e-02 1.787114e+00 -1.580696e-01 -8.152599e-04 -4.700246e-05 5.208537e-04
Ga 3.175232e+00 -3.695704e+00 4.973724e+00 -2.171892e-04 4.993959e-05 1.312223e-04
Al 3.165121e+00 -3.694428e+00 -5.273289e+00 -9.549366e-05 -1.717950e-04 -8.360283e-04
Al 3.165576e+00 -3.694113e+00 -1.430408e-01 -7.001399e-04 5.088975e-04 -1.266169e-04
Ga 1.566985e+00 -9.518240e-01 4.969262e+00 -2.920708e-04 1.849920e-04 2.804180e-04
Al 1.564779e+00 -9.730562e-01 -5.260934e+00 -3.158696e-04 2.699364e-04 1.419815e-04
Al 1.565498e+00 -9.661890e-01 -1.598213e-01 -3.905774e-04 -7.799988e-05 -7.259413e-04
Ga 3.136588e+00 1.802276e+00 4.948890e+00 2.060654e-04 1.235580e-04 4.185172e-04
Ga 3.134827e+00 1.791123e+00 -5.268924e+00 -2.695084e-05 -4.338282e-05 4.334448e-05
Ga 3.139571e+00 1.788012e+00 -1.178182e-01 5.426224e-05 -5.880480e-05 3.046557e-04
Al 6.327794e+00 -3.702874e+00 4.954957e+00 -1.913005e-04 -5.714377e-04 9.407192e-06
Al 6.323203e+00 -3.707233e+00 -5.271771e+00 -1.279605e-04 -7.534956e-05 1.984065e-04
Ga 6.317072e+00 -3.706757e+00 -1.281148e-01 1.552129e-04 1.939673e-04 -3.329446e-04
Al 4.740654e+00 -9.654239e-01 4.966730e+00 -2.287949e-04 2.351494e-04 3.182386e-04
Ga 4.735717e+00 -9.865939e-01 -5.266548e+00 -2.201595e-04 2.234829e-04 2.618288e-04
Al 4.726219e+00 -9.676439e-01 -1.404261e-01 2.757434e-04 -3.380123e-04 1.714768e-04
Ga -3.192903e+00 1.784616e+00 4.948104e+00 9.605728e-05 1.862077e-04 2.087167e-04
Ga -3.187690e+00 1.796596e+00 -5.253249e+00 -9.933776e-05 7.311868e-05 8.042279e-05
Ga -3.178542e+00 1.786486e+00 -1.266920e-01 -1.205954e-04 -1.427479e-04 -1.930227e-04
Al -4.136952e-02 -3.694041e+00 4.970348e+00 1.545628e-04 1.269145e-04 5.096065e-04
Al -2.072223e-02 -3.687045e+00 -5.257492e+00 2.246909e-05 1.025642e-04 2.392582e-04
Al -1.989164e-02 -3.683469e+00 -1.507554e-01 1.341472e-04 2.924453e-04 3.547006e-04
Al -1.613264e+00 -9.547330e-01 4.958925e+00 -3.259662e-05 3.763326e-04 2.990667e-04
Al -1.594328e+00 -9.744676e-01 -5.249906e+00 -1.108816e-04 1.563808e-04 3.527215e-04
Al -1.593311e+00 -9.475848e-01 -1.555388e-01 -3.145995e-04 -1.120771e-03 2.870310e-04
N 1.514089e+00 8.970292e-01 4.303670e+00 -4.061373e-04 1.904525e-04 1.912550e-05
N 1.557424e+00 8.198006e-01 -5.927281e+00 1.107536e-04 -2.870307e-04 -2.200376e-04
N 1.522770e+00 8.489472e-01 -7.664884e-01 3.874932e-04 1.029003e-04 -1.190258e-03
N 1.324791e-02 3.601007e+00 4.329864e+00 1.272980e-04 -5.298593e-04 -4.984090e-04
N -2.129119e-02 3.666318e+00 -5.919492e+00 1.605135e-04 3.633979e-04 -2.052983e-04
N -6.766467e-02 3.604260e+00 -7.821468e-01 2.017185e-04 -3.615616e-04 -3.355225e-04
N 3.191596e+00 -1.847687e+00 4.301934e+00 6.140296e-05 1.997063e-04 -9.791874e-04
N 3.109601e+00 -1.897454e+00 -5.910106e+00 -1.045698e-04 -4.533511e-04 -2.880850e-04
N 3.150357e+00 -1.877573e+00 -7.678431e-01 1.743190e-04 -1.287356e-04 -2.300111e-04
N -4.792599e+00 8.257306e-01 4.325077e+00 -1.230797e-05 -3.642005e-04 -2.624059e-04
N -4.786046e+00 8.698206e-01 -5.885957e+00 1.781546e-04 -1.188443e-04 -8.816344e-05
N -4.788620e+00 8.334725e-01 -7.216954e-01 -3.604578e-05 1.471869e-05 -6.355950e-05
N -6.374978e+00 3.682501e+00 4.339373e+00 -2.605927e-05 1.732168e-05 2.798866e-05
N -6.373943e+00 3.675668e+00 -5.853190e+00 2.648397e-06 2.462131e-04 -1.684066e-05
N -6.339289e+00 3.651219e+00 -7.461641e-01 5.156425e-05 -8.565967e-05 1.478356e-04
N -3.201242e+00 -1.867183e+00 4.404628e+00 5.624298e-05 1.676587e-04 2.871661e-05
N -3.149775e+00 -1.899493e+00 -5.862807e+00 2.572369e-04 -1.660115e-04 -2.695402e-04
N -3.196633e+00 -1.827061e+00 -7.175308e-01 1.353590e-04 2.387682e-04 1.259540e-04
N -1.560265e+00 8.559718e-01 4.332544e+00 5.800874e-04 -3.470517e-04 -4.407894e-04
N -1.604154e+00 8.224370e-01 -5.872928e+00 3.707053e-04 -3.954155e-04 -1.906981e-04
N -1.567143e+00 8.503264e-01 -7.801392e-01 5.633156e-04 8.962139e-04 -8.446854e-05
N -3.238662e+00 3.665092e+00 4.372693e+00 -9.104800e-05 -4.325287e-05 -1.276314e-04
N -3.199068e+00 3.676532e+00 -5.842043e+00 1.782719e-04 2.245674e-04 8.556910e-05
N -3.194880e+00 3.679036e+00 -7.126044e-01 2.006003e-04 -3.043635e-05 3.020893e-04
N -6.099388e-02 -1.890034e+00 4.378875e+00 1.471382e-05 -2.239437e-04 -3.628803e-04
N -2.002692e-02 -1.872474e+00 -5.838268e+00 1.596209e-04 -1.535971e-04 -2.514680e-04
N -2.033556e-02 -1.869521e+00 -7.723970e-01 1.037182e-04 -2.193576e-04 -2.325838e-04
N -2.310794e-02 1.797618e+00 1.771538e+00 -3.702697e-04 -1.163682e-04 -6.927581e-05
N 1.842312e-02 1.824668e+00 6.898598e+00 6.816543e-05 4.596790e-05 -4.959332e-04
N -1.778818e-02 1.794717e+00 -3.271522e+00 1.738095e-04 2.305121e-05 3.258542e-05
N 3.204015e+00 -3.679199e+00 1.777065e+00 6.089511e-04 -3.061434e-04 3.981426e-05
N 3.201519e+00 -3.674744e+00 6.957442e+00 -7.713673e-04 2.278615e-04 3.255748e-05
N 3.203136e+00 -3.678273e+00 -3.347642e+00 -1.322293e-04 -6.158035e-04 -2.454965e-04
N 1.604203e+00 -9.330918e-01 1.759631e+00 5.910368e-04 2.607444e-04 1.320197e-03
N 1.608883e+00 -9.295973e-01 6.952487e+00 -1.581495e-04 3.163515e-05 -2.219755e-04
N 1.571070e+00 -9.594010e-01 -3.319924e+00 -4.695814e-05 7.556420e-05 -2.925669e-04
N 3.149611e+00 1.797793e+00 1.865985e+00 6.609927e-05 -1.826538e-04 -4.117711e-05
N 3.102425e+00 1.778525e+00 6.929993e+00 -2.511190e-04 -2.183307e-04 -2.448173e-04
N 3.102182e+00 1.763247e+00 -3.297336e+00 -2.725636e-04 -2.965685e-04 -1.417633e-06
N 6.324945e+00 -3.753324e+00 1.843052e+00 8.727342e-04 3.154771e-04 3.221044e-04
N 6.283896e+00 -3.730093e+00 6.874640e+00 5.722717e-04 4.006684e-04 -7.826866e-04
N 6.279946e+00 -3.731501e+00 -3.355980e+00 -2.105507e-04 -1.212642e-04 -4.950179e-05
N 4.701501e+00 -9.319082e-01 1.769355e+00 -1.122140e-03 -9.468902e-04 2.510880e-04
N 4.693740e+00 -9.821398e-01 6.886878e+00 -3.109784e-04 -5.094173e-05 -3.593068e-04
N 4.697010e+00 -9.881059e-01 -3.300631e+00 -5.699371e-04 -2.396434e-04 1.687127e-04
N -3.192941e+00 1.743082e+00 1.850941e+00 8.522593e-05 3.347941e-05 1.294315e-04
N -3.198900e+00 1.800926e+00 6.921927e+00 -4.310358e-05 -5.412277e-05 -2.841660e-04
N -3.153863e+00 1.770710e+00 -3.278697e+00 2.137102e-04 -1.261462e-05 -6.308670e-05
N -6.884521e-02 -3.724043e+00 1.756678e+00 -7.611130e-05 -7.247852e-05 -4.196502e-04
N -2.701236e-02 -3.698600e+00 6.881481e+00 -6.838526e-05 -7.383043e-06 -5.156026e-04
N -1.991838e-02 -3.655671e+00 -3.346098e+00 8.211073e-05 6.185350e-05 -2.460648e-04
N -1.610487e+00 -9.059936e-01 1.758061e+00 9.835740e-05 1.711984e-06 -4.842914e-04
N -1.609116e+00 -9.528674e-01 6.867785e+00 -2.362769e-04 1.124053e-04 -4.810224e-04
N -1.566173e+00 -9.345543e-01 -3.328547e+00 -9.903899e-06 1.560539e-06 -2.500551e-04
