108
Energy=-1.489500e+06 Lattice="9.516268e+00 0.000000e+00 0.000000e+00 -4.761619e+00 8.237910e+00 0.000000e+00 3.268103e-03 -1.517110e-03 1.536713e+01" Stress="-2.447012e-03 -1.194275e-04 1.965631e-05 -1.224593e-04 -2.861578e-03 -9.688922e-05 2.251186e-05 -1.145930e-04 -2.105184e-03" Properties=species:S:1:pos:R:3:forces:R:3 Config_type=AlGaN_super3_23_1_19.xyz
Al 1.576933e+00 8.766658e-01 2.423486e+00 -8.453736e-04 -2.087413e-03 -3.400986e-04
Al 1.564781e+00 8.810791e-01 7.524389e+00 2.832097e-04 -9.045182e-04 2.226987e-04
Al 1.560670e+00 8.827727e-01 -2.703476e+00 1.730260e-05 -4.443469e-06 4.757342e-04
Al -2.939024e-02 3.635758e+00 2.424056e+00 -1.273109e-05 -6.517448e-05 4.887228e-04
Al -3.589764e-02 3.617567e+00 7.518833e+00 2.415334e-04 -5.504958e-04 -1.275982e-03
Al -2.920976e-02 3.616513e+00 -2.705547e+00 1.742269e-04 -8.027974e-05 4.098432e-04
Al 3.158779e+00 -1.876715e+00 2.391090e+00 -4.975083e-04 1.206099e-04 -3.152966e-05
Al 3.159900e+00 -1.877341e+00 7.505933e+00 -3.519285e-04 -3.516588e-04 7.008022e-04
Ga 3.165403e+00 -1.870740e+00 -2.669520e+00 -6.868426e-05 2.794744e-04 9.692749e-04
Al -4.794152e+00 8.671741e-01 2.427143e+00 -4.212956e-04 -1.722543e-04 5.991751e-04
Al -4.787299e+00 8.703383e-01 7.511461e+00 3.040911e-04 7.017407e-04 5.169110e-04
Al -4.778083e+00 8.745662e-01 -2.706590e+00 2.335305e-04 -9.167926e-05 2.650386e-04
Al -6.367343e+00 3.615071e+00 2.418389e+00 8.635765e-05 1.222737e-03 -6.173256e-04
Ga -6.373070e+00 3.601177e+00 7.520673e+00 1.180321e-04 1.044580e-04 7.016739e-04
Ga -6.362213e+00 3.620499e+00 -2.699871e+00 -4.972268e-05 2.549900e-04 2.972786e-05
Al -3.211790e+00 -1.875341e+00 2.436575e+00 1.017939e-03 1.285988e-04 -1.387260e-03
Ga -3.210606e+00 -1.868150e+00 7.515409e+00 1.020966e-04 -1.579277e-04 5.041824e-04
Al -3.202269e+00 -1.862374e+00 -2.703309e+00 -8.261752e-05 2.656457e-04 3.346520e-04
Ga -1.614259e+00 8.815651e-01 2.420428e+00 7.944172e-04 -4.887009e-04 -2.163730e-04
Al -1.610364e+00 8.940602e-01 7.563991e+00 3.220624e-04 -2.412392e-04 5.207617e-04
Ga -1.618473e+00 8.914660e-01 -2.739270e+00 5.827969e-04 -3.957429e-04 5.081342e-05
Al -3.191882e+00 3.638134e+00 2.407549e+00 1.507285e-04 -3.457270e-05 7.421322e-04
Al -3.180899e+00 3.614793e+00 7.529654e+00 1.090875e-04 6.582094e-04 1.816494e-03
Al -3.198888e+00 3.616023e+00 -2.705161e+00 -3.939074e-04 3.796501e-04 -2.797221e-04
Al -1.010280e-02 -1.878639e+00 2.395845e+00 4.696601e-04 2.072398e-04 -4.832485e-04
Ga -1.006550e-02 -1.866143e+00 7.553767e+00 1.667694e-04 -3.365523e-04 6.557142e-04
Ga -1.910677e-02 -1.874884e+00 -2.701811e+00 7.637629e-06 -4.098969e-04 4.661343e-04
Ga -8.477324e-03 1.806420e+00 4.987519e+00 -3.154442e-04 3.782056e-04 2.575521e-04
Al -2.760062e-02 1.793496e+00 -5.290704e+00 -1.595166e-04 -9.876810e-04 9.367338e-04
Ga -1.585813e-02 1.798253e+00 -1.346178e-01 2.835545e-04 -1.273744e-05 -1.581616e-04
Al 3.169906e+00 -3.695395e+00 4.967313e+00 -1.288704e-03 5.237664e-04 -2.147535e-04
Ga 3.142236e+00 -3.719606e+00 -5.278910e+00 -5.020244e-04 4.365273e-04 8.249664e-04
Al 3.139349e+00 -3.693727e+00 -1.429335e-01 1.270198e-03 -2.696926e-04 9.968286e-04
Ga 1.590365e+00 -9.598118e-01 4.962721e+00 -1.978783e-04 -2.206617e-04 1.589720e-04
Ga 1.561476e+00 -9.495104e-01 -5.278233e+00 -3.176018e-04 2.619877e-04 7.275427e-04
Al 1.574800e+00 -9.593164e-01 -1.241268e-01 -1.750839e-04 1.743295e-04 1.058765e-03
Al 3.152354e+00 1.784577e+00 4.961560e+00 -1.439914e-03 -2.030566e-04 -1.373091e-03
Ga 3.149639e+00 1.786213e+00 -5.267938e+00 1.208054e-04 -3.331611e-04 5.930543e-04
Ga 3.154648e+00 1.775475e+00 -1.331793e-01 -5.523893e-04 -1.979227e-04 -8.190858e-05
Al 6.310909e+00 -3.706759e+00 4.945345e+00 1.606633e-04 2.760263e-04 -6.521699e-04
Ga 6.318370e+00 -3.700835e+00 -5.258745e+00 1.802463e-04 2.004017e-04 5.917698e-04
Ga 6.309220e+00 -3.688241e+00 -1.254099e-01 2.108511e-04 8.804074e-05 -3.156775e-04
Al 4.726790e+00 -9.657098e-01 4.960601e+00 -4.108038e-04 1.108548e-03 -1.861802e-03
Ga 4.746084e+00 -9.416786e-01 -5.274028e+00 -4.014550e-04 -1.171696e-04 9.708876e-04
Al 4.735244e+00 -9.545349e-01 -1.273499e-01 3.636196e-04 -6.408234e-04 4.363419e-05
Ga -3.211446e+00 1.798754e+00 4.987290e+00 3.423110e-04 -2.768246e-05 -2.723192e-05
Al -3.201092e+00 1.799102e+00 -5.287978e+00 -4.453922e-04 5.857904e-04 -1.335596e-03
Ga -3.216720e+00 1.807788e+00 -1.368523e-01 2.172369e-04 1.154594e-04 -4.771023e-04
Ga -1.889433e-02 -3.710742e+00 4.951952e+00 2.593994e-04 4.702720e-04 -1.734526e-04
Al -1.121669e-02 -3.705618e+00 -5.272911e+00 3.028378e-04 -9.341228e-05 3.526573e-04
Al -1.107274e-03 -3.695654e+00 -1.169816e-01 -1.257558e-04 -1.169013e-04 2.449833e-04
Ga -1.615193e+00 -9.647692e-01 4.971727e+00 -1.523409e-04 8.850075e-05 3.374783e-05
Al -1.607955e+00 -9.436441e-01 -5.270222e+00 -2.103004e-04 1.775804e-04 4.224785e-04
Ga -1.612220e+00 -9.683863e-01 -1.286046e-01 -2.541376e-04 -1.678541e-04 -4.144585e-04
N 1.599476e+00 8.934979e-01 4.330128e+00 1.212721e-03 1.111446e-03 -7.325388e-04
N 1.524206e+00 9.020669e-01 -5.932156e+00 -1.968602e-05 3.473013e-04 -4.051761e-04
N 1.559933e+00 8.280866e-01 -7.885084e-01 -8.788557e-05 -9.553103e-05 -5.531140e-04
N -2.999978e-02 3.665023e+00 4.340355e+00 -5.884858e-05 9.164732e-05 -4.772324e-04
N -2.432428e-02 3.581098e+00 -5.936273e+00 1.200507e-04 1.410814e-04 8.540117e-05
N -6.729291e-02 3.645230e+00 -7.920454e-01 -8.086014e-04 3.557461e-04 -3.297168e-05
N 3.195583e+00 -1.901479e+00 4.318557e+00 4.007857e-04 -3.758891e-04 1.614750e-04
N 3.157940e+00 -1.875316e+00 -5.945832e+00 -2.421376e-06 9.703778e-06 -1.162847e-03
N 3.156208e+00 -1.865441e+00 -6.793524e-01 -6.515846e-04 -6.817258e-04 -9.287282e-04
N -4.819849e+00 8.488205e-01 4.345698e+00 6.441320e-06 -5.496850e-04 -1.042079e-04
N -4.750017e+00 8.987177e-01 -5.941375e+00 9.386724e-04 2.045096e-04 -2.408025e-04
N -4.779680e+00 8.248376e-01 -7.947669e-01 -2.054085e-05 6.447707e-04 1.465001e-05
N -6.407518e+00 3.596273e+00 4.337052e+00 -4.107680e-05 -1.110601e-03 1.048205e-03
N -6.333783e+00 3.643455e+00 -5.869174e+00 -8.635707e-05 1.885022e-04 -6.607654e-04
N -6.324121e+00 3.649247e+00 -7.235277e-01 1.400712e-04 2.131855e-04 2.221813e-04
N -3.237824e+00 -1.891548e+00 4.348538e+00 -2.283192e-04 -4.050344e-04 8.840802e-04
N -3.155351e+00 -1.849747e+00 -5.883202e+00 7.444766e-05 2.110207e-04 -6.723121e-04
N -3.235990e+00 -1.844382e+00 -7.916228e-01 -4.649281e-04 3.268875e-04 3.831574e-04
N -1.610897e+00 8.835343e-01 4.373435e+00 3.957446e-04 -8.805405e-05 -6.016211e-04
N -1.613554e+00 8.827940e-01 -5.868270e+00 2.117156e-04 -1.482273e-04 -1.149488e-04
N -1.616651e+00 8.809849e-01 -7.643386e-01 6.165607e-04 -2.672835e-04 2.630877e-04
N -3.144878e+00 3.648145e+00 4.320960e+00 3.321135e-04 -2.752770e-04 -9.389782e-04
N -3.236981e+00 3.604865e+00 -5.918088e+00 1.070198e-04 -1.090851e-03 -6.502116e-04
N -3.200177e+00 3.673647e+00 -7.791386e-01 -2.905928e-04 -1.143805e-04 -5.071105e-04
N -1.560031e-02 -1.868433e+00 4.300947e+00 1.928179e-04 -1.617789e-04 -2.618090e-04
N -6.355189e-02 -1.892631e+00 -5.839307e+00 -1.383088e-05 -2.718529e-04 -4.440236e-04
N 2.186842e-02 -1.893315e+00 -7.147191e-01 2.660259e-04 -2.338733e-05 -8.346867e-05
N 2.313495e-02 1.817289e+00 1.838414e+00 -1.195153e-04 1.185804e-03 4.556193e-04
N -2.461537e-02 1.786022e+00 6.969691e+00 -3.371084e-04 1.163047e-03 4.014101e-04
N 2.315050e-02 1.817450e+00 -3.356681e+00 2.348701e-06 6.277481e-04 -1.166057e-03
N 3.153324e+00 -3.707564e+00 1.782918e+00 6.902066e-05 -3.721957e-05 3.472626e-04
N 3.151027e+00 -3.705235e+00 6.902210e+00 2.078821e-04 1.407028e-04 -3.174135e-04
N 3.148643e+00 -3.746014e+00 -3.292770e+00 1.568164e-04 -1.468027e-04 -2.690110e-04
N 1.570591e+00 -9.491128e-01 1.803588e+00 -3.191800e-04 7.724166e-05 7.102861e-05
N 1.607642e+00 -9.350110e-01 6.943747e+00 -2.865420e-04 3.071990e-04 -2.034971e-04
N 1.576270e+00 -9.103725e-01 -3.303998e+00 -2.489140e-04 1.431747e-04 -6.393502e-04
N 3.148562e+00 1.785352e+00 1.845512e+00 1.250986e-03 6.483674e-04 9.668939e-04
N 3.145391e+00 1.736574e+00 6.880164e+00 9.442606e-04 1.097616e-03 3.766552e-04
N 3.148062e+00 1.741446e+00 -3.286925e+00 1.923603e-04 -1.429538e-04 -1.297405e-04
N 6.321190e+00 -3.698507e+00 1.858944e+00 -3.691508e-04 -3.985628e-04 2.014480e-04
N 6.282208e+00 -3.728385e+00 6.862396e+00 -4.480263e-04 -3.748348e-04 4.304976e-04
N 6.278503e+00 -3.676329e+00 -3.279668e+00 4.998697e-05 -2.623263e-04 -1.520122e-04
N 4.743081e+00 -9.505493e-01 1.800080e+00 2.282152e-04 -3.530382e-05 -1.279603e-04
N 4.693292e+00 -9.323776e-01 6.875654e+00 2.492087e-04 -2.135341e-04 3.182333e-04
N 4.772997e+00 -9.289062e-01 -3.296513e+00 -2.086401e-04 -3.515004e-04 -5.703426e-04
N -3.248396e+00 1.818025e+00 1.836606e+00 -1.904538e-04 3.874689e-04 3.088516e-04
N -3.194167e+00 1.791514e+00 6.972569e+00 -6.453915e-04 -5.925124e-04 -2.602808e-04
N -3.247439e+00 1.821068e+00 -3.359718e+00 -1.353340e-04 3.740071e-04 6.195897e-04
N -1.856205e-02 -3.707236e+00 1.806641e+00 -6.980438e-05 -2.856300e-05 1.542721e-04
N 2.168504e-02 -3.724915e+00 6.921879e+00 3.214235e-05 -3.657998e-04 -4.849212e-04
N 2.454578e-02 -3.724765e+00 -3.361618e+00 8.251729e-05 -1.260100e-04 -3.143400e-04
N -1.614974e+00 -1.005381e+00 1.843237e+00 -9.407196e-04 -3.889023e-04 3.343006e-04
N -1.603333e+00 -9.029952e-01 6.942119e+00 -3.188407e-04 -3.073826e-05 -6.200577e-04
N -1.647153e+00 -9.779225e-01 -3.354474e+00 -2.893300e-04 -2.905390e-04 -1.885647e-04
