108
Energy=-2588112.520177 Lattice="9.663415 0.000000 0.000000 -4.838261 8.366249 0.000000 0.003726 -0.001075 15.676669" Stress="-0.000001 -0.000002 0.000001 -0.000002 -0.000001 -0.000001 0.000001 -0.000001 -0.000004" Properties=species:S:1:pos:R:3:forces:R:3
Al 1.585437 0.897858 2.461842 0.000362 -0.000186 0.000093
Ga 1.582129 0.892659 7.702387 -0.000004 -0.000030 0.000085
Ga 1.582998 0.901973 -2.765821 -0.000167 0.000005 0.000121
Al -0.017420 3.668878 2.464499 0.000122 0.000101 0.000266
Ga -0.030174 3.670486 7.700409 -0.000187 0.000055 0.000199
Ga -0.018343 3.669486 -2.770054 -0.000419 0.000091 0.000077
Ga 3.202144 -1.903676 2.468138 0.000349 0.000026 0.000129
Ga 3.198356 -1.907846 7.685070 -0.000139 0.000100 -0.000044
Ga 3.198154 -1.903798 -2.753478 -0.000371 0.000160 0.000065
Ga -4.862928 0.890733 2.467789 0.000437 0.000025 -0.000079
Ga -4.851963 0.896509 7.692430 -0.000010 -0.000041 0.000029
Ga -4.861811 0.901009 -2.761044 -0.000155 0.000101 -0.000039
Ga -6.473932 3.672240 2.479995 0.000388 0.000014 0.000060
Ga -6.451754 3.681511 7.672838 -0.000190 0.000068 0.000202
Al -6.468549 3.678139 -2.757143 -0.000362 0.000047 0.000052
Ga -3.235830 -1.906614 2.452591 0.000149 0.000306 0.000045
Ga -3.240835 -1.903042 7.694039 -0.000186 0.000154 0.000041
Ga -3.231365 -1.906471 -2.743871 -0.000203 0.000185 -0.000434
Ga -1.618987 0.890478 2.458319 -0.000083 -0.000207 0.000120
Ga -1.631067 0.902579 7.693927 0.000100 -0.000067 0.000030
Ga -1.627535 0.891647 -2.755222 -0.000007 -0.000071 -0.000015
Ga -3.241269 3.681077 2.476175 0.000238 -0.000237 -0.000013
Al -3.253466 3.683215 7.677374 0.000058 0.000028 -0.000031
Ga -3.255479 3.680346 -2.756984 -0.000140 0.000011 0.000099
Ga -0.021819 -1.895279 2.466743 0.000243 -0.000242 0.000057
Ga -0.012996 -1.915963 7.679949 -0.000035 0.000109 0.000049
Ga -0.028857 -1.905041 -2.749274 -0.000155 0.000208 0.000378
Ga -0.015321 1.821293 5.052865 -0.000369 0.000273 0.000316
Al -0.027113 1.818945 -5.369413 -0.000392 0.000052 -0.000067
Ga -0.029750 1.816153 -0.124599 0.000528 -0.000143 0.000138
Ga 3.198304 -3.768241 5.079963 -0.000334 0.000256 0.000156
Ga 3.196385 -3.770444 -5.387904 -0.000235 0.000277 0.000016
Ga 3.201160 -3.762901 -0.132044 0.000546 -0.000070 0.000288
Ga 1.584359 -0.969253 5.065451 -0.000183 0.000379 0.000094
Ga 1.583141 -0.963429 -5.371833 -0.000368 0.000239 0.000064
Ga 1.574248 -0.964160 -0.133384 0.000095 -0.000014 0.000124
Ga 3.193022 1.820820 5.070144 -0.000059 0.000137 0.000101
Ga 3.184550 1.827055 -5.365971 -0.000031 0.000148 0.000094
Ga 3.186253 1.827655 -0.144206 0.000598 -0.000166 0.000403
Ga 6.424584 -3.762188 5.065634 -0.000155 0.000308 0.000142
Ga 6.423007 -3.768320 -5.361856 -0.000059 0.000204 0.000107
Ga 6.425184 -3.758143 -0.146367 0.000626 -0.000265 0.000522
Ga 4.814495 -0.970732 5.076555 -0.000166 0.000162 -0.000088
Ga 4.809535 -0.971674 -5.365588 -0.000239 0.000251 0.000007
Ga 4.815587 -0.968379 -0.146458 0.000262 0.000139 0.000597
Ga -3.248621 1.831214 5.088480 -0.000120 0.000166 -0.000031
Ga -3.236611 1.828880 -5.384817 -0.000055 0.000156 0.000063
Ga -3.245171 1.814218 -0.146029 0.000644 0.000009 0.000689
Al -0.013603 -3.759473 5.083824 -0.000168 -0.000001 -0.000101
Ga -0.019654 -3.763387 -5.370010 -0.000130 0.000218 0.000244
Ga -0.037162 -3.753525 -0.155936 0.000895 0.000313 0.000610
Ga -1.625778 -0.977687 5.079937 -0.000528 0.000269 0.000032
Ga -1.627592 -0.960741 -5.374822 -0.000188 0.000324 0.000060
Al -1.634259 -0.967162 -0.145757 0.000985 0.000159 0.000727
N 1.588485 0.889526 4.380617 0.000291 -0.000327 -0.000306
N 1.540876 0.916720 -5.986386 0.000193 -0.000211 -0.000048
N 1.578166 0.893870 -0.785727 -0.000153 -0.000143 -0.000149
N -0.027239 3.681329 4.386052 0.000211 -0.000350 -0.000309
N -0.024523 3.629627 -5.987181 0.000046 -0.000284 -0.000046
N -0.028342 3.674053 -0.787207 -0.000248 -0.000090 -0.000231
N 3.200714 -1.902822 4.446778 0.000225 -0.000323 -0.000036
N 3.196849 -1.898220 -6.010762 0.000189 -0.000228 -0.000009
N 3.193540 -1.900161 -0.770387 -0.000183 -0.000063 -0.000175
N -4.854453 0.891842 4.445377 0.000334 -0.000118 0.000100
N -4.860828 0.892447 -6.001848 0.000161 -0.000163 -0.000103
N -4.862176 0.894555 -0.781603 -0.000203 -0.000105 0.000017
N -6.423409 3.703974 4.466073 0.000352 -0.000106 -0.000046
N -6.467483 3.682489 -6.023474 0.000095 -0.000165 -0.000215
N -6.473114 3.678153 -0.835464 -0.000400 -0.000068 -0.000110
N -3.238378 -1.898255 4.431423 0.000382 -0.000175 0.000058
N -3.243489 -1.901944 -6.002886 0.000171 -0.000222 -0.000063
N -3.199649 -1.875717 -0.757421 -0.000315 -0.000201 -0.000034
N -1.638891 0.888117 4.440064 0.000441 -0.000268 -0.000110
N -1.592976 0.917699 -5.996362 0.000472 -0.000141 -0.000021
N -1.632395 0.846234 -0.762240 0.000105 -0.000209 0.000038
N -3.289688 3.704624 4.458339 0.000324 -0.000279 0.000005
N -3.256716 3.684000 -6.073672 0.000182 -0.000229 -0.000043
N -3.249671 3.681679 -0.778328 -0.000271 -0.000104 -0.000098
N -0.023912 -1.948862 4.456882 0.000350 -0.000370 0.000050
N -0.022452 -1.903537 -6.014853 0.000226 -0.000286 -0.000061
N -0.065886 -1.871911 -0.761854 -0.000206 -0.000039 0.000003
N 0.023188 1.842882 1.867731 -0.000525 0.000146 -0.000168
N -0.018867 1.819991 7.033771 0.000049 -0.000012 -0.000097
N -0.027873 1.817238 -3.450183 0.000086 -0.000003 -0.000041
N 3.248986 -3.788278 1.853817 -0.000570 0.000228 -0.000143
N 3.165642 -3.788572 7.071297 -0.000014 -0.000091 -0.000060
N 3.197950 -3.762134 -3.404801 0.000190 -0.000044 -0.000068
N 1.591868 -0.922570 1.855564 -0.000647 0.000405 -0.000268
N 1.590863 -0.964199 7.048227 -0.000105 0.000037 0.000014
N 1.586285 -0.970759 -3.389899 0.000005 0.000046 -0.000191
N 3.157813 1.799099 1.846099 -0.000649 0.000135 -0.000456
N 3.192375 1.814381 7.050438 0.000084 -0.000027 -0.000061
N 3.194220 1.871198 -3.379440 0.000016 -0.000038 -0.000123
N 6.388582 -3.789464 1.844938 -0.000534 0.000165 -0.000503
N 6.418318 -3.762360 7.048986 0.000220 -0.000136 -0.000173
N 6.465260 -3.781448 -3.372922 0.000318 -0.000162 -0.000037
N 4.814032 -0.970519 1.829566 -0.000570 -0.000042 -0.000380
N 4.812876 -0.969659 7.055205 0.000097 -0.000044 0.000005
N 4.812753 -0.971688 -3.383808 0.000099 -0.000078 -0.000004
N -3.241059 1.819399 1.833711 -0.000542 0.000138 -0.000418
N -3.243618 1.867582 7.076747 0.000118 0.000049 -0.000040
N -3.242455 1.822151 -3.400592 0.000040 0.000003 -0.000033
N -0.019757 -3.761755 1.824131 -0.000705 0.000098 -0.000514
N 0.025418 -3.782903 7.009803 0.000102 -0.000004 -0.000041
N -0.062441 -3.782609 -3.377923 0.000185 -0.000039 -0.000247
N -1.624973 -0.969960 1.777826 -0.000727 0.000156 -0.000837
N -1.629582 -0.967836 7.060183 0.000109 -0.000035 -0.000004
N -1.631948 -0.967609 -3.397817 0.000063 -0.000073 -0.000020
