108
Energy=-802866.290072 Lattice="9.456498 0.000000 0.000000 -4.737329 8.178051 0.000000 0.004819 0.008099 15.198382" Stress="0.000012 -0.000002 0.000010 -0.000002 0.000018 0.000003 0.000010 0.000003 0.000004" Properties=species:S:1:pos:R:3:forces:R:3
Al 1.528945 0.828645 2.374577 0.015093 0.025536 0.015603
Al 1.553155 0.878077 7.451502 0.002403 -0.003643 0.002595
Al 1.558920 0.867426 -2.669579 0.000376 0.000530 -0.048104
Al -0.004712 3.585015 2.371148 0.003839 0.002570 0.005355
Al -0.011544 3.591043 7.460524 0.001663 -0.000671 0.001943
Al -0.011874 3.570712 -2.687703 0.000524 -0.001257 0.001953
Al 3.134551 -1.814566 2.419336 0.009022 -0.021666 -0.004162
Al 3.154442 -1.860988 7.461161 0.000720 0.000978 0.002623
Al 3.138551 -1.869097 -2.692122 -0.000793 0.001406 -0.006175
Al -4.724164 0.907693 2.392573 -0.059499 -0.040015 0.026269
Al -4.760355 0.882283 7.454099 0.000776 -0.004155 0.000277
Al -4.763246 0.877518 -2.696296 0.000554 -0.002291 -0.000680
Al -6.330239 3.603768 2.368999 -0.009117 0.014429 0.019207
Al -6.328175 3.598802 7.449250 0.000916 -0.000011 0.000750
Al -6.333391 3.585107 -2.687718 0.000320 0.001169 -0.027311
Al -3.168777 -1.853148 2.385263 0.002022 0.001038 0.002115
Al -3.161314 -1.859419 7.458008 -0.000441 -0.000819 0.001011
Ga -3.171441 -1.860459 -2.690006 0.000109 -0.003275 0.000278
Al -1.626000 0.905073 2.367838 -0.005516 -0.011379 0.004484
Al -1.618898 0.888614 7.461113 0.006372 -0.002681 0.000560
Al -1.614564 0.864428 -2.678915 0.004380 0.016326 -0.000153
Ga -3.247837 3.557209 2.397212 0.010652 0.008460 0.000730
Al -3.188513 3.602988 7.465580 0.002974 0.000856 -0.000369
Al -3.191207 3.584669 -2.698059 0.002921 0.000697 -0.002164
Al 0.017853 -1.818501 2.372315 -0.036350 -0.013283 0.022093
Al -0.018298 -1.853099 7.458701 0.005335 -0.000662 0.000091
Ga -0.017817 -1.825556 -2.716945 0.007788 -0.002242 -0.002206
Al -0.006480 1.782410 4.918540 -0.004813 -0.002812 0.005506
Al -0.015532 1.766408 -5.217062 -0.004412 -0.001758 0.002819
Al -0.030377 1.778908 -0.068161 -0.002355 0.000701 -0.056915
Ga 3.153565 -3.676381 4.934540 -0.005286 -0.003640 -0.000314
Al 3.152225 -3.689247 -5.216771 -0.004523 -0.000149 -0.000678
Al 3.154708 -3.697339 -0.186236 -0.003990 -0.001523 0.009651
Al 1.595005 -0.952557 4.938459 -0.012145 0.003482 0.003194
Al 1.581403 -0.965858 -5.223259 -0.004695 0.004959 -0.017697
Ga 1.573977 -0.935122 -0.111020 -0.002983 -0.002680 -0.016328
Al 3.128723 1.785955 4.912858 0.001143 0.001983 0.000465
Al 3.120321 1.775011 -5.222954 -0.001226 -0.000855 0.003573
Ga 3.081550 1.800280 -0.188132 0.012682 -0.000490 0.006196
Al 6.296524 -3.682099 4.920116 0.004403 0.000358 0.003876
Al 6.290702 -3.689583 -5.224069 -0.000219 0.000963 0.001496
Al 6.283453 -3.655975 -0.103912 -0.000620 -0.007598 -0.028840
Al 4.725203 -0.950496 4.926766 0.002359 0.007772 0.002080
Al 4.714360 -0.961524 -5.222354 -0.001201 0.003898 -0.000167
Al 4.723576 -0.955288 -0.166243 -0.002657 0.007720 0.008960
Al -3.187560 1.787673 4.936585 -0.002954 -0.000310 0.004816
Al -3.190760 1.776798 -5.223127 -0.000099 -0.000412 0.002142
Al -3.192348 1.781544 -0.123213 -0.007970 -0.003031 -0.014043
Al -0.009753 -3.674864 4.920171 -0.015351 0.007829 0.006341
Al -0.025847 -3.682850 -5.227217 -0.000231 0.001258 0.001026
Ga -0.051350 -3.670496 -0.145684 0.003192 -0.000734 -0.001703
Ga -1.582878 -0.951806 4.919516 0.000905 0.003360 -0.000410
Al -1.593108 -0.957103 -5.231098 -0.002320 0.006653 -0.003427
Al -1.601948 -0.940078 -0.157848 -0.003543 0.004483 0.010277
N 1.551097 0.874098 4.317330 0.000858 -0.005085 -0.005448
N 1.548941 0.868645 -5.822099 0.001203 -0.003019 -0.004114
N 1.525394 0.877417 -0.894901 -0.014033 0.000615 0.062484
N 0.010193 3.579511 4.310093 0.006260 -0.004369 -0.010474
N -0.016758 3.582074 -5.816805 -0.001170 -0.000164 -0.000955
N -0.009481 3.584186 -0.745894 0.000921 -0.000904 0.000109
N 3.152337 -1.828505 4.336640 -0.000510 0.006730 -0.010690
N 3.146708 -1.870565 -5.816251 0.000991 -0.002314 -0.003092
N 3.157937 -1.874510 -0.757230 0.004619 -0.003002 -0.002131
N -4.748799 0.887567 4.324027 -0.000399 -0.006552 0.001109
N -4.767684 0.872920 -5.821127 0.002356 -0.004222 -0.000335
N -4.756566 0.873417 -0.768681 0.009094 -0.009973 -0.003178
N -6.325689 3.602512 4.310141 -0.002288 0.000500 0.000178
N -6.333610 3.587945 -5.825527 0.000470 0.000132 -0.001663
N -6.360782 3.619259 -0.875635 -0.011541 0.007700 0.037867
N -3.181701 -1.875296 4.315787 -0.009595 -0.004714 -0.007175
N -3.169434 -1.869087 -5.817442 0.000466 0.000103 -0.000345
N -3.167168 -1.866747 -0.718626 0.001183 0.004975 0.007212
N -1.620348 0.921868 4.307053 0.006863 0.008243 -0.008394
N -1.624235 0.879429 -5.820029 0.006226 -0.002750 -0.001041
N -1.625326 0.885061 -0.739548 0.005513 -0.001387 0.005602
N -3.242942 3.599749 4.361866 0.013967 -0.011376 -0.002357
N -3.194220 3.593818 -5.814837 0.005768 0.000855 0.000303
N -3.183855 3.587539 -0.768018 0.011089 -0.004326 0.002244
N 0.015580 -1.865294 4.310793 0.013034 -0.000660 -0.003245
N -0.024480 -1.863120 -5.820095 0.003366 0.000560 0.000430
N -0.044912 -1.829009 -0.749706 -0.002059 0.006794 0.002739
N -0.012846 1.776708 1.728597 -0.001692 -0.006413 0.035031
N -0.012395 1.779178 6.852787 -0.005376 -0.001118 -0.003888
N -0.011848 1.760125 -3.285426 -0.006551 0.000394 -0.002026
N 3.173401 -3.757486 1.781152 -0.011767 0.026937 -0.004898
N 3.157514 -3.679436 6.888043 -0.004969 -0.001102 0.008202
N 3.153252 -3.691953 -3.290155 -0.004963 0.000484 0.004070
N 1.509610 -0.964224 1.849284 0.034847 0.012720 -0.008795
N 1.587305 -0.958777 6.862238 -0.005461 0.003154 -0.001653
N 1.619340 -0.918101 -3.388201 -0.000986 -0.003752 0.031956
N 3.185050 1.859109 1.831270 -0.028552 -0.034180 -0.010120
N 3.127370 1.785698 6.847011 -0.000629 -0.001140 -0.003011
N 3.124878 1.778207 -3.290623 0.001245 -0.000208 -0.003153
N 6.291800 -3.668552 1.737920 0.000167 -0.001802 0.021291
N 6.295578 -3.675771 6.853603 -0.001486 0.000758 -0.002694
N 6.293093 -3.706829 -3.303064 -0.001916 -0.005973 -0.005467
N 4.717114 -0.930493 1.813828 -0.008968 -0.002759 -0.009995
N 4.728391 -0.954234 6.857559 -0.001823 0.003746 -0.002367
N 4.692998 -0.950878 -3.300422 -0.008382 0.008191 -0.001300
N -3.341040 1.687237 1.778665 0.088494 0.036289 -0.023283
N -3.185457 1.787774 6.861651 0.000921 -0.000089 -0.002557
N -3.185283 1.770581 -3.296310 0.000415 0.001304 0.001187
N -0.084677 -3.613043 1.839736 0.006392 -0.003701 -0.011901
N -0.017185 -3.669075 6.853700 -0.000018 0.000911 -0.001011
N -0.025884 -3.689288 -3.306450 0.002138 -0.006798 -0.002698
N -1.585593 -0.939023 1.811617 -0.000929 0.006296 -0.009198
N -1.585560 -0.950088 6.880121 -0.002001 0.005331 0.008176
N -1.606690 -0.883985 -3.319919 0.001061 -0.005240 -0.004048
