108
Energy=-1581051.260533 Lattice="9.534419 0.000000 0.000000 -4.771780 8.250215 0.000000 0.000105 0.016909 15.395804" Stress="-0.000004 0.000000 0.000001 0.000000 -0.000007 0.000004 0.000001 0.000003 -0.000006" Properties=species:S:1:pos:R:3:forces:R:3
Al 1.563793 0.896276 2.400220 -0.002422 -0.002892 0.001193
Al 1.561426 0.900480 7.557381 0.000668 0.000245 0.001350
Al 1.546917 0.868154 -2.691785 0.004082 0.001811 -0.006837
Al -0.037321 3.613805 2.420343 0.002386 -0.000260 0.000370
Al -0.027990 3.618075 7.548121 0.000166 0.000940 0.000199
Ga -0.043783 3.609089 -2.718270 0.000178 0.000054 0.000670
Al 3.166315 -1.871603 2.424710 -0.000086 0.000009 -0.000151
Ga 3.158267 -1.871109 7.559831 0.000243 -0.000374 0.000132
Al 3.153135 -1.890114 -2.728480 0.000064 -0.000098 -0.000353
Al -4.782437 0.882063 2.408113 -0.001119 -0.000945 0.000066
Al -4.793530 0.903973 7.558529 0.001454 0.000627 0.001122
Ga -4.794935 0.876554 -2.717365 0.000279 0.000308 0.000203
Ga -6.375988 3.626243 2.418825 -0.000282 0.000679 0.000869
Ga -6.382594 3.621723 7.539413 0.000041 0.001051 0.000433
Ga -6.372701 3.616614 -2.700361 0.000001 -0.000904 -0.000082
Al -3.214400 -1.866311 2.432650 -0.000061 -0.000376 -0.000113
Ga -3.202536 -1.863949 7.550685 0.000242 -0.000585 0.000916
Al -3.189114 -1.864584 -2.719085 0.000234 0.000236 -0.000235
Al -1.606061 0.895449 2.426953 -0.001062 0.002289 -0.000421
Ga -1.619821 0.916742 7.553154 0.000370 -0.000777 0.001387
Al -1.605151 0.872847 -2.739883 -0.000148 0.000139 0.000044
Al -3.202581 3.625700 2.429196 -0.000772 -0.001768 0.000563
Al -3.199692 3.621748 7.545364 -0.000115 -0.000188 0.000404
Al -3.193243 3.628572 -2.724961 -0.000034 -0.000291 0.000338
Ga -0.013430 -1.875807 2.410480 0.000806 0.000210 0.000339
Ga -0.017061 -1.858680 7.557752 0.000393 -0.000912 0.000949
Al -0.021890 -1.867938 -2.710203 -0.000040 -0.000614 -0.000383
Al -0.018401 1.804730 4.984775 -0.003416 0.002595 -0.003115
Al -0.024446 1.784198 -5.283793 -0.000890 0.000020 0.001390
Al -0.020766 1.781548 -0.147148 -0.000297 0.000527 0.001304
Ga 3.160132 -3.731882 4.967345 -0.000514 0.000788 0.000605
Al 3.153625 -3.742059 -5.288927 0.000116 0.000982 0.000969
Ga 3.144984 -3.719666 -0.126634 0.000041 0.000529 0.000967
Ga 1.563916 -0.937239 4.978831 -0.000108 0.000358 0.000214
Ga 1.563805 -0.945047 -5.250885 -0.000233 0.001379 0.000384
Ga 1.577148 -0.949333 -0.162957 -0.001339 -0.000228 0.000403
Ga 3.150031 1.801395 4.975819 0.000356 -0.000431 0.001127
Al 3.144949 1.780400 -5.293320 0.000010 -0.000628 0.001665
Al 3.142589 1.791389 -0.131641 0.000254 0.000332 0.000059
Al 6.328978 -3.710444 4.972736 -0.000545 0.000356 -0.000332
Ga 6.325672 -3.721443 -5.272411 0.000110 -0.000132 0.000717
Ga 6.340974 -3.715467 -0.136671 -0.000457 0.000113 0.000548
Ga 4.754781 -0.940271 4.973727 -0.000504 0.000191 0.001016
Ga 4.754959 -0.950530 -5.267923 -0.000996 0.000910 -0.000216
Ga 4.747182 -0.962166 -0.131801 -0.000542 0.000373 -0.001482
Al -3.206916 1.816181 4.965197 0.000020 -0.002022 0.001225
Al -3.193941 1.797005 -5.277485 -0.001379 -0.000307 -0.000376
Ga -3.197302 1.805649 -0.140065 -0.000147 -0.000262 -0.000527
Al -0.015906 -3.711246 4.993645 0.000226 -0.000356 0.000426
Ga -0.005110 -3.721466 -5.270242 -0.000209 0.000045 0.000838
Al -0.011474 -3.716903 -0.164193 -0.000194 0.000456 -0.000363
Ga -1.613762 -0.941061 4.959174 -0.000686 0.000866 0.000034
Al -1.610815 -0.942081 -5.249331 0.000003 0.000275 0.000557
Ga -1.603255 -0.949555 -0.147756 -0.000981 0.000639 -0.000713
N 1.512272 0.918426 4.318682 0.003362 -0.002430 -0.002024
N 1.554202 0.920229 -5.917303 0.001594 -0.000626 -0.001623
N 1.563558 0.929716 -0.785698 0.000129 0.000533 0.002822
N 0.018981 3.600797 4.337785 -0.000380 -0.000818 0.000743
N -0.062392 3.590656 -5.917163 -0.000774 -0.000215 -0.000800
N -0.032209 3.575421 -0.741650 0.000295 -0.000441 -0.000115
N 3.155818 -1.870275 4.330048 0.000213 -0.000347 -0.000707
N 3.154570 -1.926512 -5.864722 0.000156 -0.000889 0.000418
N 3.164190 -1.887289 -0.819311 0.000229 -0.000224 0.000926
N -4.753586 0.911803 4.321146 -0.000041 0.000224 -0.001085
N -4.788593 0.924850 -5.907840 0.000849 0.000184 -0.000338
N -4.832814 0.899503 -0.739955 -0.000135 0.000807 -0.000039
N -6.377023 3.679894 4.406183 -0.000006 0.000733 -0.000642
N -6.380021 3.579492 -5.880302 0.000086 -0.000180 -0.001229
N -6.341257 3.595332 -0.718473 0.000538 -0.000230 0.000313
N -3.203080 -1.913829 4.339266 0.000471 -0.000906 -0.000664
N -3.153591 -1.855161 -5.874231 0.000886 0.000077 -0.000344
N -3.195015 -1.872621 -0.814955 0.000341 -0.000200 0.000913
N -1.613813 0.946340 4.347302 0.001404 -0.000140 0.001560
N -1.617284 0.877493 -5.845773 0.000826 -0.000489 -0.000242
N -1.574876 0.904343 -0.814058 0.001041 -0.000125 -0.000219
N -3.254915 3.608428 4.346610 0.000552 0.002046 -0.001375
N -3.165525 3.594053 -5.926700 0.000431 -0.000412 -0.000876
N -3.235497 3.647244 -0.811673 -0.000257 -0.000422 -0.000267
N -0.019579 -1.916985 4.381311 0.000217 -0.001091 -0.000451
N -0.063652 -1.850089 -5.863336 -0.000191 -0.000477 -0.000377
N -0.023530 -1.914799 -0.793192 0.000599 -0.001046 0.000419
N -0.025518 1.790675 1.782847 -0.000510 -0.000188 -0.000361
N 0.018777 1.822791 6.904047 -0.000397 -0.000086 0.001218
N -0.016520 1.738071 -3.362520 -0.000843 -0.000173 -0.000235
N 3.150395 -3.711770 1.870773 0.000685 0.001438 -0.001997
N 3.159193 -3.753211 6.953692 0.000138 -0.000158 -0.000004
N 3.118580 -3.698611 -3.364304 -0.000367 0.000720 -0.000978
N 1.614299 -0.931230 1.821023 0.000177 0.001705 -0.000004
N 1.573924 -0.895948 6.954840 -0.000816 0.000775 -0.000945
N 1.569748 -0.955398 -3.265552 -0.000847 -0.000012 0.001299
N 3.150656 1.749155 1.788292 0.001521 0.000134 -0.000068
N 3.151989 1.748531 6.957626 -0.000462 -0.000936 -0.000502
N 3.109045 1.762745 -3.374630 -0.002539 -0.001335 0.000313
N 6.290716 -3.679935 1.844408 -0.000176 -0.000112 -0.001710
N 6.288861 -3.721096 6.897759 -0.000549 -0.000402 -0.000728
N 6.333339 -3.670792 -3.302450 -0.000219 0.000466 0.000044
N 4.746487 -0.955240 1.848497 0.000014 -0.000187 0.001283
N 4.746792 -0.893881 6.953233 -0.000817 0.000249 -0.000891
N 4.748691 -1.003068 -3.296619 -0.000497 -0.000778 0.000218
N -3.198013 1.799332 1.843024 0.001697 0.000182 0.000645
N -3.247479 1.826287 6.900950 -0.000590 0.000013 -0.000871
N -3.164366 1.815695 -3.354045 0.000432 0.000222 0.000325
N 0.027551 -3.731008 1.749261 -0.000289 -0.000159 -0.000040
N 0.024308 -3.719082 6.910756 0.000410 -0.000052 -0.000788
N 0.021981 -3.688929 -3.294994 0.000342 0.000890 0.000022
N -1.652913 -0.924803 1.838261 -0.000399 -0.000328 0.000658
N -1.610020 -0.934716 6.922222 -0.000346 0.000498 -0.000678
N -1.606969 -0.957020 -3.323239 -0.000354 -0.000265 -0.000219
