108
Energy=-1.626821e+06 Lattice="9.481003e+00 0.000000e+00 0.000000e+00 -4.742034e+00 8.217862e+00 0.000000e+00 -3.985461e-03 -4.355058e-03 1.527119e+01" Stress="-3.833078e-02 5.971748e-03 -6.151668e-04 5.965311e-03 -3.060723e-02 -3.693186e-04 -6.194916e-04 -3.757603e-04 -3.668928e-02" Properties=species:S:1:pos:R:3:forces:R:3 Config_type=AlGaN_super3_26_0_1.xyz
Al 1.563542e+00 9.014390e-01 2.480876e+00 -6.362923e-04 -1.457693e-02 -1.018753e-02
Al 1.561069e+00 8.974262e-01 7.496195e+00 -1.144900e-03 -1.283310e-02 -5.520799e-03
Al 1.565832e+00 9.045258e-01 -2.756692e+00 -1.072668e-03 -1.351063e-02 -5.243632e-03
Al -1.170199e-02 3.612684e+00 2.475859e+00 1.442904e-03 -1.397898e-03 -6.877358e-03
Al -3.273640e-03 3.615373e+00 7.495432e+00 -2.405212e-03 -1.481307e-03 -4.463558e-03
Ga 1.411802e-04 3.617585e+00 -2.756765e+00 -2.476876e-03 -2.185609e-03 -2.306198e-03
Al 3.173204e+00 -1.884389e+00 2.481867e+00 -1.454275e-03 9.201744e-04 -8.633448e-03
Ga 3.172658e+00 -1.889291e+00 7.496719e+00 -3.058555e-03 1.511097e-03 -4.627134e-03
Ga 3.176517e+00 -1.885231e+00 -2.759644e+00 -2.916216e-03 2.027887e-03 -4.011827e-03
Al -4.787595e+00 9.031848e-01 2.484528e+00 1.688913e-03 -1.372838e-02 -9.961644e-03
Ga -4.788254e+00 9.009897e-01 7.498495e+00 3.623497e-05 -1.682101e-02 -4.799526e-03
Al -4.784596e+00 9.045934e-01 -2.758659e+00 1.151229e-03 -1.252959e-02 -4.303425e-03
Ga -6.351092e+00 3.615791e+00 2.483950e+00 -1.638433e-03 -4.209104e-04 -8.570911e-03
Al -6.354075e+00 3.615409e+00 7.496758e+00 -7.044162e-04 3.102649e-04 -2.888612e-03
Ga -6.349770e+00 3.618104e+00 -2.755649e+00 -4.506016e-04 -9.065962e-04 -1.291009e-03
Al -3.176030e+00 -1.881595e+00 2.487227e+00 -1.822070e-03 1.300666e-03 -1.039730e-02
Al -3.177501e+00 -1.889160e+00 7.496200e+00 4.949246e-05 2.330115e-03 -3.687035e-03
Al -3.173828e+00 -1.884959e+00 -2.759520e+00 -5.586762e-04 3.100265e-03 -3.092263e-03
Ga -1.654735e+00 9.015997e-01 2.484768e+00 1.516265e-02 -9.565896e-03 -1.516069e-02
Ga -1.656004e+00 9.013558e-01 7.497670e+00 1.640124e-02 -9.569568e-03 -8.758639e-03
Al -1.652752e+00 9.045333e-01 -2.757367e+00 1.366515e-02 -7.517982e-03 -5.006704e-03
Ga -3.221903e+00 3.616549e+00 2.487380e+00 1.510314e-02 7.188128e-03 -1.172668e-02
Ga -3.222501e+00 3.615164e+00 7.497636e+00 1.455686e-02 8.174573e-03 -5.895160e-03
Ga -3.219179e+00 3.618827e+00 -2.756621e+00 1.472745e-02 6.680136e-03 -4.079130e-03
Ga -4.444908e-02 -1.887853e+00 2.486227e+00 1.442940e-02 1.115609e-02 -1.305386e-02
Al -4.661332e-02 -1.888981e+00 7.497437e+00 1.152142e-02 7.803608e-03 -5.825095e-03
Ga -4.297601e-02 -1.885267e+00 -2.757599e+00 1.431218e-02 1.074873e-02 -5.412622e-03
Al -3.215005e-03 1.807112e+00 4.988542e+00 -1.120512e-02 -7.303692e-03 -4.690596e-03
Ga 1.404373e-03 1.808857e+00 -5.266062e+00 -1.367701e-02 -1.014841e-02 -6.156684e-03
Ga -4.058350e-04 1.807918e+00 -2.429671e-01 -1.436878e-02 -1.064018e-02 3.864368e-02
Al 3.172081e+00 -3.697792e+00 4.989017e+00 -1.128720e-02 -4.626375e-03 -5.235809e-03
Ga 3.177036e+00 -3.694284e+00 -5.266092e+00 -1.453969e-02 -6.851481e-03 -5.479003e-03
Al 3.177780e+00 -3.694566e+00 -2.516251e-01 -1.222670e-02 -5.042309e-03 3.357595e-02
Al 1.606383e+00 -9.839159e-01 4.989840e+00 -1.280433e-02 7.470116e-03 -6.888369e-03
Al 1.611252e+00 -9.801103e-01 -5.266194e+00 -1.335094e-02 7.818078e-03 -6.708405e-03
Al 1.611339e+00 -9.817497e-01 -2.542211e-01 -1.369330e-02 7.993468e-03 3.134641e-02
Ga 3.127206e+00 1.806333e+00 4.990596e+00 -2.320580e-04 -2.863113e-03 -2.853609e-03
Al 3.131177e+00 1.808742e+00 -5.266086e+00 9.518816e-05 -2.719320e-03 -3.421889e-03
Ga 3.131513e+00 1.807742e+00 -2.431048e-01 3.745195e-04 -3.023495e-03 4.247682e-02
Al 6.301454e+00 -3.699538e+00 4.985066e+00 3.780764e-04 4.666263e-04 -2.694062e-03
Ga 6.307584e+00 -3.694225e+00 -5.266844e+00 2.637896e-04 6.486298e-05 -2.978424e-03
Al 6.305486e+00 -3.693498e+00 -2.520215e-01 4.560044e-04 1.684207e-04 3.579362e-02
Ga 4.737698e+00 -9.834811e-01 4.988370e+00 -1.299960e-03 1.585812e-02 -6.339326e-03
Al 4.741676e+00 -9.800669e-01 -5.266207e+00 -1.625006e-03 1.285851e-02 -4.138383e-03
Al 4.741821e+00 -9.804402e-01 -2.574412e-01 -1.357851e-03 1.283761e-02 3.360740e-02
Ga -3.221741e+00 1.806926e+00 4.990994e+00 2.909796e-03 -1.620013e-03 -4.627198e-03
Ga -3.218507e+00 1.809546e+00 -5.264901e+00 2.414040e-03 -1.679811e-03 -3.063082e-03
Al -3.218934e+00 1.808041e+00 -2.559452e-01 3.012962e-03 -1.671445e-03 3.349265e-02
Al -4.510266e-02 -3.697304e+00 4.992586e+00 2.573127e-03 1.270769e-03 -2.213121e-03
Ga -4.222058e-02 -3.694007e+00 -5.266052e+00 2.414616e-03 1.513957e-03 -3.573713e-03
Ga -4.217163e-02 -3.693821e+00 -2.420256e-01 2.920713e-03 1.305101e-03 4.322423e-02
Ga -1.610498e+00 -9.832481e-01 4.990419e+00 1.626927e-03 1.738033e-02 -5.856551e-03
Ga -1.607970e+00 -9.799655e-01 -5.266349e+00 1.745505e-03 1.740245e-02 -6.567687e-03
Al -1.610038e+00 -9.812512e-01 -2.555848e-01 1.152551e-03 1.437224e-02 3.264073e-02
N 1.560640e+00 9.023802e-01 4.394505e+00 -1.911486e-02 -2.438608e-02 -2.612179e-03
N 1.566976e+00 9.034570e-01 -5.861204e+00 1.763527e-02 -2.377068e-02 -2.673615e-03
N 1.565651e+00 9.032881e-01 -8.420041e-01 -6.762782e-04 -3.417822e-02 -9.024573e-03
N -6.242579e-03 3.614579e+00 4.391530e+00 -1.697668e-03 -9.282463e-04 3.291479e-03
N 4.364496e-04 3.618543e+00 -5.862114e+00 -2.855646e-03 -4.612195e-04 -2.058522e-02
N -2.399518e-04 3.618031e+00 -8.421422e-01 -1.984079e-03 2.077682e-02 1.986811e-02
N 3.170798e+00 -1.888558e+00 4.394708e+00 -2.099154e-02 -8.945267e-03 -4.715627e-03
N 3.176383e+00 -1.884139e+00 -5.859513e+00 -2.452900e-03 2.224418e-02 1.729837e-02
N 3.176631e+00 -1.885615e+00 -8.465207e-01 -2.467566e-03 7.893118e-04 2.731394e-02
N -4.788272e+00 9.023470e-01 4.395700e+00 5.398905e-04 -1.694873e-02 -1.588273e-02
N -4.784866e+00 9.042859e-01 -5.858583e+00 -1.724240e-02 -2.393076e-02 2.076202e-02
N -4.784260e+00 9.040057e-01 -8.468098e-01 1.878353e-02 -2.348445e-02 -9.134899e-04
N -6.350266e+00 3.615512e+00 4.398318e+00 -2.537355e-04 2.236314e-02 1.846158e-02
N -6.349897e+00 3.617959e+00 -5.861330e+00 -2.580325e-04 -2.151031e-02 -1.234483e-02
N -6.350838e+00 3.618467e+00 -8.392485e-01 -1.887546e-02 1.056602e-02 1.253100e-02
N -3.176676e+00 -1.886307e+00 4.391697e+00 -7.384620e-04 -1.989199e-02 -9.651753e-03
N -3.174491e+00 -1.884470e+00 -5.861759e+00 -1.963988e-02 1.269665e-02 -1.241971e-02
N -3.174626e+00 -1.885380e+00 -8.486010e-01 -1.003704e-03 8.555459e-04 3.986957e-03
N -1.653889e+00 9.033555e-01 4.397788e+00 3.114685e-02 -1.378662e-03 1.649542e-02
N -1.652566e+00 9.052671e-01 -5.859606e+00 1.610378e-02 -9.063064e-03 1.087917e-02
N -1.653875e+00 9.037420e-01 -8.454950e-01 -1.801915e-03 -1.596978e-02 2.627899e-03
N -3.223438e+00 3.617057e+00 4.399718e+00 1.140896e-02 2.718263e-02 1.999033e-02
N -3.218578e+00 3.619060e+00 -5.859562e+00 1.542748e-02 7.581252e-03 6.201224e-03
N -3.218316e+00 3.618576e+00 -8.423947e-01 3.005304e-02 -4.597927e-03 2.206110e-02
N -4.479426e-02 -1.889445e+00 4.398937e+00 2.944826e-02 -3.801762e-03 2.039861e-02
N -4.151356e-02 -1.884184e+00 -5.860914e+00 2.947533e-02 1.770713e-02 -1.027574e-02
N -4.302166e-02 -1.885023e+00 -8.434123e-01 1.149552e-02 2.777037e-02 2.147361e-02
N -6.611224e-04 1.798331e+00 1.875506e+00 3.532984e-03 3.616828e-03 -1.855265e-02
N -2.105940e-03 1.807914e+00 6.901566e+00 3.932062e-03 3.471325e-04 -1.438926e-03
N 8.093793e-04 1.807943e+00 -3.350713e+00 -1.191989e-02 -2.825437e-02 1.920555e-02
N 3.177319e+00 -3.696703e+00 1.907342e+00 1.119230e-03 3.373346e-03 -3.669208e-02
N 3.174010e+00 -3.698677e+00 6.901771e+00 3.312749e-03 -1.881530e-02 -8.817627e-03
N 3.176762e+00 -3.695034e+00 -3.351891e+00 -1.526317e-02 -7.879420e-03 6.843060e-03
N 1.612004e+00 -9.823121e-01 1.899281e+00 5.960163e-04 1.643378e-02 -3.225741e-02
N 1.605975e+00 -9.851261e-01 6.902455e+00 -3.142250e-02 1.883448e-02 2.176130e-04
N 1.610721e+00 -9.795959e-01 -3.353025e+00 -1.653510e-02 2.613345e-02 -6.027702e-03
N 3.128848e+00 1.806100e+00 1.884763e+00 1.234564e-03 -2.246618e-02 -2.447238e-02
N 3.126670e+00 1.807016e+00 6.905028e+00 -1.724369e-02 8.033110e-03 1.824143e-02
N 3.131013e+00 1.808512e+00 -3.351965e+00 9.941146e-04 -2.257641e-02 -6.106369e-03
N 6.304604e+00 -3.693569e+00 1.904811e+00 -1.902973e-02 9.922285e-03 -3.969257e-02
N 6.303501e+00 -3.698001e+00 6.900625e+00 3.704464e-04 2.078451e-04 2.077970e-03
N 6.307669e+00 -3.693877e+00 -3.351610e+00 6.284704e-04 2.176475e-02 1.029300e-02
N 4.739734e+00 -9.796580e-01 1.896155e+00 -1.031910e-03 1.333631e-02 -2.972421e-02
N 4.738912e+00 -9.844404e-01 6.902920e+00 1.832368e-02 7.295925e-03 1.450479e-02
N 4.742734e+00 -9.800116e-01 -3.353616e+00 1.803612e-02 2.355400e-02 -2.261883e-03
N -3.221342e+00 1.806577e+00 1.895528e+00 -1.581278e-02 -1.144359e-02 -4.735163e-02
N -3.222262e+00 1.805830e+00 6.904442e+00 2.989643e-03 -2.027300e-03 2.025612e-03
N -3.218490e+00 1.808786e+00 -3.350540e+00 2.790645e-03 -2.235758e-02 1.727061e-02
N -4.376577e-02 -3.696048e+00 1.885415e+00 2.629069e-03 2.086594e-04 -3.944642e-02
N -4.681994e-02 -3.697523e+00 6.903895e+00 -1.624990e-02 1.048645e-02 -5.111630e-03
N -4.254041e-02 -3.694446e+00 -3.351208e+00 2.527981e-03 6.303952e-04 1.820550e-03
N -1.613092e+00 -9.839736e-01 1.898650e+00 -1.576440e-02 6.956352e-03 -4.357605e-02
N -1.611758e+00 -9.849704e-01 6.904348e+00 7.981015e-04 -3.135906e-03 2.118367e-02
N -1.608921e+00 -9.800647e-01 -3.351592e+00 -1.758552e-02 2.373772e-02 1.977052e-02
