108
Energy=-2.267684e+06 Lattice="9.620851e+00 0.000000e+00 0.000000e+00 -4.811277e+00 8.330916e+00 0.000000e+00 -2.892803e-03 -1.423263e-03 1.559663e+01" Stress="1.897540e-05 -1.235390e-05 -1.426348e-04 -2.113916e-05 7.786371e-06 1.034750e-05 -1.364497e-04 1.273493e-05 1.603276e-05" Properties=species:S:1:pos:R:3:forces:R:3 Config_type=AlGaN_super3_40_1_11.xyz
Al 1.581138e+00 8.866692e-01 2.461185e+00 6.590658e-05 3.403724e-05 9.070611e-05
Al 1.587392e+00 8.985535e-01 7.655035e+00 1.484073e-05 -1.933013e-05 5.568856e-05
Al 1.589740e+00 8.903380e-01 -2.764333e+00 3.550591e-05 2.722026e-06 3.170688e-05
Al -1.050015e-02 3.670413e+00 2.443476e+00 -8.620560e-06 1.469012e-05 7.521071e-05
Ga -1.658951e-02 3.644730e+00 7.646535e+00 1.637919e-05 -5.188743e-05 5.244266e-05
Ga -1.208683e-02 3.656726e+00 -2.732541e+00 6.592015e-05 -2.450188e-06 9.575366e-05
Al 3.196224e+00 -1.885774e+00 2.464594e+00 6.711011e-05 1.519992e-05 4.814183e-05
Ga 3.190930e+00 -1.872198e+00 7.634498e+00 2.652463e-05 8.663160e-06 3.500605e-05
Ga 3.178572e+00 -1.880861e+00 -2.739651e+00 5.342339e-05 3.513031e-06 1.756614e-05
Ga -4.839226e+00 8.722973e-01 2.460206e+00 3.899093e-05 -2.763952e-05 9.280644e-05
Al -4.847630e+00 8.852705e-01 7.641443e+00 3.663534e-05 8.645579e-06 6.145784e-05
Ga -4.847222e+00 8.929496e-01 -2.748828e+00 1.210923e-04 1.974049e-05 7.322583e-05
Ga -6.463817e+00 3.661729e+00 2.444958e+00 4.944068e-05 -1.623990e-05 1.459749e-04
Al -6.434366e+00 3.641751e+00 7.667447e+00 5.185914e-05 4.506136e-06 4.436977e-05
Ga -6.442654e+00 3.650772e+00 -2.756507e+00 2.776349e-05 -1.214155e-05 3.188165e-05
Al -3.250575e+00 -1.905656e+00 2.460624e+00 6.350273e-06 4.377546e-05 4.878038e-05
Ga -3.236234e+00 -1.878594e+00 7.631784e+00 8.120208e-05 1.759958e-05 2.728895e-05
Ga -3.230156e+00 -1.896417e+00 -2.735050e+00 7.110657e-05 -2.602154e-05 8.853158e-06
Ga -1.623968e+00 8.921526e-01 2.444167e+00 5.832219e-05 -1.845081e-05 1.452051e-04
Al -1.623423e+00 8.860712e-01 7.645683e+00 4.035063e-05 -3.834122e-05 5.356391e-05
Ga -1.620312e+00 8.903054e-01 -2.730890e+00 7.989861e-05 -5.010167e-05 5.734462e-05
Ga -3.220614e+00 3.658841e+00 2.454544e+00 6.864710e-05 -2.321457e-05 1.283920e-04
Ga -3.242590e+00 3.652458e+00 7.658673e+00 2.342096e-05 -5.825204e-05 5.917854e-05
Ga -3.236141e+00 3.659723e+00 -2.747821e+00 7.226858e-05 -7.700652e-05 4.242470e-05
Ga -1.715104e-02 -1.882048e+00 2.459461e+00 3.222182e-05 -4.628868e-05 9.800115e-05
Ga -2.808385e-02 -1.886599e+00 7.656826e+00 3.599232e-06 -4.982008e-05 4.195791e-05
Ga -1.556928e-02 -1.886726e+00 -2.756584e+00 4.844447e-05 -4.346443e-05 4.708858e-05
Ga -1.646583e-02 1.809853e+00 5.050822e+00 5.380237e-05 3.102021e-06 3.382551e-05
Ga -1.046068e-02 1.802327e+00 -5.352577e+00 3.617517e-05 3.834448e-05 6.554778e-05
Ga -1.031906e-02 1.815999e+00 -1.366449e-01 4.167703e-05 6.710428e-05 3.884403e-05
Ga 3.195654e+00 -3.733949e+00 5.025759e+00 4.105669e-05 4.836528e-05 1.539837e-05
Ga 3.176572e+00 -3.741499e+00 -5.343838e+00 1.087012e-05 2.799688e-05 6.546250e-05
Ga 3.191642e+00 -3.747927e+00 -1.188080e-01 8.111874e-05 4.897300e-05 8.410146e-05
Ga 1.595262e+00 -9.552837e-01 5.049942e+00 3.479441e-05 2.047203e-05 7.197002e-05
Ga 1.582639e+00 -9.518578e-01 -5.356049e+00 2.534335e-05 -3.590648e-06 3.889634e-05
Ga 1.586241e+00 -9.518702e-01 -1.311387e-01 -7.631493e-06 2.432272e-05 3.377193e-05
Ga 3.181146e+00 1.802632e+00 5.071817e+00 3.987989e-05 4.084707e-06 5.192026e-05
Al 3.186612e+00 1.815642e+00 -5.377958e+00 1.690480e-05 -2.180020e-05 4.268438e-05
Ga 3.179129e+00 1.812548e+00 -1.435121e-01 1.142625e-06 -4.407452e-05 1.441829e-04
Ga 6.385991e+00 -3.737271e+00 5.048941e+00 7.910828e-05 -1.254351e-05 4.695112e-05
Ga 6.411292e+00 -3.751498e+00 -5.365280e+00 3.414396e-05 -1.170481e-05 6.654507e-05
Al 6.388501e+00 -3.738752e+00 -1.219375e-01 -6.124321e-05 -6.442297e-06 4.205651e-05
Al 4.786469e+00 -9.665382e-01 5.035097e+00 4.280178e-05 1.960299e-06 -2.276133e-05
Ga 4.784196e+00 -9.491099e-01 -5.353735e+00 -4.871120e-07 -4.341284e-05 4.016433e-05
Ga 4.797964e+00 -9.683633e-01 -1.218362e-01 -3.992909e-05 -4.202474e-05 2.254882e-04
Ga -3.237227e+00 1.797461e+00 5.082878e+00 9.983311e-05 -9.725255e-06 3.555307e-05
Ga -3.243544e+00 1.809563e+00 -5.376035e+00 3.519376e-05 -8.042809e-08 2.841045e-05
Al -3.232772e+00 1.812288e+00 -1.427575e-01 -2.223171e-05 -1.337708e-05 -3.362079e-05
Ga -3.055442e-02 -3.747973e+00 5.065572e+00 4.565156e-05 -1.916162e-05 2.866236e-05
Al -3.373207e-02 -3.754732e+00 -5.356674e+00 6.669075e-05 3.754683e-06 2.606635e-05
Ga -2.720237e-02 -3.751616e+00 -1.450497e-01 4.440260e-05 3.294231e-05 5.530320e-05
Ga -1.643082e+00 -9.643376e-01 5.049688e+00 4.053867e-05 -6.999978e-06 9.810988e-06
Ga -1.623500e+00 -9.630162e-01 -5.355714e+00 4.958929e-06 -4.252835e-05 2.046087e-05
Ga -1.639991e+00 -9.703792e-01 -1.296802e-01 8.611780e-06 -1.290219e-05 1.385003e-04
N 1.583333e+00 8.897624e-01 4.373314e+00 -3.908024e-05 9.143279e-06 -4.580998e-05
N 1.623422e+00 9.136172e-01 -6.022661e+00 -2.336393e-05 -1.045058e-06 -6.469546e-05
N 1.584557e+00 8.869962e-01 -8.435919e-01 3.433254e-05 1.369016e-05 -4.804773e-05
N -1.596284e-02 3.658309e+00 4.364367e+00 -3.666037e-05 -1.861368e-05 1.580836e-05
N -2.453039e-02 3.661248e+00 -5.978644e+00 -6.651674e-06 -2.416797e-05 -6.776079e-05
N 2.092503e-02 3.688185e+00 -7.475366e-01 -4.491084e-05 -3.296855e-05 -1.007546e-04
N 3.224768e+00 -1.862781e+00 4.387813e+00 -7.109066e-05 -2.713354e-05 3.042240e-05
N 3.186857e+00 -1.888921e+00 -5.988240e+00 -3.078540e-07 3.309978e-06 7.069929e-06
N 3.185219e+00 -1.890845e+00 -7.645050e-01 2.370558e-05 -1.104989e-05 -3.095265e-05
N -4.834807e+00 8.436014e-01 4.443034e+00 -3.589136e-05 3.839807e-05 -3.247188e-05
N -4.879265e+00 9.059286e-01 -6.029820e+00 4.473696e-05 -5.430203e-06 -3.042541e-05
N -4.796032e+00 9.087760e-01 -7.588526e-01 -1.908824e-05 2.426179e-05 -1.159550e-04
N -6.442219e+00 3.657043e+00 4.417610e+00 -4.999423e-05 2.341821e-05 -7.084192e-05
N -6.391917e+00 3.635053e+00 -5.999347e+00 -1.028647e-04 2.594670e-05 -4.296492e-05
N -6.483853e+00 3.685607e+00 -7.634348e-01 2.294184e-05 -4.706862e-05 -8.927545e-05
N -3.274543e+00 -1.872496e+00 4.389153e+00 1.281662e-05 -1.601225e-05 1.274306e-05
N -3.233731e+00 -1.887372e+00 -5.992421e+00 -2.742507e-05 1.324729e-05 -3.398179e-05
N -3.231707e+00 -1.942414e+00 -7.550944e-01 -2.962718e-05 3.280754e-05 -2.503019e-05
N -1.630603e+00 8.921823e-01 4.417968e+00 -3.489766e-05 -7.501991e-06 -7.511711e-05
N -1.621098e+00 8.884808e-01 -6.034741e+00 4.253115e-06 -2.438638e-05 -3.551130e-05
N -1.662999e+00 9.107682e-01 -7.435488e-01 2.413821e-05 -6.116974e-05 -1.292709e-04
N -3.233806e+00 3.652664e+00 4.431601e+00 -5.126918e-05 -2.590369e-05 -4.045494e-05
N -3.271743e+00 3.689812e+00 -5.961134e+00 8.134733e-06 -7.068956e-05 -6.194382e-05
N -3.227515e+00 3.617230e+00 -7.586742e-01 -6.655615e-05 -3.465583e-06 -1.196284e-04
N -2.124799e-02 -1.890372e+00 4.434908e+00 -4.770989e-05 -2.280020e-05 -5.781785e-05
N -2.039245e-02 -1.939582e+00 -5.956582e+00 -2.411675e-05 1.784803e-05 -5.607711e-05
N -1.991545e-02 -1.888225e+00 -7.728334e-01 -1.856720e-05 -4.898075e-05 -9.567881e-05
N 2.549265e-02 1.834170e+00 1.853978e+00 -8.134219e-05 -1.257175e-06 -7.142336e-05
N -1.925618e-02 1.759299e+00 7.042980e+00 -3.947163e-05 1.348803e-04 -3.335986e-05
N 1.826620e-02 1.785554e+00 -3.363364e+00 -7.168067e-05 9.319923e-05 -6.220771e-05
N 3.226496e+00 -3.716314e+00 1.872724e+00 -1.081400e-04 -4.491849e-06 -1.200726e-04
N 3.184624e+00 -3.743352e+00 7.006048e+00 -1.716045e-05 7.121319e-05 -6.984674e-05
N 3.187341e+00 -3.743145e+00 -3.366769e+00 -4.759995e-05 4.944208e-05 -6.415993e-05
N 1.626475e+00 -9.372957e-01 1.862471e+00 -9.867804e-05 7.509699e-06 -9.820944e-05
N 1.579054e+00 -9.109245e-01 7.033915e+00 3.944823e-06 -2.302593e-05 -4.525224e-05
N 1.583026e+00 -9.131978e-01 -3.372415e+00 -6.490024e-05 -7.014427e-06 -5.998889e-05
N 3.140698e+00 1.782742e+00 1.835863e+00 -5.540616e-05 4.369355e-05 -1.212551e-04
N 3.179874e+00 1.811757e+00 7.068626e+00 -3.903784e-05 1.412012e-05 -1.136475e-04
N 3.144276e+00 1.787908e+00 -3.438115e+00 -3.135575e-05 3.709516e-05 8.217534e-06
N 6.347747e+00 -3.715047e+00 1.806893e+00 9.533877e-05 -1.172177e-05 -3.461595e-05
N 6.436221e+00 -3.769430e+00 7.035430e+00 -1.034211e-04 4.567430e-05 -5.116827e-05
N 6.393549e+00 -3.743041e+00 -3.393287e+00 -4.700365e-05 2.112065e-06 -6.674636e-05
N 4.787831e+00 -1.013469e+00 1.862430e+00 -3.239774e-05 -9.120231e-06 -2.877617e-04
N 4.786238e+00 -9.150843e-01 6.961319e+00 -7.438982e-05 -6.811552e-05 5.887219e-06
N 4.789520e+00 -9.617785e-01 -3.377518e+00 -8.008819e-05 -1.438096e-05 -2.922757e-05
N -3.236688e+00 1.809440e+00 1.770304e+00 -3.225924e-06 2.946246e-05 3.514314e-05
N -3.232934e+00 1.759689e+00 7.070142e+00 -6.310096e-05 1.197462e-04 -5.379917e-05
N -3.229552e+00 1.805323e+00 -3.395047e+00 -1.022204e-04 3.733438e-05 -5.540191e-05
N -2.471764e-02 -3.744130e+00 1.825821e+00 -8.025252e-05 1.610565e-05 -3.098347e-05
N -7.030678e-02 -3.768499e+00 7.042828e+00 -9.663504e-06 4.836768e-05 -6.422571e-05
N -2.683979e-02 -3.745773e+00 -3.431099e+00 -7.578981e-05 3.204584e-05 -2.136670e-05
N -1.674548e+00 -9.940599e-01 1.853133e+00 -5.735456e-05 -6.671873e-06 -1.514639e-04
N -1.627441e+00 -9.177939e-01 7.029198e+00 -6.441795e-05 -3.740392e-05 -1.226841e-05
N -1.628670e+00 -9.602188e-01 -3.376521e+00 -9.795339e-05 4.021677e-06 -3.058540e-05
