108
Energy=-1214847.333559 Lattice="9.488178 0.000000 0.000000 -4.744583 8.215360 0.000000 0.000204 0.004920 15.296974" Stress="0.000000 -0.000000 0.000000 -0.000000 -0.000001 0.000001 0.000000 0.000001 0.000001" Properties=species:S:1:pos:R:3:forces:R:3
Al 1.559869 0.885437 2.438139 0.000058 -0.000076 0.000085
Al 1.563469 0.894445 7.497495 -0.000066 -0.000138 -0.000013
Al 1.568633 0.886472 -2.737785 -0.000069 0.000019 -0.000065
Al -0.020676 3.607501 2.416459 -0.000460 -0.000021 -0.000218
Al -0.029885 3.602655 7.506330 -0.000008 -0.000005 0.000022
Al -0.006893 3.613934 -2.723082 -0.000076 0.000086 0.000052
Al 3.151092 -1.865135 2.408117 -0.000093 0.000351 -0.000157
Al 3.143309 -1.865846 7.499871 0.000024 -0.000021 0.000248
Ga 3.148500 -1.867473 -2.700425 -0.000149 -0.000010 0.000145
Al -4.779795 0.869396 2.438438 -0.000265 -0.000344 -0.000057
Al -4.775006 0.888405 7.481326 0.000050 0.000016 0.000038
Al -4.775583 0.877855 -2.719516 0.000043 0.000129 0.000007
Al -6.354904 3.602331 2.421176 -0.000279 -0.000234 -0.000031
Al -6.345614 3.594148 7.511466 -0.000123 0.000040 0.000004
Al -6.366140 3.601750 -2.730888 0.000007 -0.000001 -0.000030
Ga -3.188037 -1.860189 2.401150 0.000034 0.000040 -0.000001
Ga -3.196602 -1.861668 7.484555 -0.000053 -0.000014 0.000012
Al -3.190510 -1.883217 -2.678090 -0.000016 -0.000008 0.000017
Al -1.593015 0.870424 2.433121 0.000239 -0.000129 -0.000075
Al -1.601523 0.898169 7.486819 -0.000026 0.000011 0.000033
Ga -1.605628 0.881199 -2.710695 0.000114 0.000026 -0.000030
Ga -3.176692 3.618929 2.442226 0.000048 0.000010 0.000022
Al -3.182311 3.606625 7.482784 -0.000037 -0.000003 -0.000015
Ga -3.183924 3.602962 -2.719188 0.000004 -0.000072 -0.000017
Al -0.029963 -1.856725 2.429026 0.000023 0.000122 -0.000113
Ga -0.015430 -1.868058 7.500926 0.000032 -0.000077 0.000019
Ga -0.022785 -1.867269 -2.711172 0.000034 -0.000019 0.000006
Al -0.032283 1.791277 4.959482 0.000049 -0.000045 0.000026
Al -0.014672 1.795911 -5.271790 -0.000042 -0.000039 -0.000081
Ga -0.019794 1.799057 -0.135315 -0.000028 0.000167 -0.000002
Al 3.145777 -3.692434 4.973161 -0.000019 0.000366 0.000034
Al 3.139433 -3.703659 -5.285978 -0.000035 0.000157 0.000057
Al 3.164858 -3.687504 -0.134332 0.000022 0.000156 -0.000145
Ga 1.566903 -0.948404 4.946954 -0.000051 0.000004 0.000005
Al 1.568280 -0.946027 -5.275089 -0.000274 0.000054 0.000028
Ga 1.563252 -0.951550 -0.109934 -0.000111 0.000132 0.000045
Al 3.146892 1.791437 4.963949 -0.000006 -0.000036 -0.000028
Al 3.137876 1.790372 -5.265694 0.000006 0.000029 0.000007
Ga 3.139653 1.785600 -0.145579 -0.000005 0.000033 -0.000085
Ga 6.301640 -3.703647 4.957869 0.000050 -0.000002 0.000072
Al 6.301169 -3.713089 -5.251185 -0.000027 0.000071 -0.000011
Al 6.292738 -3.685635 -0.154843 0.000089 -0.000156 -0.000155
Al 4.712634 -0.939403 4.959251 0.000143 -0.000013 0.000281
Ga 4.713700 -0.947158 -5.249578 -0.000042 -0.000069 -0.000015
Al 4.730204 -0.954960 -0.149531 -0.000117 -0.000132 0.000013
Al -3.184917 1.779336 4.963619 -0.000043 0.000036 0.000004
Al -3.190497 1.798713 -5.288412 0.000141 -0.000008 -0.000106
Ga -3.190684 1.772604 -0.118838 0.000082 0.000034 -0.000042
Al -0.028474 -3.699227 4.961629 0.000106 -0.000060 -0.000018
Al -0.020470 -3.712621 -5.268615 0.000020 0.000049 0.000023
Ga -0.037451 -3.688272 -0.132575 -0.000043 0.000045 -0.000078
Al -1.602706 -0.934238 4.953978 0.000043 -0.000093 -0.000070
Ga -1.602388 -0.948102 -5.251967 0.000013 -0.000026 0.000030
Al -1.616394 -0.958355 -0.132527 -0.000055 0.000042 -0.000010
N 1.558570 0.931857 4.347317 0.000071 -0.000026 0.000033
N 1.560615 0.878726 -5.875158 -0.000010 0.000092 -0.000014
N 1.556633 0.870116 -0.823100 0.000082 0.000052 0.000006
N -0.069281 3.590992 4.329913 0.000163 -0.000030 -0.000066
N -0.020645 3.608730 -5.873658 -0.000050 0.000041 0.000032
N -0.023380 3.658065 -0.794968 0.000105 -0.000030 0.000063
N 3.188594 -1.894573 4.324690 -0.000139 -0.000292 0.000086
N 3.104767 -1.890505 -5.885019 0.000220 -0.000323 -0.000160
N 3.176028 -1.888394 -0.719191 0.000110 0.000002 -0.000131
N -4.770532 0.874688 4.359896 0.000031 0.000015 -0.000023
N -4.771257 0.919585 -5.899356 -0.000168 -0.000049 -0.000095
N -4.767463 0.832691 -0.804815 -0.000023 0.000031 0.000099
N -6.309794 3.586742 4.329585 0.000063 0.000075 -0.000102
N -6.350813 3.606378 -5.863944 -0.000031 0.000025 -0.000000
N -6.392944 3.632639 -0.810548 -0.000059 0.000045 0.000011
N -3.188334 -1.816558 4.382225 0.000023 -0.000013 -0.000027
N -3.188432 -1.916472 -5.853369 -0.000010 -0.000034 -0.000023
N -3.184939 -1.868680 -0.741376 -0.000035 -0.000035 -0.000064
N -1.602688 0.877549 4.353129 0.000054 -0.000032 -0.000029
N -1.600557 0.923037 -5.891458 0.000032 0.000035 0.000000
N -1.603297 0.832459 -0.740820 0.000035 -0.000075 -0.000004
N -3.180456 3.615336 4.421315 -0.000044 -0.000021 -0.000003
N -3.186060 3.611625 -5.888211 0.000024 0.000033 -0.000012
N -3.142403 3.634572 -0.735674 -0.000083 -0.000089 0.000067
N -0.066459 -1.889085 4.344179 -0.000190 0.000079 0.000097
N 0.017661 -1.894282 -5.827973 0.000059 0.000078 -0.000003
N -0.057413 -1.838798 -0.738946 0.000032 -0.000129 -0.000083
N -0.019411 1.786863 1.850966 -0.000154 0.000098 0.000094
N -0.020788 1.791776 6.884766 -0.000043 0.000028 -0.000025
N 0.017815 1.812051 -3.349431 0.000036 -0.000004 0.000033
N 3.185694 -3.670536 1.781526 0.000187 -0.000230 0.000189
N 3.146536 -3.687257 6.896449 -0.000038 0.000071 0.000058
N 3.182915 -3.716747 -3.371814 0.000017 0.000056 -0.000097
N 1.558779 -0.945692 1.879246 0.000127 -0.000226 0.000098
N 1.602630 -0.921420 6.919853 -0.000035 0.000158 -0.000065
N 1.565685 -0.907415 -3.361968 0.000070 0.000008 0.000004
N 3.140140 1.783922 1.842772 0.000222 0.000110 0.000107
N 3.137627 1.792182 6.884543 -0.000020 0.000001 0.000039
N 3.143113 1.784591 -3.337962 0.000012 0.000006 0.000016
N 6.302650 -3.742399 1.775382 0.000095 -0.000009 0.000187
N 6.303036 -3.746519 6.924748 0.000174 -0.000052 -0.000021
N 6.301171 -3.689680 -3.322792 0.000042 0.000004 -0.000002
N 4.681226 -0.919103 1.772063 0.000006 0.000310 0.000165
N 4.672721 -0.921739 6.871959 0.000032 -0.000070 -0.000267
N 4.765725 -0.931922 -3.276274 0.000066 -0.000047 -0.000057
N -3.189303 1.737468 1.860147 -0.000031 0.000064 -0.000042
N -3.186032 1.784734 6.885017 0.000020 0.000046 -0.000047
N -3.228013 1.760704 -3.374721 -0.000050 -0.000049 0.000127
N -0.064796 -3.668886 1.843738 0.000142 0.000058 -0.000079
N -0.030443 -3.739290 6.876749 0.000066 -0.000003 0.000043
N -0.063442 -3.721643 -3.356896 -0.000009 0.000037 0.000012
N -1.563114 -0.924489 1.785569 0.000067 -0.000053 0.000139
N -1.599808 -0.897327 6.859721 0.000026 -0.000076 0.000029
N -1.651783 -0.976586 -3.292861 -0.000141 -0.000040 0.000032
