108
Energy=-2.496556e+06 Lattice="9.508623e+00 0.000000e+00 0.000000e+00 -4.758024e+00 8.233649e+00 0.000000e+00 7.882732e-02 1.373051e-02 1.531025e+01" Stress="-7.217027e-02 6.500196e-03 3.191405e-03 6.494475e-03 -6.610369e-02 1.785769e-04 3.196074e-03 1.852915e-04 -7.186586e-02" Properties=species:S:1:pos:R:3:forces:R:3 Config_type=AlGaN_super3_45_1_2.xyz
Al 1.603302e+00 9.091719e-01 2.471233e+00 -1.965327e-03 -1.223031e-02 -8.515148e-03
Al 1.609571e+00 9.087518e-01 7.514831e+00 -1.055041e-03 -1.264527e-02 -3.382066e-03
Ga 1.537675e+00 8.956068e-01 -2.755765e+00 -2.058703e-03 -1.613902e-02 -5.573243e-03
Al 3.326558e-02 3.628692e+00 2.475010e+00 -2.476956e-03 -2.084899e-03 -7.628546e-03
Ga 3.890691e-02 3.630156e+00 7.515128e+00 -2.162639e-03 -1.833666e-03 -1.826229e-03
Al -3.632899e-02 3.619790e+00 -2.754885e+00 -2.913465e-03 -1.282263e-03 -2.409210e-03
Ga 3.222392e+00 -1.881130e+00 2.466978e+00 -3.647990e-03 7.872655e-04 -8.827933e-03
Ga 3.226598e+00 -1.880150e+00 7.515782e+00 -3.248091e-03 1.386280e-03 -2.044667e-03
Al 3.150368e+00 -1.893741e+00 -2.753128e+00 -2.074455e-03 1.235811e-03 -3.253124e-03
Ga -4.761053e+00 9.094350e-01 2.469850e+00 -5.010046e-05 -1.467703e-02 -9.343177e-03
Ga -4.755196e+00 9.082064e-01 7.516527e+00 6.571121e-04 -1.425885e-02 -3.680541e-03
Al -4.831530e+00 8.963254e-01 -2.752755e+00 1.535241e-03 -1.216785e-02 -2.963662e-03
Ga -6.332889e+00 3.629269e+00 2.469011e+00 -7.145742e-04 -1.763300e-04 -6.703962e-03
Ga -6.328181e+00 3.631692e+00 7.515490e+00 -5.534187e-04 -3.063577e-04 -7.756720e-04
Ga -6.403166e+00 3.617695e+00 -2.750221e+00 -6.073281e-04 -2.024068e-04 -5.460894e-04
Ga -3.144745e+00 -1.882438e+00 2.467900e+00 -5.871431e-04 1.971174e-03 -7.753250e-03
Al -3.141737e+00 -1.878924e+00 7.516291e+00 2.637093e-04 2.344136e-03 -1.002446e-03
Ga -3.218651e+00 -1.892605e+00 -2.751388e+00 -9.853980e-04 2.718612e-03 -1.992796e-03
Ga -1.620339e+00 9.095359e-01 2.480483e+00 1.466695e-02 -8.109309e-03 -1.400366e-02
Al -1.613404e+00 9.100822e-01 7.516051e+00 1.279013e-02 -7.230167e-03 -4.250972e-03
Ga -1.690194e+00 8.982138e-01 -2.750222e+00 1.481187e-02 -7.930121e-03 -6.262503e-03
Ga -3.187574e+00 3.631136e+00 2.470005e+00 1.332080e-02 6.811828e-03 -9.556861e-03
Ga -3.184606e+00 3.631802e+00 7.516668e+00 1.334106e-02 6.442265e-03 -3.258165e-03
Ga -3.260654e+00 3.618973e+00 -2.749189e+00 1.422044e-02 6.627219e-03 -3.422639e-03
Ga -1.935796e-03 -1.878866e+00 2.469068e+00 1.311472e-02 9.085958e-03 -1.004023e-02
Ga 2.222538e-04 -1.878000e+00 7.516013e+00 1.300544e-02 9.580092e-03 -4.494232e-03
Ga -7.414317e-02 -1.892519e+00 -2.749759e+00 1.358276e-02 9.831019e-03 -4.095162e-03
Ga 3.802297e-02 1.814619e+00 4.993429e+00 -1.282979e-02 -8.854967e-03 -4.751119e-03
Ga -3.760464e-02 1.802729e+00 -5.275211e+00 -1.330633e-02 -1.003320e-02 -4.352962e-03
Ga -2.263027e-02 1.805804e+00 -2.464183e-01 -1.494495e-02 -9.366451e-03 3.817458e-02
Ga 3.224217e+00 -3.695721e+00 4.992711e+00 -1.344802e-02 -6.766138e-03 -3.462544e-03
Ga 3.150056e+00 -3.708094e+00 -5.271278e+00 -1.383139e-02 -6.555242e-03 -2.652309e-03
Ga 3.153658e+00 -3.709055e+00 -2.307897e-01 -1.131436e-02 -6.572951e-03 3.484909e-02
Ga 1.653248e+00 -9.743554e-01 4.992838e+00 -1.448875e-02 8.160161e-03 -6.023154e-03
Ga 1.578935e+00 -9.884700e-01 -5.273191e+00 -1.464573e-02 8.483498e-03 -6.201839e-03
Ga 1.581421e+00 -9.875172e-01 -2.287536e-01 -1.267738e-02 8.462277e-03 3.171403e-02
Ga 3.178999e+00 1.815392e+00 4.992315e+00 2.066713e-04 -2.776419e-03 -1.248893e-03
Ga 3.105260e+00 1.801829e+00 -5.274268e+00 -1.401634e-04 -2.589781e-03 -1.213473e-03
Ga 3.109045e+00 1.802397e+00 -2.314069e-01 2.689888e-03 -2.247022e-03 3.770545e-02
Ga 6.366106e+00 -3.694529e+00 4.992877e+00 -1.003851e-04 -6.469652e-04 -1.855357e-04
Ga 6.289540e+00 -3.707708e+00 -5.273470e+00 5.037524e-04 6.976235e-04 -4.394073e-04
Ga 6.292778e+00 -3.707467e+00 -2.294402e-01 2.160771e-03 2.187466e-04 3.839885e-02
Ga 4.795571e+00 -9.749617e-01 4.993120e+00 -1.291057e-03 1.532979e-02 -2.954271e-03
Al 4.718636e+00 -9.869441e-01 -5.272929e+00 -9.191367e-04 1.147568e-02 -1.953507e-03
Ga 4.720620e+00 -9.864113e-01 -2.302726e-01 1.149720e-03 1.544502e-02 3.447057e-02
Ga -3.186357e+00 1.817034e+00 4.995143e+00 1.707745e-03 -1.193203e-03 -1.755072e-03
Ga -3.262064e+00 1.802747e+00 -5.273266e+00 3.049188e-03 -1.414381e-03 -1.987568e-03
Ga -3.258045e+00 1.804516e+00 -2.280244e-01 4.948951e-03 -1.776374e-03 3.616997e-02
Ga 5.386488e-04 -3.694345e+00 4.992329e+00 2.323766e-03 9.970287e-04 -1.192533e-03
Ga -7.523388e-02 -3.707462e+00 -5.272201e+00 2.527115e-03 1.103792e-03 -1.044263e-03
Ga -7.229671e-02 -3.706731e+00 -2.257989e-01 4.660576e-03 1.556614e-03 3.701656e-02
Ga -1.572148e+00 -9.737837e-01 4.995656e+00 1.575013e-03 1.567417e-02 -3.396733e-03
Ga -1.647955e+00 -9.860196e-01 -5.274431e+00 9.744324e-04 1.611985e-02 -4.674707e-03
Ga -1.643315e+00 -9.853284e-01 -2.242779e-01 3.426688e-03 1.692844e-02 3.383942e-02
N 1.608175e+00 9.082536e-01 4.390427e+00 -8.503225e-04 -1.548099e-02 -1.602749e-02
N 1.533036e+00 8.957190e-01 -5.875806e+00 -7.972630e-04 -1.524600e-02 -1.668862e-02
N 1.541055e+00 8.954258e-01 -8.362163e-01 -2.347668e-04 -1.599503e-02 8.375186e-03
N 3.627549e-02 3.630898e+00 4.393140e+00 -1.743705e-03 1.049717e-05 -1.939016e-02
N -3.891271e-02 3.617545e+00 -5.871998e+00 -2.077078e-03 -7.757386e-05 8.109209e-04
N -3.305115e-02 3.620130e+00 -8.381420e-01 -1.659484e-03 1.105112e-04 -1.677029e-02
N 3.223536e+00 -1.881153e+00 4.392601e+00 -2.619556e-03 1.571101e-03 3.482829e-04
N 3.151300e+00 -1.892780e+00 -5.870337e+00 1.465093e-02 1.091486e-02 7.460056e-03
N 3.150437e+00 -1.894409e+00 -8.330657e-01 -1.774649e-03 1.288730e-03 -1.776050e-02
N -4.758058e+00 9.093366e-01 4.394362e+00 7.241632e-04 -1.537005e-02 4.664463e-03
N -4.833273e+00 8.921703e-01 -5.870605e+00 8.251897e-04 -3.181476e-02 1.047999e-02
N -4.829397e+00 8.971902e-01 -8.334512e-01 1.403419e-03 -1.484800e-02 -1.395528e-02
N -6.329671e+00 3.630847e+00 4.393615e+00 -2.873760e-04 4.319543e-04 1.484820e-03
N -6.404855e+00 3.618029e+00 -5.871339e+00 -5.895231e-04 1.200934e-04 1.335521e-03
N -6.401576e+00 3.618720e+00 -8.263111e-01 3.390058e-05 4.345645e-04 3.980264e-03
N -3.142978e+00 -1.880768e+00 4.392820e+00 -7.789857e-04 1.979071e-03 6.931791e-04
N -3.222532e+00 -1.891716e+00 -5.873665e+00 -1.797768e-02 1.112807e-02 -1.338680e-02
N -3.215841e+00 -1.892251e+00 -8.266199e-01 5.519155e-05 1.711416e-03 3.220515e-03
N -1.617379e+00 9.095859e-01 4.399701e+00 1.465566e-02 -8.846590e-03 9.232690e-03
N -1.691528e+00 8.977308e-01 -5.875627e+00 1.462878e-02 -8.077601e-03 -1.299573e-02
N -1.685425e+00 8.988559e-01 -8.259309e-01 1.555242e-02 -8.189174e-03 9.812097e-03
N -3.186990e+00 3.631836e+00 4.394068e+00 1.340363e-02 7.054997e-03 4.554216e-03
N -3.262550e+00 3.618979e+00 -5.870201e+00 1.394871e-02 7.152519e-03 4.714228e-03
N -3.259431e+00 3.619478e+00 -8.258662e-01 1.403271e-02 7.377613e-03 6.920205e-03
N -9.629066e-04 -1.879329e+00 4.394056e+00 1.274591e-02 8.654112e-03 4.292275e-03
N -7.636456e-02 -1.893018e+00 -5.871407e+00 1.334423e-02 8.714812e-03 4.269017e-03
N -7.344278e-02 -1.892110e+00 -8.255022e-01 1.351887e-02 8.538778e-03 6.164758e-03
N 2.774756e-02 1.815528e+00 1.892208e+00 5.088928e-03 1.282933e-03 -2.152953e-02
N 3.971994e-02 1.811992e+00 6.918840e+00 -1.076282e-02 -2.561193e-02 1.629272e-02
N -3.564410e-02 1.806333e+00 -3.350658e+00 -1.264421e-02 1.085105e-02 1.107382e-02
N 3.226771e+00 -3.699445e+00 1.872160e+00 8.996415e-04 -1.649540e-02 -2.397826e-02
N 3.225839e+00 -3.695790e+00 6.916835e+00 -1.364676e-02 -6.877722e-03 3.978779e-03
N 3.153302e+00 -3.706829e+00 -3.347500e+00 3.021730e-03 2.491346e-03 1.843207e-02
N 1.650413e+00 -9.699218e-01 1.869628e+00 -1.676140e-02 2.437334e-02 -2.127499e-02
N 1.654610e+00 -9.705734e-01 6.917674e+00 -1.474025e-02 2.411391e-02 1.297428e-02
N 1.582099e+00 -9.902462e-01 -3.349897e+00 1.845873e-03 -1.357979e-03 1.474440e-02
N 3.172090e+00 1.813589e+00 1.871686e+00 -1.779293e-02 -1.215796e-02 -2.761986e-02
N 3.178117e+00 1.814359e+00 6.917652e+00 -1.550843e-02 -1.141390e-02 7.654510e-03
N 3.109928e+00 1.801841e+00 -3.350264e+00 1.821565e-02 -1.069966e-02 7.284929e-03
N 6.359073e+00 -3.700310e+00 1.872342e+00 -1.875799e-02 -9.880984e-03 -2.713631e-02
N 6.367443e+00 -3.691148e+00 6.917993e+00 3.313812e-04 1.988593e-02 7.703954e-03
N 6.289208e+00 -3.709186e+00 -3.349359e+00 -1.565795e-02 -1.022550e-02 7.750722e-03
N 4.793675e+00 -9.743523e-01 1.867906e+00 -2.828793e-03 1.542213e-02 -3.067881e-02
N 4.799824e+00 -9.760633e-01 6.917523e+00 1.647305e-02 5.490441e-03 1.120737e-02
N 4.717418e+00 -9.850157e-01 -3.351916e+00 -1.778211e-02 2.179334e-02 -4.455060e-03
N -3.188133e+00 1.816002e+00 1.872872e+00 -2.344489e-04 -2.081147e-03 -3.494818e-02
N -3.181736e+00 1.815582e+00 6.919345e+00 1.894322e-02 -1.098711e-02 7.231614e-03
N -3.263305e+00 1.802464e+00 -3.348274e+00 -1.475942e-02 -1.060746e-02 6.990720e-03
N -1.436311e-03 -3.695237e+00 1.869540e+00 -4.168323e-04 -3.107129e-04 -3.334905e-02
N 1.751451e-03 -3.694217e+00 6.916642e+00 2.313970e-03 2.832679e-04 5.455781e-04
N -7.413721e-02 -3.707352e+00 -3.348279e+00 1.980748e-03 -9.005286e-05 3.818597e-04
N -1.573235e+00 -9.730544e-01 1.870878e+00 -1.734527e-03 1.525630e-02 -3.034348e-02
N -1.573567e+00 -9.715591e-01 6.920475e+00 -1.659298e-02 2.161233e-02 1.624075e-02
N -1.645928e+00 -9.861238e-01 -3.349974e+00 1.197922e-03 1.528586e-02 3.745175e-03
