108
Energy=-1.214847e+06 Lattice="9.487392e+00 0.000000e+00 0.000000e+00 -4.745931e+00 8.213609e+00 0.000000e+00 9.592999e-04 7.586682e-03 1.529748e+01" Stress="-4.479680e-04 -7.096957e-05 8.619638e-05 -7.806860e-05 -1.031716e-03 3.216567e-04 8.910628e-05 3.333760e-04 1.859092e-04" Properties=species:S:1:pos:R:3:forces:R:3 Config_type=AlGaN_super3_17_0_15.xyz
Al 1.555569e+00 8.818334e-01 2.438282e+00 2.655601e-04 2.398411e-03 1.083266e-03
Al 1.563376e+00 8.948237e-01 7.499654e+00 -2.939494e-04 -4.015244e-04 -2.192347e-04
Al 1.567434e+00 8.830571e-01 -2.738088e+00 2.246564e-04 1.258979e-04 1.394829e-04
Al -2.510564e-02 3.604910e+00 2.417667e+00 2.590800e-03 1.251971e-03 -3.897039e-05
Al -2.852887e-02 3.602522e+00 7.506058e+00 -3.182674e-04 -2.308762e-04 1.797720e-04
Al -6.177498e-03 3.611367e+00 -2.721193e+00 -5.114653e-04 -3.849235e-04 -5.415901e-04
Al 3.152134e+00 -1.864299e+00 2.409244e+00 -6.173242e-04 8.126489e-04 3.126497e-04
Al 3.146507e+00 -1.866884e+00 7.502089e+00 -3.742113e-04 3.570684e-04 -5.945524e-05
Ga 3.153636e+00 -1.870740e+00 -2.703413e+00 -3.961654e-04 2.201288e-04 2.766434e-04
Al -4.782912e+00 8.734842e-01 2.440599e+00 -5.138293e-04 -1.344726e-03 -3.227128e-04
Al -4.776447e+00 8.885526e-01 7.482479e+00 4.575334e-04 2.519088e-04 1.760276e-04
Al -4.777853e+00 8.760622e-01 -2.719908e+00 3.031303e-04 3.427096e-04 -1.200552e-04
Al -6.358051e+00 3.602970e+00 2.425803e+00 1.806864e-03 2.752256e-04 -8.226478e-04
Al -6.343976e+00 3.595720e+00 7.511135e+00 -4.544114e-04 2.027885e-04 2.351359e-04
Al -6.366755e+00 3.599222e+00 -2.733397e+00 5.642818e-04 2.952757e-04 7.825094e-04
Ga -3.186189e+00 -1.857761e+00 2.402175e+00 -1.544999e-04 8.368896e-06 -1.503520e-04
Ga -3.192960e+00 -1.861325e+00 7.483864e+00 2.578795e-04 4.040406e-04 1.076719e-04
Al -3.187272e+00 -1.883943e+00 -2.683253e+00 -8.811714e-05 2.435097e-04 5.591155e-04
Al -1.596864e+00 8.820080e-01 2.431245e+00 3.762556e-04 -2.880018e-03 2.564208e-04
Al -1.603301e+00 9.009573e-01 7.487532e+00 -1.066945e-04 -7.403403e-04 -1.298783e-03
Ga -1.609553e+00 8.824795e-01 -2.711506e+00 5.089678e-04 -2.740833e-04 1.627834e-04
Ga -3.176423e+00 3.620107e+00 2.442252e+00 -8.190306e-04 5.959657e-04 4.774479e-04
Al -3.183031e+00 3.608829e+00 7.484476e+00 -2.695926e-05 -2.275151e-04 -2.977552e-05
Ga -3.185448e+00 3.603277e+00 -2.719918e+00 -7.057254e-06 -3.995766e-04 3.368385e-05
Al -2.903424e-02 -1.852366e+00 2.428223e+00 1.363614e-04 1.265182e-04 -1.807970e-04
Ga -1.498415e-02 -1.863558e+00 7.501418e+00 -1.323473e-04 4.463333e-05 3.937636e-05
Ga -2.219182e-02 -1.866818e+00 -2.712114e+00 3.164000e-04 -1.688506e-04 5.935011e-05
Al -3.352243e-02 1.790669e+00 4.960601e+00 8.013424e-05 -2.415499e-04 3.518973e-04
Al -1.540404e-02 1.793304e+00 -5.270807e+00 -9.948914e-04 -5.995859e-04 -9.627881e-04
Ga -2.001194e-02 1.797462e+00 -1.352406e-01 -1.434285e-04 1.280126e-04 -5.083860e-04
Al 3.147886e+00 -3.691479e+00 4.972936e+00 -3.116720e-04 3.964572e-04 5.802436e-04
Al 3.141268e+00 -3.707589e+00 -5.285034e+00 -1.370926e-04 4.739800e-04 -4.906684e-04
Al 3.166034e+00 -3.688919e+00 -1.350724e-01 1.695540e-04 1.246720e-04 -2.314834e-04
Ga 1.568191e+00 -9.498077e-01 4.948966e+00 -1.615000e-04 4.946933e-04 5.235408e-05
Al 1.571278e+00 -9.493038e-01 -5.273434e+00 -4.516641e-04 1.708490e-05 -7.509283e-05
Ga 1.568416e+00 -9.537052e-01 -1.140443e-01 -6.453245e-04 5.119398e-04 6.266733e-04
Al 3.142565e+00 1.792020e+00 4.966195e+00 1.366784e-05 -3.439173e-04 -2.727012e-05
Al 3.135156e+00 1.788288e+00 -5.266343e+00 2.713070e-04 -2.121101e-04 9.557531e-05
Ga 3.137555e+00 1.786402e+00 -1.442140e-01 -1.391715e-04 -9.824524e-05 -4.254652e-05
Ga 6.302667e+00 -3.700741e+00 4.957294e+00 -7.255274e-05 -2.073686e-04 6.195721e-04
Al 6.302037e+00 -3.715149e+00 -5.251897e+00 1.454283e-05 1.506633e-04 -1.654831e-04
Al 6.295274e+00 -3.684287e+00 -1.549451e-01 2.265452e-04 -2.388917e-04 -2.408269e-05
Al 4.713395e+00 -9.382954e-01 4.961551e+00 -1.528223e-04 4.060179e-05 2.808555e-04
Ga 4.716807e+00 -9.503137e-01 -5.253312e+00 -3.864443e-04 1.749101e-04 6.347627e-04
Al 4.732459e+00 -9.568452e-01 -1.498129e-01 -2.745841e-04 2.580997e-04 -2.417950e-04
Al -3.189118e+00 1.782096e+00 4.965438e+00 2.834181e-04 -6.611333e-06 2.249395e-04
Al -3.192338e+00 1.796055e+00 -5.289571e+00 -2.934925e-04 1.601600e-04 4.580579e-05
Ga -3.193756e+00 1.772678e+00 -1.206682e-01 -2.113621e-04 2.049742e-04 -9.927245e-04
Al -2.806924e-02 -3.694811e+00 4.963322e+00 2.466822e-04 -2.169235e-04 1.153415e-04
Al -2.025077e-02 -3.712573e+00 -5.268994e+00 2.695477e-04 2.892512e-05 -1.354715e-04
Ga -3.645688e-02 -3.687117e+00 -1.322393e-01 -1.288224e-04 6.794747e-05 -1.137100e-03
Al -1.602826e+00 -9.337576e-01 4.942236e+00 2.267262e-04 1.124502e-03 3.774207e-03
Ga -1.600503e+00 -9.492573e-01 -5.254961e+00 -4.943155e-05 -3.469605e-06 2.233811e-04
Al -1.614798e+00 -9.568953e-01 -1.338678e-01 -5.906268e-05 -9.203687e-05 4.371184e-06
N 1.555889e+00 9.293765e-01 4.348023e+00 1.303110e-04 5.246686e-04 2.876974e-04
N 1.558531e+00 8.755338e-01 -5.873703e+00 2.212123e-04 7.369846e-05 -8.607042e-05
N 1.555699e+00 8.693693e-01 -8.222915e-01 2.064655e-04 1.940548e-05 -3.697775e-04
N -6.762310e-02 3.590403e+00 4.332213e+00 -2.392839e-04 3.053825e-06 -5.838029e-04
N -2.030215e-02 3.605212e+00 -5.873736e+00 -9.688142e-05 -2.184715e-04 -7.770734e-06
N -2.170984e-02 3.655292e+00 -7.931933e-01 -1.821773e-04 2.273407e-04 -2.404478e-04
N 3.188747e+00 -1.893488e+00 4.327176e+00 2.270843e-04 -4.107651e-04 -4.080851e-04
N 3.108155e+00 -1.894585e+00 -5.883383e+00 -1.550399e-04 -6.486528e-06 -3.703809e-04
N 3.180157e+00 -1.891145e+00 -7.226672e-01 -2.322606e-04 8.611383e-05 4.130024e-04
N -4.773842e+00 8.758854e-01 4.362407e+00 3.710966e-04 7.184005e-05 -2.833990e-04
N -4.773927e+00 9.167067e-01 -5.898680e+00 8.170281e-05 9.393185e-05 -3.076440e-04
N -4.771350e+00 8.322367e-01 -8.044763e-01 5.115462e-04 -1.769823e-04 1.508755e-04
N -6.309683e+00 3.587312e+00 4.333957e+00 -4.566605e-05 2.265102e-04 -6.455787e-04
N -6.350234e+00 3.603394e+00 -5.864344e+00 -2.646210e-04 1.100191e-04 1.826886e-05
N -6.392016e+00 3.631626e+00 -8.092793e-01 -7.015376e-05 -4.841863e-05 -1.014591e-03
N -3.187881e+00 -1.815297e+00 4.383059e+00 -3.910556e-04 -2.473703e-04 -6.603904e-04
N -3.185411e+00 -1.919580e+00 -5.854274e+00 -4.653981e-05 -1.467940e-05 -1.525385e-04
N -3.182190e+00 -1.868898e+00 -7.454741e-01 -6.734978e-05 1.287965e-04 2.359516e-04
N -1.606934e+00 8.823141e-01 4.351781e+00 2.535829e-04 -2.085535e-04 -2.226512e-04
N -1.606490e+00 9.197358e-01 -5.897965e+00 1.648934e-03 8.901926e-04 2.470256e-03
N -1.606556e+00 8.342153e-01 -7.420991e-01 3.724109e-04 -3.263114e-04 -2.206156e-05
N -3.182509e+00 3.618275e+00 4.421456e+00 2.209765e-04 -4.147523e-04 -1.752864e-04
N -3.187326e+00 3.609779e+00 -5.887035e+00 1.182772e-04 -2.038255e-04 -1.448572e-04
N -3.144046e+00 3.634491e+00 -7.373394e-01 1.973042e-04 -2.388869e-04 1.052600e-04
N -6.548712e-02 -1.886539e+00 4.343283e+00 -1.087779e-04 -2.457116e-04 -2.404615e-04
N 1.887700e-02 -1.894974e+00 -5.827920e+00 2.227108e-04 2.081147e-04 -5.055883e-05
N -5.589680e-02 -1.838809e+00 -7.407303e-01 4.312446e-05 2.351333e-04 -1.770376e-06
N -2.181920e-02 1.788652e+00 1.850917e+00 8.890210e-05 1.876788e-05 3.359413e-04
N -2.080536e-02 1.790983e+00 6.886686e+00 -5.509717e-05 4.396628e-04 -4.209544e-04
N 1.714983e-02 1.807078e+00 -3.350051e+00 -2.933586e-04 9.709860e-04 4.909761e-04
N 3.189766e+00 -3.671652e+00 1.784492e+00 -1.082113e-03 9.152406e-04 -6.418240e-04
N 3.148148e+00 -3.686925e+00 6.897431e+00 8.269505e-05 1.064383e-04 -1.849922e-04
N 3.184099e+00 -3.718701e+00 -3.373742e+00 5.705400e-04 -2.131296e-04 8.320406e-04
N 1.558308e+00 -9.358642e-01 1.882482e+00 1.037306e-03 -4.287946e-03 -1.434687e-03
N 1.605033e+00 -9.210524e-01 6.920554e+00 3.453664e-04 9.042639e-05 2.376573e-04
N 1.570593e+00 -9.111058e-01 -3.359594e+00 -3.665247e-04 1.352291e-04 -4.071265e-04
N 3.132908e+00 1.784613e+00 1.847313e+00 1.532165e-03 5.138691e-04 -2.772635e-04
N 3.136238e+00 1.793791e+00 6.887614e+00 -7.406004e-06 -2.184098e-04 -4.648465e-04
N 3.140512e+00 1.782830e+00 -3.338566e+00 8.787461e-05 2.246558e-06 1.254170e-04
N 6.308695e+00 -3.738909e+00 1.777220e+00 -2.559054e-03 -3.483426e-04 4.861332e-04
N 6.303931e+00 -3.744113e+00 6.924653e+00 4.628651e-04 -2.782044e-04 -2.351796e-04
N 6.301241e+00 -3.691250e+00 -3.323586e+00 2.270595e-04 7.561163e-05 -3.776634e-05
N 4.680622e+00 -9.196379e-01 1.773448e+00 4.892333e-04 1.151057e-03 2.146180e-04
N 4.675935e+00 -9.214568e-01 6.874621e+00 -5.989709e-04 -1.650153e-04 -5.762100e-04
N 4.768389e+00 -9.321174e-01 -3.279159e+00 -8.443207e-05 -3.822069e-04 -3.983403e-05
N -3.193270e+00 1.741768e+00 1.857600e+00 -4.521657e-04 -7.513515e-05 7.392159e-04
N -3.188592e+00 1.786920e+00 6.886731e+00 3.527703e-05 2.545214e-04 -3.704476e-04
N -3.230485e+00 1.760694e+00 -3.374091e+00 5.033734e-06 -1.312540e-05 -2.604557e-04
N -6.013188e-02 -3.662505e+00 1.840273e+00 -1.211354e-03 -1.524370e-03 2.155379e-03
N -2.870840e-02 -3.733686e+00 6.878870e+00 7.086654e-05 -3.995325e-04 -3.764707e-04
N -6.144235e-02 -3.720184e+00 -3.358475e+00 -6.907336e-04 -2.159464e-04 4.609915e-04
N -1.562581e+00 -9.204280e-01 1.787294e+00 -4.086161e-04 6.693372e-04 1.557188e-04
N -1.599004e+00 -8.951859e-01 6.859224e+00 1.282306e-04 -1.133382e-04 -1.834391e-03
N -1.648930e+00 -9.754920e-01 -3.295649e+00 -4.636894e-04 -2.478469e-04 -5.687991e-05
