108
Energy=-5.739908e+05 Lattice="9.412531e+00 0.000000e+00 0.000000e+00 -4.706446e+00 8.151858e+00 0.000000e+00 1.059169e-04 -8.427318e-05 1.509600e+01" Stress="6.596982e-05 -7.233490e-06 -5.873449e-06 -7.670917e-06 7.519126e-05 -6.447637e-06 -5.186382e-06 -9.363525e-06 3.945097e-04" Properties=species:S:1:pos:R:3:forces:R:3 Config_type=AlGaN_super3_3_0_25.xyz
Al 1.545364e+00 8.668691e-01 2.365446e+00 -1.138081e-05 -4.554561e-06 -5.737332e-05
Al 1.545540e+00 8.667746e-01 7.397151e+00 -2.099475e-06 -3.760560e-06 1.416442e-05
Al 1.547815e+00 8.673110e-01 -2.667512e+00 -1.641698e-06 -3.889404e-06 2.502345e-05
Al -2.188887e-02 3.583343e+00 2.365888e+00 -1.334175e-05 -7.236915e-06 -5.766655e-05
Al -2.253367e-02 3.583358e+00 7.397474e+00 -1.045898e-05 -7.902770e-06 1.985874e-05
Al -2.313024e-02 3.585043e+00 -2.667537e+00 -1.634730e-05 1.378995e-06 3.820468e-05
Al 3.109161e+00 -1.853149e+00 2.380214e+00 4.021994e-05 3.874763e-05 -4.534010e-05
Al 3.114804e+00 -1.850909e+00 7.396314e+00 -1.116347e-05 1.850747e-06 9.655009e-06
Al 3.110112e+00 -1.854263e+00 -2.677822e+00 -9.714432e-06 -4.228940e-07 5.272522e-05
Al -4.728460e+00 8.735466e-01 2.379515e+00 3.996943e-06 6.333900e-05 7.100514e-06
Al -4.728572e+00 8.670355e-01 7.396073e+00 1.460290e-06 3.617729e-06 -5.196176e-06
Al -4.729976e+00 8.736091e-01 -2.677969e+00 6.675847e-06 -9.267231e-06 9.450106e-05
Al -6.297556e+00 3.584959e+00 2.364913e+00 -7.929278e-06 -1.008627e-05 -6.484722e-05
Al -6.301741e+00 3.581851e+00 7.386640e+00 -6.512800e-07 -1.341550e-06 9.290126e-06
Al -6.305406e+00 3.578525e+00 -2.652766e+00 2.474564e-05 1.557282e-05 3.863478e-05
Al -3.158934e+00 -1.856525e+00 2.369790e+00 4.365508e-05 -2.256718e-05 -2.736704e-05
Al -3.166799e+00 -1.855047e+00 7.410528e+00 3.063196e-05 2.706035e-05 1.725479e-05
Al -3.154626e+00 -1.853437e+00 -2.678608e+00 -5.878142e-06 4.701297e-06 7.935398e-05
Al -1.591075e+00 8.728296e-01 2.355185e+00 8.378139e-06 -1.125076e-05 -6.483830e-05
Al -1.591008e+00 8.749474e-01 7.411553e+00 1.642831e-05 8.801006e-05 5.009235e-05
Al -1.591841e+00 8.666467e-01 -2.668274e+00 7.458150e-06 -9.216323e-06 2.386912e-05
Al -3.160997e+00 3.584039e+00 2.365259e+00 -5.933242e-06 -1.927636e-05 -6.658825e-05
Al -3.155719e+00 3.581608e+00 7.386890e+00 -7.586105e-06 -6.344822e-06 4.251746e-06
Al -3.151666e+00 3.580204e+00 -2.652751e+00 8.343579e-06 -1.406015e-06 4.663975e-05
Al -1.758723e-02 -1.853346e+00 2.354665e+00 -1.338903e-05 5.517927e-07 -5.959783e-05
Al -1.543828e-02 -1.849883e+00 7.401382e+00 2.284100e-05 -5.912962e-06 2.350694e-05
Al -2.247610e-02 -1.841234e+00 -2.653410e+00 5.534684e-06 -1.680191e-05 3.918125e-05
Al -1.859791e-02 1.779613e+00 4.882291e+00 -1.695404e-05 -1.162781e-05 2.745354e-05
Al -2.117617e-02 1.773696e+00 -5.179293e+00 -1.363015e-05 8.544574e-06 1.279677e-05
Al -2.115537e-02 1.773336e+00 -1.557487e-01 -1.283416e-05 1.393334e-05 8.604913e-05
Al 3.116066e+00 -3.663106e+00 4.880811e+00 -9.916567e-06 4.099035e-06 2.097048e-06
Al 3.123489e+00 -3.663814e+00 -5.185535e+00 -4.336280e-05 1.478927e-05 2.415748e-05
Al 3.112824e+00 -3.668599e+00 -1.456086e-01 -2.686296e-06 1.567853e-05 1.125400e-04
Al 1.554184e+00 -9.437811e-01 4.883270e+00 -5.646385e-05 2.353605e-05 4.473888e-06
Al 1.551113e+00 -9.363626e-01 -5.181195e+00 -2.653047e-05 -7.770665e-06 1.314351e-05
Al 1.541000e+00 -9.426883e-01 -1.494334e-01 -1.605362e-05 1.778152e-05 1.688842e-04
Al 3.113729e+00 1.772371e+00 4.880843e+00 -1.611670e-05 2.072079e-06 1.363566e-05
Al 3.109414e+00 1.766479e+00 -5.186040e+00 -2.158607e-06 -4.935443e-06 2.347098e-05
Al 3.110473e+00 1.777977e+00 -1.446565e-01 -1.646003e-05 -4.737555e-06 1.385815e-04
Al 6.247597e+00 -3.670134e+00 4.883408e+00 -1.447630e-05 -1.092914e-05 9.642045e-06
Al 6.244077e+00 -3.665591e+00 -5.181493e+00 -1.054074e-05 9.385298e-06 2.934812e-05
Al 6.255026e+00 -3.669938e+00 -1.491276e-01 -4.348888e-06 1.314683e-05 7.962429e-05
Al 4.675864e+00 -9.448322e-01 4.884433e+00 -1.416306e-05 3.407591e-06 -2.285600e-06
Al 4.682205e+00 -9.442259e-01 -5.181798e+00 -1.554352e-05 1.183954e-06 8.380638e-06
Ga 4.682551e+00 -9.440333e-01 -1.494528e-01 -1.060954e-05 1.178162e-04 2.569993e-04
Al -3.162871e+00 1.779569e+00 4.883082e+00 -5.417902e-06 -2.596331e-05 3.651973e-05
Al -3.155805e+00 1.767757e+00 -5.181449e+00 -1.055980e-05 -8.905419e-06 3.896407e-05
Al -3.157107e+00 1.778694e+00 -1.492909e-01 2.500736e-05 1.173324e-05 1.485965e-04
Al -1.819437e-02 -3.668845e+00 4.881097e+00 -2.025980e-05 -2.526421e-06 1.213959e-05
Ga -2.191594e-02 -3.664460e+00 -5.171976e+00 -1.443400e-05 -1.050729e-05 3.753090e-05
Al -2.253105e-02 -3.663440e+00 -1.552905e-01 -1.138309e-05 -5.506814e-06 6.916360e-05
Ga -1.590412e+00 -9.433421e-01 4.888400e+00 -4.073050e-05 9.309749e-05 2.328250e-05
Al -1.593611e+00 -9.369956e-01 -5.184691e+00 -3.190754e-05 1.534828e-05 9.963188e-06
Al -1.584458e+00 -9.433320e-01 -1.474457e-01 -1.490128e-05 7.190922e-06 1.175015e-04
N 1.544954e+00 8.667655e-01 4.284534e+00 1.393532e-05 -3.079449e-05 -4.863919e-05
N 1.544686e+00 8.673237e-01 -5.781382e+00 -1.227364e-05 -3.775609e-05 -7.521808e-06
N 1.548291e+00 8.670462e-01 -7.484927e-01 -1.018208e-05 -2.793835e-05 9.369411e-05
N -2.261540e-02 3.583299e+00 4.283095e+00 -1.048219e-05 -3.498091e-06 -4.205794e-05
N -2.224963e-02 3.582167e+00 -5.781376e+00 -3.076787e-06 -5.151468e-06 -1.440709e-05
N -2.336785e-02 3.585563e+00 -7.487132e-01 -2.060846e-05 -6.910350e-06 9.694198e-05
N 3.112736e+00 -1.852349e+00 4.293312e+00 -1.760402e-05 9.125580e-06 -4.824575e-05
N 3.114582e+00 -1.850870e+00 -5.778840e+00 -3.100728e-07 2.031597e-05 1.567385e-06
N 3.072681e+00 -1.876283e+00 -7.681901e-01 -9.148185e-05 -3.139305e-05 5.715497e-05
N -4.728339e+00 8.694566e-01 4.294436e+00 2.397600e-05 -6.132774e-06 -3.970632e-05
N -4.728590e+00 8.674952e-01 -5.778841e+00 1.959078e-05 -1.686995e-05 -8.212716e-07
N -4.730102e+00 9.169912e-01 -7.679526e-01 -2.991550e-05 -3.756540e-05 -4.350384e-05
N -6.297951e+00 3.584630e+00 4.285869e+00 2.651090e-05 -3.580740e-06 -4.191120e-05
N -6.338717e+00 3.560627e+00 -5.800107e+00 -6.272122e-05 -4.148776e-05 -4.017698e-05
N -6.301452e+00 3.580636e+00 -7.397669e-01 1.693802e-05 8.744883e-06 9.822862e-05
N -3.199401e+00 -1.876364e+00 4.275327e+00 -5.045811e-05 -3.427911e-05 -7.171730e-05
N -3.162946e+00 -1.853265e+00 -5.768921e+00 -7.034668e-07 1.497732e-05 -2.330994e-06
N -3.117425e+00 -1.875074e+00 -7.668453e-01 5.088033e-05 -6.224859e-05 -1.954229e-05
N -1.590809e+00 9.160812e-01 4.264591e+00 4.915287e-05 -1.206256e-05 -4.493003e-05
N -1.590000e+00 8.717394e-01 -5.771420e+00 5.536657e-05 -1.183693e-05 -1.496160e-05
N -1.592272e+00 8.666437e-01 -7.472818e-01 3.899510e-05 -1.830012e-05 8.138882e-05
N -3.159731e+00 3.584064e+00 4.284429e+00 2.965759e-05 -2.785242e-06 -4.570794e-05
N -3.119095e+00 3.560161e+00 -5.800043e+00 1.142223e-04 -4.146133e-05 -5.562252e-05
N -3.155554e+00 3.582567e+00 -7.399597e-01 3.349043e-05 -9.462071e-06 9.794653e-05
N 1.976237e-02 -1.874441e+00 4.265991e+00 1.204273e-04 -2.979277e-05 -8.203044e-05
N -1.844444e-02 -1.805712e+00 -5.789495e+00 3.425727e-05 1.222562e-04 -3.922480e-05
N -2.234554e-02 -1.846227e+00 -7.385524e-01 2.470425e-05 3.121187e-05 1.048676e-04
N -1.979636e-02 1.774179e+00 1.761747e+00 -1.643552e-05 -4.186429e-05 -1.449236e-04
N -2.311562e-02 1.772303e+00 6.801177e+00 -1.037225e-05 -1.264444e-05 -2.020003e-05
N -2.170419e-02 1.773170e+00 -3.260280e+00 -1.351814e-05 -2.545023e-05 -2.958051e-06
N 3.115810e+00 -3.660940e+00 1.773419e+00 -1.520713e-05 1.309648e-05 -1.534195e-04
N 3.117851e+00 -3.661360e+00 6.797150e+00 -1.820450e-05 8.612909e-06 -1.610160e-05
N 3.114950e+00 -3.665326e+00 -3.269380e+00 -5.047730e-06 -1.024948e-05 -2.310345e-05
N 1.550178e+00 -9.428393e-01 1.767043e+00 1.075818e-07 1.616216e-05 -2.350097e-04
N 1.547872e+00 -9.434190e-01 6.798685e+00 -1.147229e-05 2.400488e-05 -1.801380e-05
N 1.544303e+00 -9.426367e-01 -3.265786e+00 -3.623791e-05 2.942233e-05 -1.257454e-05
N 3.115297e+00 1.771900e+00 1.774109e+00 2.293369e-05 -3.002193e-05 -1.550064e-04
N 3.114287e+00 1.770014e+00 6.796768e+00 1.291373e-05 -2.622060e-05 -6.113476e-06
N 3.112042e+00 1.774821e+00 -3.269928e+00 1.455904e-05 -1.308907e-05 -1.647674e-05
N 6.251977e+00 -3.663780e+00 1.766901e+00 7.299530e-06 6.608850e-06 -1.029241e-04
N 6.249909e+00 -3.660942e+00 6.798719e+00 1.124517e-05 3.493254e-05 -1.721402e-05
N 6.252871e+00 -3.666217e+00 -3.266116e+00 9.608271e-06 -7.382722e-06 -1.070589e-05
N 4.681612e+00 -9.427643e-01 1.825652e+00 -1.169566e-04 -6.290756e-05 -2.970473e-04
N 4.684180e+00 -9.450978e-01 6.804395e+00 6.836339e-06 2.006211e-05 -6.378765e-06
N 4.683123e+00 -9.441204e-01 -3.262166e+00 -1.151576e-05 2.403679e-05 -9.160410e-06
N -3.163527e+00 1.773211e+00 1.766833e+00 2.770763e-05 -2.253147e-05 -1.462128e-04
N -3.158982e+00 1.769822e+00 6.798431e+00 2.800579e-05 -1.162757e-05 -6.066950e-06
N -3.158144e+00 1.775239e+00 -3.266056e+00 3.588458e-05 -5.630078e-06 -1.586486e-05
N -2.277990e-02 -3.664850e+00 1.763810e+00 3.508996e-05 1.219712e-05 -1.042951e-04
N -2.224660e-02 -3.661580e+00 6.800873e+00 2.361457e-05 2.143116e-05 -4.776621e-06
N -2.233087e-02 -3.662651e+00 -3.196631e+00 -3.778476e-05 -7.072351e-06 7.098344e-05
N -1.592487e+00 -9.444786e-01 1.772347e+00 4.735123e-05 2.826591e-05 -1.045317e-04
N -1.593123e+00 -9.430005e-01 6.861136e+00 -4.480907e-05 -1.100516e-04 -2.438079e-06
N -1.588183e+00 -9.430878e-01 -3.267303e+00 3.669825e-05 2.965927e-05 -1.534384e-05
