108
Energy=-1.535276e+06 Lattice="9.505004e+00 0.000000e+00 0.000000e+00 -4.760087e+00 8.227719e+00 0.000000e+00 1.790606e-03 -7.099824e-04 1.534692e+01" Stress="-9.860858e-03 2.505505e-04 1.852366e-05 2.674426e-04 -1.000148e-02 -1.771429e-04 9.435178e-06 -1.605227e-04 -8.753148e-03" Properties=species:S:1:pos:R:3:forces:R:3 Config_type=AlGaN_super3_24_0_7.xyz
Al 1.563322e+00 8.714004e-01 2.430250e+00 -3.121262e-03 -6.483168e-04 -1.496487e-04
Al 1.558928e+00 8.722672e-01 7.531617e+00 8.904895e-06 -2.821106e-03 -1.003693e-03
Al 1.560309e+00 8.715728e-01 -2.726090e+00 1.421226e-04 -1.576593e-03 1.121682e-03
Al -1.941338e-02 3.638749e+00 2.406206e+00 4.123753e-03 -1.003184e-02 7.140319e-04
Al -2.558282e-02 3.615225e+00 7.535198e+00 -8.177713e-04 4.392512e-04 3.681003e-04
Ga -1.641180e-02 3.610890e+00 -2.717743e+00 -4.301249e-04 2.516538e-04 1.024463e-03
Al 3.176466e+00 -1.885589e+00 2.444911e+00 -9.191801e-03 3.533458e-03 3.307900e-04
Ga 3.161893e+00 -1.870519e+00 7.508776e+00 -1.137004e-03 -4.696296e-04 3.510775e-04
Al 3.149737e+00 -1.863480e+00 -2.728792e+00 3.852051e-05 -1.427652e-04 -1.448059e-03
Ga -4.778524e+00 8.825275e-01 2.429799e+00 -1.341454e-03 -2.815495e-03 5.701692e-05
Al -4.769421e+00 8.736328e-01 7.525970e+00 7.418096e-05 -1.485330e-03 8.446951e-05
Ga -4.788579e+00 8.794313e-01 -2.715354e+00 -6.240425e-04 -2.325817e-03 6.002533e-04
Al -6.372148e+00 3.613033e+00 2.403372e+00 -2.687871e-03 6.742146e-04 1.344983e-03
Ga -6.365696e+00 3.618135e+00 7.540844e+00 -2.161261e-04 5.424251e-04 7.155019e-04
Al -6.358340e+00 3.622912e+00 -2.717925e+00 -1.198297e-03 2.744339e-04 -7.693412e-04
Ga -3.192480e+00 -1.872384e+00 2.399432e+00 2.388861e-03 -5.635392e-04 -5.454077e-04
Al -3.203306e+00 -1.872338e+00 7.532797e+00 2.838067e-04 1.936432e-04 -1.006717e-04
Ga -3.199099e+00 -1.881604e+00 -2.695176e+00 -9.608128e-05 5.381860e-04 3.460466e-05
Al -1.604708e+00 9.005783e-01 2.427047e+00 4.745563e-03 -2.680213e-03 -7.234449e-04
Ga -1.631494e+00 9.022450e-01 7.534420e+00 2.742394e-03 -1.584782e-03 -3.372568e-04
Ga -1.615409e+00 8.982715e-01 -2.719575e+00 3.184235e-03 -2.661485e-03 6.932742e-05
Al -3.224592e+00 3.605106e+00 2.427814e+00 1.323867e-02 1.363358e-02 -7.859807e-04
Al -3.195991e+00 3.608775e+00 7.518057e+00 1.369168e-03 1.022389e-03 -1.569421e-04
Al -3.216821e+00 3.625814e+00 -2.713677e+00 2.620065e-03 1.861472e-03 -4.456766e-04
Al -2.899134e-02 -1.880514e+00 2.402927e+00 5.299950e-03 5.294894e-03 -1.905528e-03
Ga -7.023551e-03 -1.866580e+00 7.535749e+00 2.087844e-03 8.550858e-04 4.592273e-04
Ga -3.124143e-03 -1.881508e+00 -2.703888e+00 1.114113e-03 1.045074e-03 -1.273089e-05
Ga -2.393549e-02 1.794885e+00 4.964991e+00 -9.678946e-04 -4.935016e-04 -8.476219e-04
Al -1.379036e-02 1.789560e+00 -5.283472e+00 -2.109422e-03 -9.336441e-04 5.928580e-04
Ga -1.779641e-02 1.781412e+00 -1.181430e-01 -1.134352e-03 5.559265e-04 1.790956e-03
Al 3.159314e+00 -3.701833e+00 4.947151e+00 -2.679392e-03 -2.109446e-03 3.353114e-03
Ga 3.145950e+00 -3.705469e+00 -5.275097e+00 -1.936480e-03 -3.564872e-04 6.721293e-04
Ga 3.145070e+00 -3.677864e+00 -1.468381e-01 1.539560e-03 -2.716976e-03 3.535308e-03
Al 1.589190e+00 -9.637304e-01 4.946884e+00 -3.912895e-03 1.203532e-03 -1.001517e-03
Al 1.577737e+00 -9.530499e-01 -5.259407e+00 -2.372180e-03 7.426093e-04 3.981920e-05
Ga 1.582980e+00 -9.662420e-01 -1.238221e-01 -2.869961e-03 2.620463e-03 -1.052341e-03
Ga 3.146236e+00 1.777323e+00 4.986470e+00 -2.829409e-04 4.586318e-04 9.396797e-04
Ga 3.137287e+00 1.785123e+00 -5.273645e+00 5.554711e-04 -8.886968e-05 7.071963e-04
Ga 3.131738e+00 1.803873e+00 -1.491336e-01 1.359202e-04 -7.321822e-04 3.848883e-04
Ga 6.298621e+00 -3.694135e+00 4.970546e+00 1.173938e-03 -1.802155e-04 6.535647e-04
Al 6.312888e+00 -3.692132e+00 -5.278301e+00 1.119242e-03 -9.565526e-04 1.541117e-03
Al 6.328546e+00 -3.691109e+00 -1.539956e-01 4.960583e-05 -1.413063e-03 7.209078e-03
Al 4.732440e+00 -9.590532e-01 4.988451e+00 1.050642e-03 3.231890e-03 -9.522665e-04
Al 4.737913e+00 -9.602558e-01 -5.285122e+00 -9.549452e-04 2.168918e-03 5.962375e-04
Al 4.730169e+00 -9.742128e-01 -1.570397e-01 5.299153e-04 3.640973e-03 6.872342e-03
Al -3.201908e+00 1.792684e+00 4.975970e+00 2.010953e-03 1.740772e-03 -2.042226e-04
Al -3.205627e+00 1.794577e+00 -5.261257e+00 -1.397922e-03 3.436765e-03 -4.419850e-03
Ga -3.201238e+00 1.799448e+00 -1.309292e-01 5.623907e-04 -6.870537e-04 -6.546341e-04
Ga -4.649153e-03 -3.695923e+00 4.948535e+00 -3.155268e-04 -1.330057e-04 1.478369e-03
Al -1.359023e-02 -3.701627e+00 -5.262306e+00 2.809514e-04 -7.382072e-04 7.086751e-04
Al -3.936472e-02 -3.695238e+00 -1.475589e-01 -5.376157e-05 -1.234702e-04 3.762962e-03
Ga -1.605483e+00 -9.490873e-01 4.968793e+00 5.271830e-05 1.901604e-03 -1.440529e-04
Ga -1.611702e+00 -9.614879e-01 -5.279789e+00 8.291968e-05 1.530880e-03 1.261347e-03
Al -1.610442e+00 -9.645718e-01 -1.429997e-01 1.485176e-04 3.019289e-03 5.831651e-03
N 1.565387e+00 8.408053e-01 4.335582e+00 -6.424067e-05 -5.662170e-03 -2.131871e-03
N 1.522279e+00 8.475628e-01 -5.901913e+00 -1.557558e-03 -2.932736e-03 -7.864060e-04
N 1.553215e+00 8.703004e-01 -8.118500e-01 4.300100e-04 -1.902076e-03 -3.820814e-03
N -5.167989e-02 3.634008e+00 4.301325e+00 -3.975769e-03 2.785191e-03 5.029710e-03
N 9.256787e-03 3.596284e+00 -5.892673e+00 1.583480e-03 -7.478775e-04 -1.313075e-03
N 1.080047e-02 3.633066e+00 -7.448647e-01 1.021614e-03 1.617657e-03 -1.307487e-03
N 3.171964e+00 -1.872875e+00 4.375861e+00 -2.344992e-03 -6.657099e-04 -1.299670e-03
N 3.149977e+00 -1.832266e+00 -5.866632e+00 5.719848e-05 2.514041e-03 1.190923e-03
N 3.186272e+00 -1.845839e+00 -8.184531e-01 1.510995e-03 8.426322e-04 -6.267126e-04
N -4.741485e+00 8.611462e-01 4.397035e+00 1.289721e-03 -6.168180e-03 1.478973e-03
N -4.742527e+00 8.559549e-01 -5.901151e+00 2.448245e-03 -3.047376e-03 1.172004e-03
N -4.780651e+00 8.376465e-01 -7.456561e-01 3.576185e-04 -4.788301e-03 1.260511e-03
N -6.369120e+00 3.614873e+00 4.314982e+00 1.794683e-04 1.924663e-04 -2.069294e-03
N -6.360191e+00 3.661505e+00 -5.844556e+00 -1.143672e-03 2.571984e-03 1.446735e-03
N -6.364305e+00 3.663895e+00 -7.913039e-01 -4.331066e-04 2.525880e-03 -9.125795e-04
N -3.222745e+00 -1.848490e+00 4.358923e+00 -2.836709e-03 2.057728e-03 1.962614e-03
N -3.228314e+00 -1.893190e+00 -5.901308e+00 -2.008035e-03 -5.852488e-04 -1.647070e-03
N -3.189255e+00 -1.872609e+00 -7.110708e-01 -6.946740e-04 7.915849e-04 1.939576e-03
N -1.653648e+00 9.066909e-01 4.336210e+00 -1.972211e-04 -1.346536e-03 2.725293e-05
N -1.624827e+00 9.279465e-01 -5.846360e+00 3.084387e-03 7.079206e-04 2.296920e-03
N -1.618357e+00 8.439084e-01 -7.510490e-01 1.477644e-03 -3.651160e-03 1.604005e-03
N -3.165467e+00 3.589228e+00 4.334617e+00 4.566726e-03 1.766453e-03 1.435427e-04
N -3.238728e+00 3.599624e+00 -5.915494e+00 -7.023281e-05 -2.817057e-03 1.888097e-03
N -3.245550e+00 3.643933e+00 -7.954273e-01 1.938710e-04 2.398039e-03 2.696776e-04
N 8.102093e-03 -1.848611e+00 4.311986e+00 5.390710e-03 2.270264e-03 4.865733e-06
N 2.150276e-02 -1.891300e+00 -5.840398e+00 3.492036e-03 2.272386e-04 1.268838e-03
N -5.479856e-02 -1.888774e+00 -7.238412e-01 -2.282196e-05 -9.324974e-04 1.578063e-03
N -5.933194e-03 1.804406e+00 1.860709e+00 -3.997297e-03 -4.455284e-03 9.929050e-04
N 1.481746e-02 1.812523e+00 6.939442e+00 4.763193e-04 -1.137699e-04 9.093455e-04
N 1.669790e-02 1.769100e+00 -3.371204e+00 1.549024e-04 -1.918532e-03 -1.311915e-03
N 3.202105e+00 -3.689534e+00 1.852090e+00 -2.480367e-02 -4.846991e-04 -2.717461e-03
N 3.155480e+00 -3.746031e+00 6.898737e+00 -1.136313e-03 -2.831569e-03 -4.804117e-03
N 3.115570e+00 -3.681343e+00 -3.299310e+00 -4.147679e-03 -1.480810e-04 2.452562e-03
N 1.583127e+00 -9.527320e-01 1.847177e+00 -6.689343e-04 -6.280473e-03 5.211859e-03
N 1.575372e+00 -9.193007e-01 6.861795e+00 -2.183775e-03 4.222855e-03 -1.498251e-03
N 1.609133e+00 -9.381681e-01 -3.343701e+00 -5.474862e-04 2.645646e-03 5.181431e-04
N 3.104067e+00 1.806110e+00 1.829086e+00 -1.163384e-04 1.469896e-03 -2.968313e-04
N 3.141303e+00 1.749111e+00 6.963025e+00 4.720931e-04 -2.552530e-03 2.120209e-04
N 3.104144e+00 1.813550e+00 -3.298908e+00 -1.655193e-03 7.377851e-04 1.516359e-03
N 6.315625e+00 -3.745067e+00 1.790312e+00 5.138538e-03 1.835500e-03 -8.927598e-03
N 6.277426e+00 -3.678761e+00 6.942926e+00 -9.220971e-04 9.689231e-04 2.740928e-04
N 6.351976e+00 -3.712989e+00 -3.362228e+00 2.647877e-03 -1.429671e-03 -1.777762e-03
N 4.688184e+00 -9.751098e-01 1.785318e+00 6.589807e-04 1.930230e-03 -1.030201e-02
N 4.774524e+00 -9.370394e-01 6.900758e+00 1.582579e-03 3.419463e-03 -1.426160e-03
N 4.705805e+00 -9.783598e-01 -3.369798e+00 -2.037204e-03 7.025018e-04 -9.701590e-04
N -3.162216e+00 1.831859e+00 1.840544e+00 1.888123e-03 -5.968555e-03 -2.742445e-03
N -3.239666e+00 1.816251e+00 6.891559e+00 -1.171213e-03 6.471111e-04 -2.198849e-03
N -3.206583e+00 1.840305e+00 -3.354506e+00 5.515797e-04 1.901120e-03 -1.469073e-03
N -4.089593e-02 -3.710237e+00 1.804669e+00 5.543269e-03 1.444286e-03 -4.985851e-03
N 1.311292e-02 -3.712254e+00 6.913448e+00 2.292657e-03 -1.986640e-03 -2.206242e-04
N -2.154362e-02 -3.737309e+00 -3.344507e+00 5.206442e-04 -2.264039e-03 -7.168995e-04
N -1.571520e+00 -9.226368e-01 1.802675e+00 1.474734e-03 2.384209e-03 -6.864036e-03
N -1.637121e+00 -9.748077e-01 6.942643e+00 -2.526811e-03 8.692724e-04 3.391119e-04
N -1.607148e+00 -9.617107e-01 -3.319870e+00 -1.283700e-04 2.290462e-03 6.103751e-04
