108
Energy=-1031745.356930 Lattice="9.472068 0.000000 0.000000 -4.742786 8.196914 0.000000 -0.002260 -0.006723 15.267397" Stress="0.000013 -0.000003 -0.000000 -0.000003 0.000006 -0.000002 -0.000000 -0.000002 0.000025" Properties=species:S:1:pos:R:3:forces:R:3
Al 1.553201 0.873565 2.399524 -0.000246 0.000508 -0.000003
Al 1.546607 0.871077 7.474544 0.000066 -0.000019 0.000297
Al 1.538162 0.867358 -2.694279 0.000001 -0.000203 0.000213
Al -0.029981 3.583583 2.437044 -0.000126 -0.000298 0.000450
Al -0.019587 3.593747 7.475843 -0.000138 0.000215 0.000048
Al -0.026390 3.591452 -2.725268 -0.000539 0.000407 -0.001106
Al 3.129078 -1.863192 2.429875 -0.001232 -0.000526 0.000396
Al 3.146369 -1.864090 7.485684 -0.000161 0.000037 0.000007
Al 3.133201 -1.856910 -2.724688 0.000129 0.001147 -0.000302
Al -4.765835 0.884030 2.423955 -0.000460 -0.000855 -0.000351
Al -4.762829 0.861329 7.464684 0.000199 -0.000026 0.000085
Ga -4.757465 0.869868 -2.694493 -0.000011 -0.000331 -0.000146
Al -6.333970 3.589139 2.427390 0.001003 -0.000638 0.000196
Al -6.349000 3.602916 7.462535 -0.000103 0.000214 -0.000030
Ga -6.349297 3.605166 -2.692008 -0.000079 0.000062 0.000110
Ga -3.177743 -1.863008 2.457222 -0.000129 0.000362 -0.000005
Al -3.176495 -1.863991 7.469176 -0.000136 0.000018 -0.000390
Ga -3.185607 -1.859457 -2.732495 -0.000451 0.000059 -0.000147
Al -1.595871 0.884240 2.425192 0.000070 0.001070 0.000340
Al -1.598939 0.866160 7.472828 0.000339 -0.000171 0.000108
Al -1.590898 0.889747 -2.711108 -0.000253 0.000077 -0.000657
Al -3.186541 3.600302 2.423866 0.000177 -0.000069 0.000055
Ga -3.183097 3.602816 7.475804 0.000283 -0.000033 0.000047
Ga -3.171362 3.604766 -2.703714 0.000020 -0.000028 -0.000076
Al -0.007814 -1.865525 2.412755 -0.001150 0.000406 -0.000045
Al -0.028662 -1.857338 7.489097 0.000054 -0.000108 0.000050
Ga -0.007017 -1.843154 -2.707887 0.000368 -0.000136 -0.000009
Al -0.028841 1.782632 4.949776 -0.000173 0.000395 -0.000018
Al -0.032559 1.781966 -5.258160 -0.000112 0.000104 0.000274
Al -0.025755 1.776651 -0.145899 -0.000004 -0.000050 0.000318
Al 3.146755 -3.693449 4.942697 0.000067 -0.000045 -0.000416
Al 3.150798 -3.675790 -5.253602 -0.000194 -0.000062 -0.000217
Ga 3.134778 -3.686937 -0.133604 -0.000468 0.000138 0.001178
Ga 1.559570 -0.955428 4.952226 -0.000513 0.000310 0.000232
Al 1.560111 -0.950619 -5.269753 -0.000226 0.000163 0.000055
Al 1.559938 -0.941857 -0.130394 -0.000072 0.000073 0.000262
Al 3.133394 1.784585 4.947481 0.000148 0.000007 -0.000103
Ga 3.127913 1.784061 -5.269124 0.000122 -0.000070 0.000513
Al 3.124351 1.780125 -0.123762 0.000171 -0.000148 0.000610
Al 6.294479 -3.696785 4.962628 -0.000157 -0.000147 -0.000025
Al 6.290259 -3.676652 -5.283617 0.000031 -0.000123 0.000088
Ga 6.293139 -3.705290 -0.118904 0.000669 0.000174 0.000343
Al 4.715977 -0.948493 4.964881 -0.000189 0.000017 -0.000202
Al 4.717629 -0.953758 -5.279891 -0.000137 0.000008 0.000176
Ga 4.695513 -0.937386 -0.124160 -0.000045 0.000217 0.000698
Al -3.183835 1.777084 4.937354 0.000238 -0.000057 -0.000127
Al -3.169581 1.777847 -5.267091 0.000174 0.000230 -0.000382
Al -3.182115 1.789064 -0.115772 0.000331 -0.000229 0.000616
Al -0.027765 -3.687815 4.939590 0.000084 -0.000070 -0.000180
Al -0.020682 -3.668345 -5.274203 0.000131 -0.000141 -0.000120
Al -0.017066 -3.687371 -0.106692 0.000048 -0.000369 0.000691
Al -1.597799 -0.946496 4.963095 -0.000020 0.000066 -0.000064
Al -1.597587 -0.937536 -5.277666 -0.000089 -0.000005 0.000087
Ga -1.585280 -0.928136 -0.130433 -0.000346 0.000131 0.000775
N 1.551918 0.916037 4.319860 0.000155 -0.000023 -0.000168
N 1.507927 0.853675 -5.885181 0.000029 0.000037 -0.000256
N 1.549134 0.869674 -0.749835 0.000064 -0.000080 -0.000032
N -0.023679 3.593217 4.352548 0.000023 -0.000000 -0.000286
N -0.027356 3.599885 -5.869279 -0.000158 0.000056 -0.000031
N -0.026683 3.556293 -0.807165 -0.000124 -0.000284 0.000823
N 3.178993 -1.887023 4.336344 -0.000278 0.000324 -0.000037
N 3.139107 -1.862845 -5.866576 -0.000078 0.000189 -0.000058
N 3.093407 -1.838157 -0.802762 -0.000458 0.000101 0.000245
N -4.765214 0.870251 4.346784 0.000179 0.000055 -0.000098
N -4.718567 0.854649 -5.889811 0.000129 -0.000073 -0.000123
N -4.759337 0.924571 -0.713867 0.000232 -0.000180 0.000434
N -6.341106 3.597160 4.348040 -0.000057 0.000094 0.000017
N -6.338508 3.653284 -5.894700 -0.000114 0.000053 -0.000144
N -6.298000 3.583316 -0.712233 -0.000048 0.000102 0.000180
N -3.176537 -1.864693 4.430312 -0.000043 0.000148 -0.000085
N -3.173871 -1.856289 -5.872846 -0.000176 0.000085 0.000035
N -3.179677 -1.861166 -0.757303 0.000046 -0.000014 0.000453
N -1.601748 0.872309 4.345242 0.000396 -0.000204 0.000024
N -1.600032 0.880238 -5.878111 0.000343 -0.000058 0.000081
N -1.610084 0.928813 -0.782938 0.000314 -0.000067 0.000462
N -3.185687 3.602632 4.348904 -0.000094 -0.000227 0.000026
N -3.177957 3.609913 -5.813234 0.000018 -0.000271 0.000307
N -3.227928 3.582321 -0.717337 0.000246 -0.000108 0.000054
N -0.060815 -1.883995 4.324889 0.000069 -0.000112 -0.000257
N -0.020457 -1.853880 -5.862038 0.000082 -0.000001 0.000015
N 0.020952 -1.885477 -0.719458 0.000477 -0.000175 0.000299
N -0.027419 1.781025 1.788462 0.000073 0.000176 -0.000526
N -0.026122 1.777483 6.866922 -0.000107 -0.000023 -0.000191
N -0.021056 1.778887 -3.326136 -0.000087 0.000006 0.000129
N 3.143612 -3.687290 1.862263 -0.000283 0.000311 -0.001581
N 3.182043 -3.664101 6.855534 -0.000074 0.000062 -0.000054
N 3.181492 -3.654530 -3.333185 0.000475 -0.001161 0.000402
N 1.561717 -0.951105 1.803109 0.000642 -0.000487 -0.000333
N 1.559965 -0.958055 6.928762 -0.000356 0.000216 -0.000103
N 1.600727 -0.919359 -3.346594 -0.000349 0.000132 -0.000002
N 3.131113 1.779436 1.804511 0.000105 -0.000068 -0.000388
N 3.129063 1.777260 6.872549 0.000154 -0.000179 -0.000213
N 3.087521 1.758417 -3.297750 0.000162 -0.000043 0.000039
N 6.294324 -3.735401 1.858855 -0.001133 0.000326 -0.000833
N 6.290854 -3.690377 6.878910 0.000165 -0.000152 0.000061
N 6.257223 -3.708825 -3.368033 0.000009 -0.000097 -0.000128
N 4.670900 -0.933947 1.852548 0.001129 0.001994 -0.001099
N 4.711447 -0.953876 6.879805 -0.000167 0.000096 0.000097
N 4.672995 -0.965310 -3.366812 -0.000142 -0.000081 0.000027
N -3.178750 1.779862 1.816824 -0.000025 -0.000232 -0.000445
N -3.181919 1.733312 6.848759 0.000167 -0.000301 -0.000164
N -3.142425 1.760103 -3.357980 0.000531 -0.000376 0.000465
N -0.020228 -3.687237 1.818564 0.000081 0.000305 -0.000264
N -0.060243 -3.657143 6.852535 -0.000018 -0.000032 -0.000165
N -0.022484 -3.677892 -3.371223 -0.000115 -0.000124 0.000124
N -1.563141 -0.919323 1.847183 0.000980 -0.001485 -0.000825
N -1.594224 -0.949628 6.882406 0.000018 0.000095 -0.000031
N -1.595545 -0.894356 -3.356647 0.000025 0.000100 -0.000075
