108
Energy=-1.489500e+06 Lattice="9.521840e+00 0.000000e+00 0.000000e+00 -4.764661e+00 8.243253e+00 0.000000e+00 -1.876634e-02 4.144615e-03 1.536857e+01" Stress="-5.664534e-04 -1.535115e-04 -7.251488e-04 -1.495528e-04 -8.245337e-04 2.162029e-04 -7.310314e-04 2.201070e-04 -1.099858e-03" Properties=species:S:1:pos:R:3:forces:R:3 Config_type=AlGaN_super3_23_0_15.xyz
Al 1.569545e+00 8.801096e-01 2.402934e+00 -2.707433e-03 3.428791e-05 3.732022e-03
Al 1.550695e+00 8.966523e-01 7.526490e+00 8.240938e-04 -3.270625e-03 -6.910401e-03
Al 1.564486e+00 8.931976e-01 -2.690237e+00 -1.041514e-03 5.620758e-04 -9.532914e-04
Al -1.575055e-02 3.616342e+00 2.415381e+00 3.169094e-04 8.284106e-04 -1.607144e-04
Al -2.346157e-02 3.621907e+00 7.528608e+00 4.738634e-04 -7.977098e-04 -1.240637e-03
Al 9.773126e-03 3.616105e+00 -2.704957e+00 1.193257e-03 -3.914179e-03 -2.020369e-03
Al 3.138675e+00 -1.862679e+00 2.412138e+00 1.144114e-03 -8.871785e-04 4.500469e-03
Al 3.142930e+00 -1.869229e+00 7.524424e+00 -4.243814e-04 7.238655e-04 -2.752388e-04
Ga 3.174980e+00 -1.859870e+00 -2.702000e+00 -1.287566e-04 4.023053e-04 -2.041693e-04
Al -4.797704e+00 8.812462e-01 2.435118e+00 2.703581e-03 2.822575e-03 -1.942015e-03
Ga -4.806679e+00 8.852105e-01 7.528427e+00 1.618372e-04 4.749945e-04 -4.331525e-05
Al -4.779430e+00 8.742455e-01 -2.721763e+00 -2.918227e-04 4.162040e-04 6.953704e-04
Al -6.401574e+00 3.602673e+00 2.426132e+00 1.020004e-05 1.512145e-03 3.218335e-04
Al -6.413583e+00 3.615349e+00 7.532394e+00 9.945373e-04 -1.204683e-03 -3.242405e-03
Al -6.392742e+00 3.620662e+00 -2.703883e+00 -3.766499e-04 -9.125764e-05 2.869929e-04
Ga -3.192898e+00 -1.886966e+00 2.419379e+00 1.344088e-04 -2.863600e-04 5.571284e-04
Ga -3.210991e+00 -1.886819e+00 7.528193e+00 2.615092e-04 4.449207e-04 2.819282e-04
Al -3.199469e+00 -1.886867e+00 -2.708524e+00 5.596756e-05 -9.594148e-05 2.265590e-04
Al -1.613328e+00 8.793862e-01 2.395145e+00 4.223374e-04 -1.109265e-04 2.815694e-04
Al -1.614842e+00 8.922498e-01 7.540148e+00 1.172045e-03 1.037156e-04 -2.741521e-03
Ga -1.605148e+00 8.924502e-01 -2.694980e+00 1.941759e-03 2.947042e-04 7.033623e-05
Ga -3.184356e+00 3.605398e+00 2.436356e+00 -8.732811e-05 4.073979e-04 -4.797886e-04
Ga -3.191774e+00 3.619221e+00 7.517146e+00 -4.941943e-04 -2.128094e-04 -4.578422e-04
Ga -3.198484e+00 3.606270e+00 -2.698082e+00 -3.301236e-05 -3.269301e-04 -1.588147e-04
Ga -1.854273e-02 -1.845701e+00 2.423368e+00 -2.714547e-04 -2.315943e-04 7.077212e-04
Ga -2.681931e-02 -1.848512e+00 7.509172e+00 7.868923e-04 -5.040975e-05 -4.295064e-04
Ga -2.147257e-02 -1.863939e+00 -2.680440e+00 4.344537e-04 -4.805440e-05 -5.984363e-06
Ga -3.279280e-02 1.790333e+00 4.956125e+00 8.729577e-04 -1.102843e-04 7.185592e-04
Al -2.475012e-02 1.796509e+00 -5.309729e+00 3.629966e-03 2.372862e-03 6.999106e-03
Al -2.807638e-02 1.787312e+00 -1.311841e-01 2.775293e-03 -1.893555e-04 9.951947e-04
Al 3.160899e+00 -3.698644e+00 4.979756e+00 5.257121e-04 1.569546e-03 -2.546707e-03
Ga 3.187866e+00 -3.712824e+00 -5.279178e+00 -4.163536e-04 2.305897e-04 3.027725e-04
Ga 3.176834e+00 -3.718170e+00 -1.376663e-01 -2.503030e-04 2.762047e-04 2.252218e-04
Al 1.570646e+00 -9.476051e-01 4.971784e+00 2.639106e-04 1.473353e-03 2.340640e-04
Ga 1.585004e+00 -9.364669e-01 -5.280489e+00 -7.050234e-04 -3.628709e-04 5.515009e-04
Al 1.561541e+00 -9.387297e-01 -1.296140e-01 -6.714225e-04 4.492080e-04 -5.602878e-04
Al 3.150727e+00 1.791830e+00 4.950869e+00 -7.573899e-03 1.769769e-03 3.955546e-03
Ga 3.143371e+00 1.795613e+00 -5.260512e+00 3.744189e-04 -8.464976e-05 1.111047e-03
Ga 3.142837e+00 1.790275e+00 -1.467804e-01 2.611936e-04 9.880127e-05 -3.731925e-04
Al 6.315897e+00 -3.713058e+00 4.978465e+00 6.464882e-04 -2.246112e-03 -1.044292e-03
Al 6.321189e+00 -3.710497e+00 -5.263107e+00 3.971627e-04 -1.730888e-04 2.967210e-04
Al 6.327285e+00 -3.711088e+00 -1.566797e-01 4.745660e-04 -4.891020e-04 1.284571e-03
Ga 4.724191e+00 -9.525077e-01 4.956160e+00 -8.256962e-04 -8.393510e-04 4.752214e-04
Al 4.753640e+00 -9.566809e-01 -5.267017e+00 -1.541446e-04 -1.792491e-04 3.207898e-04
Ga 4.755958e+00 -9.506013e-01 -1.317133e-01 2.264915e-05 5.257910e-04 1.147707e-03
Al -3.198634e+00 1.786382e+00 4.961468e+00 1.398202e-03 -1.469146e-03 1.623695e-03
Al -3.185525e+00 1.779403e+00 -5.274807e+00 -6.534479e-04 3.290375e-04 8.431489e-04
Al -3.189907e+00 1.773698e+00 -1.285573e-01 -4.682655e-04 -2.311334e-04 5.971796e-04
Ga -4.546390e-02 -3.707314e+00 4.968107e+00 -1.951694e-04 -5.597932e-05 -4.835371e-05
Ga -3.071015e-02 -3.714680e+00 -5.274828e+00 3.615369e-04 4.658062e-04 3.569154e-04
Ga -3.298602e-02 -3.702554e+00 -1.242149e-01 -3.830547e-04 -1.382020e-05 7.565640e-04
Al -1.620552e+00 -9.336260e-01 4.974727e+00 3.027609e-04 2.002273e-04 4.224125e-04
Ga -1.621786e+00 -9.390398e-01 -5.266620e+00 -1.180825e-04 -7.690224e-04 1.150301e-03
Al -1.610132e+00 -9.469255e-01 -1.488091e-01 -4.290107e-04 -1.094599e-04 1.693224e-04
N 1.594327e+00 8.530206e-01 4.329156e+00 1.864075e-03 -3.361480e-04 -8.058642e-04
N 1.530699e+00 9.044913e-01 -5.943956e+00 -4.889835e-05 5.069189e-05 1.839408e-03
N 1.517777e+00 8.548388e-01 -7.721496e-01 -8.072202e-04 4.020813e-04 1.257585e-03
N -2.752430e-02 3.669765e+00 4.331337e+00 -4.949629e-04 7.139930e-04 1.193598e-03
N 3.174891e-02 3.600609e+00 -5.920638e+00 -5.988869e-04 -1.819435e-04 -4.247193e-04
N 2.733035e-02 3.586265e+00 -7.843868e-01 -5.567730e-04 6.651189e-04 1.636885e-04
N 3.097959e+00 -1.895303e+00 4.338503e+00 1.755595e-05 -8.255461e-04 -2.304708e-03
N 3.201651e+00 -1.849187e+00 -5.923513e+00 3.870971e-04 -7.591296e-05 -1.083153e-04
N 3.118035e+00 -1.847626e+00 -7.352362e-01 -7.495250e-05 1.709559e-04 4.225701e-04
N -4.792810e+00 9.363087e-01 4.351299e+00 2.809430e-03 -1.989985e-03 -2.472631e-03
N -4.744987e+00 8.556539e-01 -5.855660e+00 2.989294e-04 1.454376e-04 -4.028751e-05
N -4.740515e+00 8.983244e-01 -8.000626e-01 4.369927e-04 1.255197e-04 -8.743639e-04
N -6.432044e+00 3.597102e+00 4.337032e+00 2.629312e-05 6.907333e-04 -6.897601e-04
N -6.417791e+00 3.643910e+00 -5.927545e+00 -7.382196e-04 5.061518e-05 1.482302e-03
N -6.412877e+00 3.645362e+00 -7.963387e-01 -7.059245e-05 1.357393e-04 -7.902498e-05
N -3.155831e+00 -1.901199e+00 4.398439e+00 2.389673e-04 6.868102e-04 -1.622482e-04
N -3.230818e+00 -1.901720e+00 -5.856836e+00 1.441441e-04 -2.574707e-04 -1.344449e-04
N -3.156015e+00 -1.901402e+00 -7.768541e-01 -7.388482e-05 1.263078e-04 -1.315330e-04
N -1.658453e+00 8.577216e-01 4.313471e+00 -4.829907e-04 -5.724749e-04 -2.127294e-04
N -1.603303e+00 9.289520e-01 -5.907022e+00 -1.975085e-03 -1.233563e-03 -1.657713e-03
N -1.605080e+00 8.851309e-01 -7.057385e-01 -1.081266e-03 -5.424036e-04 -7.498547e-04
N -3.159814e+00 3.601214e+00 4.412201e+00 3.679454e-04 5.143405e-04 -1.239602e-04
N -3.188215e+00 3.577527e+00 -5.874760e+00 3.322449e-04 -3.569884e-04 -1.479244e-05
N -3.195949e+00 3.572101e+00 -7.248365e-01 -7.000304e-05 -2.636473e-04 1.216237e-05
N -2.947001e-02 -1.812388e+00 4.405105e+00 2.474625e-05 -6.799750e-05 -4.499269e-04
N -1.752292e-02 -1.862995e+00 -5.891671e+00 1.164398e-05 -5.854863e-05 -7.136122e-05
N -1.620403e-02 -1.823077e+00 -7.041633e-01 4.035882e-05 -2.595831e-04 2.807728e-06
N -2.347687e-02 1.793299e+00 1.805529e+00 2.402112e-04 -1.208931e-04 -6.679977e-04
N -3.300418e-02 1.794639e+00 6.945550e+00 -2.344634e-03 5.299669e-04 2.330887e-03
N 2.580965e-02 1.808508e+00 -3.359367e+00 -1.101082e-03 2.221442e-03 -1.880444e-03
N 3.198592e+00 -3.676927e+00 1.834399e+00 2.303294e-04 -1.546561e-03 6.215815e-04
N 3.195824e+00 -3.675745e+00 6.901356e+00 1.817773e-04 -2.241505e-05 6.748829e-04
N 3.208646e+00 -3.732872e+00 -3.299791e+00 -6.248013e-04 8.277787e-04 1.561649e-04
N 1.607178e+00 -9.246683e-01 1.781840e+00 -5.941331e-04 -1.063840e-04 -5.866761e-04
N 1.606781e+00 -9.251847e-01 6.890870e+00 -1.069362e-04 1.658729e-03 1.642829e-03
N 1.574417e+00 -9.027914e-01 -3.308035e+00 -1.426775e-04 -1.791506e-04 -7.600277e-04
N 3.143227e+00 1.790628e+00 1.842285e+00 3.113086e-03 -8.148137e-04 -9.806476e-04
N 3.095761e+00 1.817304e+00 6.885324e+00 1.256624e-03 1.009223e-03 -1.465918e-04
N 3.147032e+00 1.792233e+00 -3.266997e+00 1.090784e-03 -2.642461e-04 -2.307162e-04
N 6.324331e+00 -3.756145e+00 1.767056e+00 -2.698145e-04 7.046178e-07 -1.174288e-03
N 6.313626e+00 -3.753499e+00 6.889812e+00 -3.168385e-04 4.455001e-04 -2.994804e-04
N 6.329628e+00 -3.705150e+00 -3.331502e+00 6.566369e-05 1.582842e-04 -8.648049e-04
N 4.701019e+00 -9.320339e-01 1.858111e+00 -2.328292e-04 9.461496e-04 -1.822358e-03
N 4.689615e+00 -9.733767e-01 6.922732e+00 -1.741845e-04 -2.468554e-04 -3.506939e-04
N 4.788817e+00 -9.336251e-01 -3.341419e+00 -8.759971e-05 -2.584842e-04 -1.730743e-04
N -3.198949e+00 1.742904e+00 1.784581e+00 -4.015012e-03 -1.565752e-03 9.836888e-04
N -3.165831e+00 1.761743e+00 6.874564e+00 4.276080e-06 1.119311e-04 -4.826433e-04
N -3.228791e+00 1.765766e+00 -3.367176e+00 -3.519175e-04 -2.101710e-04 -3.159294e-04
N -6.630978e-02 -3.730354e+00 1.854645e+00 -3.292589e-04 -6.240506e-05 -1.089398e-03
N -7.909454e-02 -3.728493e+00 6.938105e+00 -5.188161e-04 -3.803251e-04 5.546535e-04
N -6.177886e-02 -3.725687e+00 -3.297646e+00 -1.456483e-04 -1.728533e-04 -8.014928e-05
N -1.615822e+00 -9.130813e-01 1.759558e+00 -8.984739e-05 2.769079e-04 -3.321148e-04
N -1.626703e+00 -8.949272e-01 6.889051e+00 -5.169993e-04 3.762586e-04 2.223324e-04
N -1.645897e+00 -9.720178e-01 -3.293891e+00 -7.845752e-04 -5.212861e-06 -1.755115e-04
