108
Energy=-802868.067211 Lattice="9.440907 0.000000 0.000000 -4.722500 8.173035 0.000000 0.001098 0.011292 15.172098" Stress="0.000002 -0.000001 0.000001 -0.000001 -0.000001 0.000003 0.000001 0.000003 0.000002" Properties=species:S:1:pos:R:3:forces:R:3
Al 1.543016 0.874931 2.410012 -0.000102 0.000046 0.000116
Al 1.551320 0.876364 7.434571 0.000112 -0.000068 -0.000087
Al 1.553245 0.878362 -2.708271 -0.000006 -0.000104 0.000109
Al -0.011155 3.589271 2.373242 -0.000032 0.000177 0.000005
Al -0.015434 3.593866 7.453848 0.000022 -0.000053 -0.000027
Al -0.026521 3.583612 -2.692221 -0.000090 0.000001 -0.000116
Al 3.134792 -1.845855 2.391803 0.000043 0.000004 -0.000043
Al 3.128773 -1.843262 7.449678 0.000013 -0.000017 -0.000078
Al 3.130950 -1.859373 -2.701147 -0.000063 -0.000061 -0.000054
Al -4.741250 0.859941 2.399128 0.000149 0.000169 -0.000288
Al -4.742883 0.873847 7.439616 0.000128 0.000031 -0.000062
Al -4.745869 0.871320 -2.702263 0.000002 0.000041 0.000040
Al -6.333287 3.597061 2.417144 -0.000090 0.000189 0.000012
Al -6.318412 3.597886 7.435647 -0.000007 0.000007 -0.000116
Al -6.323083 3.577358 -2.710456 0.000036 -0.000026 0.000138
Al -3.176750 -1.858078 2.371883 -0.000072 -0.000010 0.000027
Al -3.175519 -1.854402 7.448280 -0.000026 -0.000021 -0.000075
Ga -3.175784 -1.857499 -2.679311 -0.000134 0.000080 0.000010
Al -1.594365 0.873460 2.378486 0.000139 0.000134 -0.000291
Al -1.594646 0.885775 7.449853 0.000135 -0.000126 -0.000029
Al -1.595031 0.879741 -2.689922 -0.000166 -0.000175 -0.000011
Ga -3.169488 3.584753 2.390302 0.000176 0.000101 0.000061
Al -3.174456 3.594272 7.450890 0.000056 -0.000101 0.000024
Al -3.161348 3.581998 -2.700976 -0.000015 -0.000033 -0.000090
Al -0.028143 -1.846593 2.403228 0.000485 0.000103 -0.000140
Al -0.012194 -1.851690 7.451478 0.000051 -0.000148 -0.000105
Ga -0.018500 -1.852550 -2.705189 -0.000063 -0.000022 -0.000064
Al -0.016969 1.783614 4.919502 -0.000041 0.000137 -0.000014
Al -0.023217 1.772950 -5.212291 -0.000058 0.000082 -0.000076
Al -0.035496 1.783433 -0.160227 -0.000197 -0.000007 0.000390
Ga 3.135790 -3.666733 4.933614 0.000057 0.000061 0.000082
Al 3.127298 -3.677001 -5.219108 -0.000058 0.000089 -0.000134
Al 3.141153 -3.676683 -0.165016 -0.000000 0.000195 0.000103
Al 1.557842 -0.936840 4.920584 -0.000111 0.000052 -0.000144
Al 1.560028 -0.947551 -5.222705 -0.000218 0.000119 0.000059
Ga 1.560207 -0.942384 -0.140448 -0.000252 0.000042 0.000448
Al 3.124802 1.780221 4.916575 -0.000024 -0.000079 -0.000141
Al 3.124733 1.772607 -5.221071 -0.000057 -0.000015 -0.000054
Ga 3.123298 1.778382 -0.142624 -0.000039 -0.000055 0.000029
Al 6.272527 -3.673246 4.919594 0.000181 -0.000016 -0.000050
Al 6.271478 -3.680297 -5.223100 0.000034 -0.000019 0.000036
Al 6.259072 -3.673306 -0.144616 0.000420 -0.000281 0.000153
Al 4.697657 -0.937744 4.919438 -0.000073 0.000101 -0.000057
Al 4.696154 -0.948914 -5.220995 -0.000130 -0.000041 -0.000009
Al 4.701882 -0.948766 -0.144634 -0.000113 0.000129 0.000067
Al -3.177722 1.772917 4.934575 0.000101 0.000030 -0.000137
Al -3.170079 1.772008 -5.212024 -0.000064 0.000002 0.000001
Al -3.160992 1.763973 -0.170937 -0.000227 -0.000099 -0.000132
Al -0.031200 -3.670510 4.935043 0.000105 -0.000032 -0.000216
Al -0.021313 -3.682609 -5.223805 -0.000061 -0.000003 -0.000016
Ga -0.029653 -3.677101 -0.150742 -0.000167 -0.000226 0.000066
Ga -1.598596 -0.940964 4.921095 -0.000117 0.000035 0.000012
Al -1.598020 -0.944631 -5.240289 -0.000122 -0.000016 0.000047
Al -1.609640 -0.930347 -0.124393 -0.000133 0.000195 0.000089
N 1.546469 0.875213 4.328268 0.000152 -0.000061 0.000084
N 1.549320 0.868179 -5.818985 0.000134 -0.000018 0.000003
N 1.509444 0.895066 -0.797885 0.000254 -0.000038 -0.000145
N 0.018979 3.573001 4.289672 -0.000135 -0.000204 -0.000059
N -0.021300 3.584912 -5.808788 -0.000005 -0.000058 0.000087
N -0.022039 3.592117 -0.766112 0.000162 -0.000230 0.000141
N 3.129653 -1.806554 4.303184 -0.000053 -0.000130 0.000119
N 3.127204 -1.858829 -5.813118 0.000110 0.000017 0.000085
N 3.166669 -1.877853 -0.781709 0.000076 0.000120 0.000039
N -4.739419 0.871265 4.320672 0.000160 -0.000042 0.000044
N -4.742731 0.866134 -5.816492 0.000123 0.000084 0.000013
N -4.709128 0.843836 -0.783496 0.000161 0.000036 -0.000123
N -6.320089 3.599376 4.333719 -0.000115 0.000075 0.000057
N -6.318528 3.587331 -5.821583 -0.000070 0.000022 0.000019
N -6.364185 3.614467 -0.803256 -0.000190 0.000132 -0.000177
N -3.211878 -1.876556 4.292237 -0.000032 -0.000098 -0.000013
N -3.174800 -1.863493 -5.812352 -0.000012 0.000010 0.000039
N -3.168323 -1.855091 -0.694073 0.000117 -0.000005 0.000051
N -1.598576 0.926780 4.295599 0.000170 -0.000346 -0.000107
N -1.596516 0.875903 -5.815073 0.000172 -0.000111 0.000084
N -1.595381 0.866383 -0.764281 0.000328 -0.000196 0.000069
N -3.208939 3.571224 4.359861 -0.000129 0.000054 0.000302
N -3.170875 3.585311 -5.807733 0.000085 -0.000077 0.000057
N -3.130588 3.570263 -0.777474 0.000151 -0.000005 0.000100
N 0.017836 -1.874320 4.314077 -0.000012 -0.000089 0.000040
N -0.015787 -1.861252 -5.806358 0.000115 -0.000108 0.000044
N -0.067945 -1.825590 -0.740748 0.000278 -0.000127 0.000090
N -0.020408 1.775231 1.769359 -0.000247 0.000207 -0.000205
N -0.022269 1.784188 6.837576 -0.000173 0.000115 0.000026
N -0.025484 1.775374 -3.295210 -0.000065 0.000122 0.000143
N 3.166942 -3.646259 1.760440 0.000037 -0.000085 0.000100
N 3.130857 -3.667051 6.906734 -0.000094 0.000134 -0.000035
N 3.128236 -3.675544 -3.296202 0.000040 0.000169 0.000043
N 1.553480 -0.942026 1.842750 -0.000198 -0.000224 -0.000426
N 1.555673 -0.942524 6.841337 -0.000228 0.000106 0.000050
N 1.597350 -0.924168 -3.312919 0.000091 -0.000023 -0.000145
N 3.123567 1.780024 1.849079 -0.000075 -0.000417 -0.000484
N 3.126448 1.781540 6.836694 -0.000110 -0.000054 0.000089
N 3.126467 1.772911 -3.302908 -0.000027 -0.000116 -0.000135
N 6.275864 -3.677324 1.777665 -0.000117 0.000175 -0.000105
N 6.270531 -3.666144 6.839337 -0.000020 -0.000018 0.000032
N 6.267881 -3.718821 -3.313860 0.000138 0.000078 0.000078
N 4.693434 -0.941315 1.777446 -0.000003 -0.000099 -0.000066
N 4.701136 -0.942151 6.838810 -0.000145 -0.000021 0.000054
N 4.661221 -0.926626 -3.313717 -0.000008 0.000031 -0.000022
N -3.174745 1.727087 1.745970 0.000064 -0.000066 0.000862
N -3.169082 1.778930 6.847969 -0.000132 0.000060 -0.000074
N -3.168488 1.771897 -3.293160 -0.000042 0.000074 0.000121
N -0.068478 -3.652270 1.822028 0.000134 0.000531 0.000067
N -0.021926 -3.664598 6.851494 -0.000003 0.000001 -0.000004
N -0.019866 -3.724016 -3.311058 -0.000024 0.000052 -0.000030
N -1.596349 -0.941989 1.800095 -0.000051 -0.000106 -0.000058
N -1.594384 -0.940914 6.900863 -0.000170 0.000115 0.000023
N -1.602499 -0.899734 -3.336476 0.000114 0.000157 -0.000106
