108
Energy=-2.038806e+06 Lattice="9.590041e+00 0.000000e+00 0.000000e+00 -4.794727e+00 8.304677e+00 0.000000e+00 8.999051e-04 2.798180e-03 1.553503e+01" Stress="5.215348e-07 1.018860e-06 -1.350841e-07 3.304324e-06 -2.456312e-06 -5.250523e-06 -7.691612e-07 7.379054e-06 2.496581e-06" Properties=species:S:1:pos:R:3:forces:R:3 Config_type=AlGaN_super3_35_0_13.xyz
Al 1.569616e+00 8.877378e-01 2.421530e+00 -6.043466e-06 2.404011e-07 5.189661e-06
Al 1.581060e+00 8.957101e-01 7.646316e+00 -2.968347e-06 6.635248e-06 -7.625532e-07
Ga 1.573535e+00 8.769699e-01 -2.746490e+00 -1.195075e-05 1.174097e-05 -2.350027e-06
Al -2.751142e-02 3.642633e+00 2.429554e+00 -1.048790e-05 -4.998607e-06 -1.505104e-05
Al -9.876067e-03 3.655444e+00 7.614453e+00 -3.294638e-06 1.318682e-06 -2.702265e-06
Ga -2.547112e-02 3.646774e+00 -2.721653e+00 -4.176714e-06 6.078129e-06 2.654982e-06
Ga 3.168802e+00 -1.888521e+00 2.449298e+00 -3.718751e-06 -1.175716e-06 -7.724716e-06
Ga 3.179964e+00 -1.885186e+00 7.623372e+00 -5.576960e-06 8.088910e-06 -8.609239e-06
Al 3.164174e+00 -1.883142e+00 -2.747014e+00 -2.481981e-06 -9.388437e-06 -6.753048e-06
Al -4.830628e+00 8.832229e-01 2.443618e+00 -6.879366e-06 -1.086098e-05 1.679890e-05
Ga -4.833017e+00 8.810590e-01 7.654478e+00 7.593611e-07 5.494497e-06 8.242521e-06
Ga -4.829110e+00 8.811735e-01 -2.766550e+00 -7.140299e-08 4.635270e-06 1.092934e-05
Ga -6.416273e+00 3.646492e+00 2.462404e+00 -3.660820e-07 1.805180e-06 1.324154e-05
Al -6.426319e+00 3.650928e+00 7.609324e+00 -7.003238e-06 -4.088565e-06 8.296839e-06
Al -6.414773e+00 3.649635e+00 -2.747289e+00 -3.951219e-06 5.063422e-06 1.455588e-06
Ga -3.217584e+00 -1.886561e+00 2.435919e+00 -4.301594e-06 1.513119e-05 6.342646e-06
Al -3.223458e+00 -1.897386e+00 7.639450e+00 -6.503744e-06 4.457929e-06 1.025294e-05
Ga -3.217445e+00 -1.885327e+00 -2.747704e+00 -1.853629e-06 4.617128e-06 9.808939e-06
Ga -1.601388e+00 8.851479e-01 2.436658e+00 3.545342e-06 5.119131e-06 8.414991e-06
Ga -1.610060e+00 8.831834e-01 7.613058e+00 -1.460616e-06 7.965849e-07 8.126878e-06
Al -1.608614e+00 8.790360e-01 -2.720001e+00 3.164431e-06 4.665991e-06 -1.926695e-06
Ga -3.213231e+00 3.665940e+00 2.445323e+00 -4.531675e-06 8.933122e-06 7.453356e-06
Ga -3.219275e+00 3.660609e+00 7.605140e+00 -5.243754e-06 -9.257694e-06 1.295988e-06
Ga -3.220684e+00 3.662433e+00 -2.721324e+00 -6.549060e-06 1.162282e-05 1.712486e-05
Al -1.746901e-02 -1.882543e+00 2.454931e+00 -4.862077e-06 3.767475e-06 7.546643e-06
Ga -2.438939e-02 -1.887505e+00 7.631890e+00 -1.627170e-05 -1.462108e-06 4.187078e-06
Al -1.441406e-02 -1.881169e+00 -2.760342e+00 -2.718334e-06 6.673027e-07 5.649367e-06
Ga -1.030734e-02 1.821019e+00 5.035060e+00 5.740492e-06 -4.360887e-06 -1.087993e-05
Ga -9.144700e-03 1.800635e+00 -5.333179e+00 4.734448e-06 -5.835189e-06 -5.576511e-06
Al -2.722241e-02 1.814938e+00 -1.398431e-01 4.664659e-06 -1.763590e-05 -1.598525e-06
Al 3.176283e+00 -3.737006e+00 5.032478e+00 3.440224e-06 -2.483188e-06 -4.980159e-06
Ga 3.179187e+00 -3.713417e+00 -5.321527e+00 -3.885642e-06 3.309005e-06 -5.133098e-06
Al 3.183795e+00 -3.730221e+00 -1.498876e-01 5.418344e-06 -1.458845e-05 1.394922e-05
Ga 1.568593e+00 -9.648847e-01 5.021872e+00 4.313793e-07 -7.701817e-06 1.027397e-05
Al 1.594010e+00 -9.537947e-01 -5.316734e+00 5.820228e-06 -6.414913e-06 7.197575e-06
Ga 1.571705e+00 -9.695481e-01 -1.490642e-01 -2.023237e-06 -3.113698e-06 1.652688e-05
Ga 3.169384e+00 1.803514e+00 5.039552e+00 5.822633e-06 4.409757e-06 -2.232161e-07
Al 3.165230e+00 1.801520e+00 -5.339698e+00 4.374503e-06 -1.152995e-05 -1.662022e-06
Ga 3.165728e+00 1.807629e+00 -1.374675e-01 5.838450e-06 3.149701e-06 -4.817532e-07
Ga 6.359495e+00 -3.733562e+00 5.053002e+00 6.584912e-06 3.499979e-06 1.600743e-05
Ga 6.373454e+00 -3.738195e+00 -5.347110e+00 1.607619e-06 -5.563136e-06 1.387480e-06
Ga 6.359974e+00 -3.749246e+00 -1.448685e-01 5.268063e-06 -6.610300e-06 2.430966e-05
Ga 4.771656e+00 -9.635673e-01 5.040567e+00 1.196582e-06 -1.072202e-05 1.581751e-06
Al 4.756744e+00 -9.655790e-01 -5.324433e+00 -7.161252e-06 4.542450e-07 7.259820e-06
Ga 4.756956e+00 -9.684658e-01 -1.501185e-01 -4.257456e-06 -3.769714e-06 3.019425e-06
Ga -3.230078e+00 1.818898e+00 5.021200e+00 7.892593e-06 4.582004e-07 4.254727e-06
Ga -3.225263e+00 1.798260e+00 -5.309735e+00 1.205580e-05 -7.611025e-06 5.225134e-06
Ga -3.206851e+00 1.808216e+00 -1.459596e-01 -1.430262e-06 -4.749811e-06 2.985995e-05
Al -1.674825e-02 -3.722973e+00 5.036291e+00 6.601289e-07 -2.740145e-07 4.521329e-06
Ga -3.514448e-02 -3.736646e+00 -5.315052e+00 7.528444e-06 -5.540337e-06 2.697591e-06
Ga -2.339976e-02 -3.720396e+00 -1.582741e-01 -2.305368e-06 3.735804e-06 -2.689670e-07
Ga -1.614172e+00 -9.802086e-01 5.040204e+00 2.727544e-06 -7.529307e-06 3.208843e-06
Ga -1.622952e+00 -9.616876e-01 -5.313180e+00 1.102649e-05 -6.177258e-07 9.522920e-06
Ga -1.600267e+00 -9.559577e-01 -1.607516e-01 2.081531e-07 9.691356e-07 8.226431e-06
N 1.573053e+00 8.863372e-01 4.337532e+00 -1.997438e-06 2.519839e-06 -7.126221e-06
N 1.617789e+00 8.548376e-01 -5.960245e+00 -6.855975e-06 5.896337e-06 3.737108e-06
N 1.533495e+00 9.057346e-01 -7.610215e-01 6.570644e-06 1.339985e-06 -3.158903e-06
N -6.534312e-02 3.675452e+00 4.359665e+00 -4.794729e-06 -7.265866e-06 1.157956e-05
N -2.909027e-02 3.650965e+00 -6.009181e+00 1.554371e-06 -4.237325e-06 -2.079996e-07
N -6.591651e-02 3.624592e+00 -7.415285e-01 -1.086875e-06 3.708035e-06 6.544139e-06
N 3.173524e+00 -1.935303e+00 4.428930e+00 5.241660e-06 3.930084e-06 1.196612e-06
N 3.171073e+00 -1.838446e+00 -5.928898e+00 5.117418e-06 -3.568410e-06 2.811149e-06
N 3.169713e+00 -1.931371e+00 -8.164200e-01 3.014896e-06 1.350748e-05 7.189991e-06
N -4.825318e+00 8.815859e-01 4.356174e+00 3.644901e-06 -9.792948e-07 -6.993061e-06
N -4.860855e+00 8.575149e-01 -5.896351e+00 7.016938e-07 1.413012e-06 -3.295666e-06
N -4.822330e+00 8.844599e-01 -7.917237e-01 3.465350e-06 -5.140494e-06 -1.616753e-05
N -6.377615e+00 3.676280e+00 4.440392e+00 2.811172e-06 -4.189868e-06 -2.088077e-05
N -6.411790e+00 3.601915e+00 -6.004843e+00 -1.964304e-06 7.793921e-06 -4.005821e-06
N -6.417042e+00 3.645744e+00 -8.293892e-01 -4.360218e-07 -3.412354e-06 -1.556608e-05
N -3.220435e+00 -1.889098e+00 4.403386e+00 -1.018363e-06 8.329239e-06 -3.598754e-06
N -3.262093e+00 -1.860078e+00 -5.971545e+00 5.622106e-06 -2.656729e-06 -9.749505e-06
N -3.219698e+00 -1.887178e+00 -7.722360e-01 -1.202506e-06 -9.802156e-07 -1.265615e-05
N -1.613951e+00 8.825746e-01 4.412982e+00 6.794293e-06 -8.099907e-06 -2.130008e-06
N -1.621191e+00 8.826622e-01 -5.958702e+00 -1.797570e-06 -4.766868e-06 1.999506e-06
N -1.574593e+00 9.103348e-01 -7.974702e-01 7.572588e-06 9.986604e-07 -3.653078e-06
N -3.217569e+00 3.707962e+00 4.438749e+00 2.599149e-06 -8.115090e-06 1.991515e-06
N -3.220045e+00 3.654040e+00 -5.952868e+00 5.059235e-07 2.999589e-06 5.395244e-06
N -3.177368e+00 3.678169e+00 -7.450335e-01 6.848908e-06 -7.787764e-07 -8.228685e-06
N -2.247669e-02 -1.933894e+00 4.374531e+00 -1.512711e-06 7.983473e-06 -1.636227e-06
N 2.317015e-02 -1.863049e+00 -5.923403e+00 -2.399886e-06 8.674504e-07 -1.487787e-05
N -1.521177e-02 -1.883546e+00 -8.507787e-01 4.540804e-07 2.604606e-06 -1.037265e-05
N 1.934225e-02 1.832592e+00 1.788485e+00 -7.479706e-06 7.648557e-06 -6.306697e-07
N 3.052177e-02 1.832419e+00 7.026144e+00 -6.304778e-06 -1.752513e-06 1.474221e-06
N -6.242710e-02 1.784454e+00 -3.358105e+00 -5.787423e-06 -7.149414e-06 7.636309e-06
N 3.217472e+00 -3.749432e+00 1.771485e+00 -2.246391e-06 1.276495e-05 -2.036559e-05
N 3.221673e+00 -3.753890e+00 6.954967e+00 -4.575972e-06 9.589231e-06 3.432254e-06
N 3.177051e+00 -3.685266e+00 -3.348798e+00 1.945943e-06 -3.861008e-06 -4.640089e-06
N 1.533018e+00 -9.429904e-01 1.844652e+00 -1.941764e-07 -2.672818e-06 -1.428822e-05
N 1.573487e+00 -9.062963e-01 7.005590e+00 2.444870e-06 2.539812e-06 -4.819864e-06
N 1.581089e+00 -1.006255e+00 -3.387474e+00 -3.408401e-06 -1.523326e-06 -5.252505e-06
N 3.173500e+00 1.763203e+00 1.846772e+00 1.815662e-06 -2.000818e-06 -5.849373e-06
N 3.131023e+00 1.824227e+00 7.028488e+00 2.105958e-06 -1.227724e-05 -1.742535e-06
N 3.164896e+00 1.858034e+00 -3.416847e+00 3.334012e-06 -4.321153e-06 6.596062e-07
N 6.333179e+00 -3.760977e+00 1.833189e+00 -9.353757e-07 -3.367870e-06 -1.491416e-05
N 6.368556e+00 -3.728023e+00 7.051105e+00 -1.665817e-06 1.564184e-06 -6.566900e-06
N 6.407879e+00 -3.759168e+00 -3.362118e+00 -1.819671e-06 -2.563876e-06 3.189009e-06
N 4.766040e+00 -9.163834e-01 1.827524e+00 1.056210e-07 3.121054e-06 3.029079e-06
N 4.816427e+00 -9.808978e-01 7.017294e+00 -1.479659e-06 6.630954e-07 -5.894801e-07
N 4.728021e+00 -9.934536e-01 -3.404014e+00 3.897971e-06 2.664087e-06 -7.659406e-06
N -3.259128e+00 1.783744e+00 1.839166e+00 -4.749974e-06 -4.745577e-07 -2.963704e-05
N -3.229642e+00 1.801450e+00 6.992792e+00 -2.804039e-06 5.908323e-06 -3.242906e-06
N -3.172179e+00 1.784053e+00 -3.332110e+00 -3.085177e-06 -1.813240e-06 -1.429788e-05
N -2.745184e-02 -3.679711e+00 1.823157e+00 8.024897e-06 4.141649e-06 7.883087e-07
N -6.605795e-02 -3.747804e+00 6.957994e+00 1.397005e-05 1.173508e-05 -1.049183e-05
N -6.750442e-02 -3.710712e+00 -3.331186e+00 6.746005e-06 -1.657086e-06 -3.847831e-06
N -1.572020e+00 -9.868264e-01 1.821181e+00 -1.155882e-06 -8.670267e-06 -4.317033e-06
N -1.662435e+00 -9.935676e-01 7.017976e+00 5.275357e-06 1.014433e-05 -6.625429e-06
N -1.581173e+00 -9.349848e-01 -3.328371e+00 -5.607288e-06 8.938600e-06 -3.929360e-06
