108
Energy=-2.038804e+06 Lattice="9.523972e+00 0.000000e+00 0.000000e+00 -4.771776e+00 8.239865e+00 0.000000e+00 -1.539360e-03 -2.967460e-03 1.539516e+01" Stress="-3.158398e-02 2.445378e-03 6.058379e-05 2.438086e-03 -2.950748e-02 -3.934478e-04 6.024498e-05 -4.033195e-04 -3.350558e-02" Properties=species:S:1:pos:R:3:forces:R:3 Config_type=AlGaN_super3_35_2_4.xyz
Al 1.562926e+00 8.942684e-01 2.429997e+00 -5.260401e-04 -6.268692e-03 -4.802243e-03
Al 1.558289e+00 8.849890e-01 7.548846e+00 1.157499e-03 -6.100595e-03 1.087786e-03
Al 1.559633e+00 8.775143e-01 -2.738275e+00 5.739335e-04 -4.411170e-03 3.890503e-03
Al -1.270515e-02 3.594621e+00 2.716831e+00 7.764360e-04 9.530325e-03 -1.946213e-01
Al -2.038241e-02 3.621212e+00 7.544967e+00 -5.263025e-04 -9.484494e-04 5.660119e-03
Ga -1.545128e-02 3.625084e+00 -2.738108e+00 -1.318288e-03 -1.491497e-03 7.534911e-03
Ga 3.166652e+00 -1.889597e+00 2.427189e+00 -2.623647e-03 -4.544033e-03 -5.220195e-03
Ga 3.179344e+00 -1.891876e+00 7.551533e+00 -1.931748e-03 8.944714e-04 1.316726e-03
Ga 3.168599e+00 -1.882491e+00 -2.739118e+00 6.502416e-05 1.633131e-04 4.347782e-03
Ga -4.808093e+00 8.983845e-01 2.436937e+00 6.711494e-04 -5.844408e-03 -4.922275e-03
Ga -4.801563e+00 8.828056e-01 7.563383e+00 -3.775066e-04 -5.773893e-03 1.619204e-04
Ga -4.803365e+00 8.863480e-01 -2.737089e+00 2.221832e-03 -5.279301e-03 3.091763e-03
Al -6.384659e+00 3.614643e+00 2.425545e+00 -2.118380e-03 4.257094e-03 -6.121064e-03
Ga -6.390467e+00 3.624433e+00 7.558702e+00 5.028915e-04 -9.134405e-04 1.480855e-03
Ga -6.384515e+00 3.632324e+00 -2.737666e+00 2.146355e-03 -2.496298e-04 4.175731e-03
Ga -3.183599e+00 -1.885531e+00 2.419253e+00 1.823621e-03 -4.579349e-03 -4.895806e-03
Al -3.193872e+00 -1.884134e+00 7.551749e+00 1.116051e-03 7.531435e-04 1.831613e-03
Al -3.179929e+00 -1.879732e+00 -2.732747e+00 -7.550555e-04 1.241328e-03 5.271198e-03
Ga -1.629614e+00 9.042859e-01 2.439202e+00 9.079220e-03 -4.443087e-03 -7.381767e-03
Ga -1.639838e+00 8.932969e-01 7.564126e+00 7.717023e-03 -4.945565e-03 -9.972157e-04
Ga -1.635459e+00 8.834132e-01 -2.739031e+00 6.107626e-03 -1.714406e-03 9.882033e-04
Al -3.212161e+00 3.630927e+00 2.439420e+00 7.269812e-03 6.297464e-03 -6.659384e-03
Ga -3.212511e+00 3.629115e+00 7.561531e+00 5.341621e-03 2.875719e-03 2.299671e-03
Ga -3.217025e+00 3.638216e+00 -2.752208e+00 4.534211e-03 1.121055e-03 4.965971e-03
Ga -2.566251e-02 -1.872005e+00 2.422618e+00 6.207401e-03 1.309384e-03 -2.630640e-03
Ga -3.206675e-02 -1.873471e+00 7.559068e+00 6.498739e-03 3.694606e-03 1.831074e-04
Al -2.931431e-02 -1.864925e+00 -2.742857e+00 5.509503e-03 -6.703327e-05 3.623726e-03
Ga -1.703336e-02 1.799527e+00 4.993032e+00 -4.555803e-03 -1.500349e-02 7.722940e-03
Ga -2.026691e-02 1.798602e+00 -5.300597e+00 -4.529106e-03 -1.717564e-03 3.194098e-03
Ga -6.566735e-03 1.790222e+00 -1.526560e-01 -5.287351e-03 7.034232e-03 1.403635e-02
Al 3.175929e+00 -3.718528e+00 4.982316e+00 -1.505650e-02 4.851913e-03 6.835223e-03
Al 3.168288e+00 -3.714091e+00 -5.301726e+00 -4.202892e-03 -1.943326e-03 3.092484e-03
Al 3.168178e+00 -3.707818e+00 -1.810926e-01 1.706953e-03 -4.333872e-03 1.992697e-02
Ga 1.595404e+00 -9.731839e-01 5.000204e+00 -6.443066e-03 3.495221e-03 -1.117131e-03
Ga 1.591000e+00 -9.769868e-01 -5.289355e+00 -5.490537e-03 5.212348e-03 7.540348e-04
Al 1.590731e+00 -9.627419e-01 -1.956580e-01 -5.614084e-03 2.550237e-03 1.276926e-02
Ga 3.135392e+00 1.794292e+00 4.993602e+00 1.096848e-03 -3.676411e-05 2.482352e-03
Ga 3.145101e+00 1.799742e+00 -5.294106e+00 -1.188840e-03 -8.736428e-04 2.742118e-03
Al 3.133616e+00 1.797370e+00 -1.861771e-01 -3.284614e-04 9.038182e-04 1.523759e-02
Ga 6.318987e+00 -3.708895e+00 4.987071e+00 1.120310e-02 4.742883e-03 8.892114e-03
Ga 6.330818e+00 -3.695431e+00 -5.299739e+00 -1.108148e-03 -2.225438e-03 4.440225e-03
Al 6.337866e+00 -3.704604e+00 -1.869349e-01 -5.962187e-03 -2.140748e-03 1.987061e-02
Ga 4.755814e+00 -9.778544e-01 5.007622e+00 -2.759009e-03 7.887134e-03 -5.381852e-04
Ga 4.763127e+00 -9.719513e-01 -5.288027e+00 -2.585652e-03 6.526182e-03 2.262806e-03
Ga 4.754746e+00 -9.753572e-01 -1.604488e-01 -5.318516e-04 4.622639e-03 2.114729e-03
Ga -3.215607e+00 1.808815e+00 4.997313e+00 -1.922166e-03 3.873099e-04 6.312836e-04
Al -3.217503e+00 1.812618e+00 -5.290848e+00 3.195451e-05 4.406186e-04 2.223968e-03
Ga -3.218178e+00 1.806476e+00 -1.547571e-01 4.964833e-04 1.244733e-03 6.642370e-03
Ga -2.150731e-02 -3.700686e+00 4.986265e+00 -1.048809e-04 -3.240423e-04 6.311857e-04
Al -1.805243e-02 -3.697042e+00 -5.286699e+00 4.993709e-04 -1.026679e-03 3.056991e-03
Ga -2.475327e-02 -3.687071e+00 -1.567828e-01 -1.628959e-04 -1.486967e-03 6.351958e-03
Ga -1.609947e+00 -9.663335e-01 5.006488e+00 6.732162e-04 5.589964e-03 4.598947e-04
Ga -1.609857e+00 -9.686116e-01 -5.287728e+00 -3.900908e-04 7.066611e-03 2.233750e-03
Al -1.601288e+00 -9.635613e-01 -2.024500e-01 -2.218559e-03 3.140412e-03 1.359371e-02
N 1.560814e+00 8.801809e-01 4.355680e+00 -1.427780e-03 -3.730527e-03 -9.439561e-03
N 1.560530e+00 8.830670e-01 -5.933960e+00 5.195816e-04 -6.557001e-03 -9.961909e-03
N 1.582044e+00 8.732265e-01 -8.058488e-01 8.012596e-03 -9.724510e-03 -1.591707e-03
N -4.742537e-02 3.629149e+00 4.336071e+00 -9.719991e-03 7.720102e-03 1.255766e-01
N -4.171538e-02 3.636015e+00 -5.924720e+00 -7.888306e-03 4.381579e-03 -9.767281e-03
N -2.042915e-02 3.644771e+00 -7.727115e-01 -6.746223e-04 7.751289e-03 1.326739e-03
N 3.172011e+00 -1.911194e+00 4.395896e+00 1.658970e-03 -9.966392e-03 1.886562e-03
N 3.173753e+00 -1.909165e+00 -5.889158e+00 -4.627620e-04 -8.110900e-03 7.271534e-04
N 3.150224e+00 -1.896082e+00 -7.745725e-01 -9.216197e-03 -3.156131e-03 5.034415e-03
N -4.802809e+00 8.841906e-01 4.392004e+00 2.244173e-03 -6.832939e-03 -2.655342e-04
N -4.776967e+00 9.003579e-01 -5.884033e+00 9.483480e-03 -1.647645e-03 2.773819e-03
N -4.821246e+00 9.013864e-01 -7.783485e-01 -6.723167e-03 -1.417570e-03 4.579547e-03
N -6.385115e+00 3.622475e+00 4.357288e+00 -2.193806e-03 -1.315164e-04 -1.064019e-02
N -6.357420e+00 3.641218e+00 -5.885746e+00 8.776118e-03 5.226924e-03 1.469179e-03
N -6.397718e+00 3.615515e+00 -7.746838e-01 -6.105916e-03 -5.244975e-03 5.723595e-03
N -3.188752e+00 -1.880517e+00 4.379564e+00 -1.613882e-03 -7.487319e-04 -2.152828e-03
N -3.187827e+00 -1.876536e+00 -5.931901e+00 5.845568e-04 1.004006e-03 -1.347710e-02
N -3.166946e+00 -1.890678e+00 -8.028547e-01 8.154137e-03 -3.305112e-03 -3.466687e-03
N -1.639476e+00 8.881371e-01 4.393797e+00 7.613805e-03 -1.750898e-03 1.624120e-03
N -1.662180e+00 9.052141e-01 -5.882383e+00 -1.414867e-03 -2.424262e-04 3.714695e-03
N -1.639371e+00 8.690723e-01 -7.813091e-01 7.472424e-03 -1.107000e-02 6.734478e-03
N -3.192901e+00 3.643443e+00 4.367241e+00 1.439192e-02 4.563099e-03 -6.977004e-03
N -3.215921e+00 3.633839e+00 -5.872179e+00 3.983028e-03 1.237090e-03 7.512652e-03
N -3.196453e+00 3.645264e+00 -7.879250e-01 1.129929e-02 5.461931e-03 1.679506e-03
N -2.818738e-02 -1.869213e+00 4.385809e+00 5.350613e-03 2.570817e-03 -1.813190e-03
N -2.797202e-02 -1.897808e+00 -5.887678e+00 5.125479e-03 -6.711221e-03 2.437871e-03
N -2.542121e-02 -1.845866e+00 -8.077800e-01 5.557583e-03 1.058147e-02 -2.709404e-03
N 1.273145e-02 1.851898e+00 1.879441e+00 1.003648e-03 -6.016664e-03 4.163187e-04
N 4.571046e-03 1.806477e+00 6.959908e+00 1.654813e-03 3.852919e-03 1.598196e-03
N 8.006431e-03 1.781095e+00 -3.341481e+00 1.942818e-03 -7.029557e-03 1.837566e-03
N 3.161961e+00 -3.736323e+00 1.811697e+00 3.902095e-03 -1.357382e-02 2.065820e-03
N 3.195091e+00 -3.728963e+00 6.917270e+00 3.324176e-03 -7.189932e-03 -1.143057e-02
N 3.175601e+00 -3.709084e+00 -3.384971e+00 -4.791741e-03 -1.255915e-03 -1.140805e-02
N 1.590559e+00 -9.393369e-01 1.805568e+00 -6.238167e-03 1.411181e-02 -1.774084e-02
N 1.593908e+00 -9.455303e-01 6.956215e+00 -6.206604e-03 1.143485e-02 3.252556e-03
N 1.569972e+00 -9.545520e-01 -3.331529e+00 -1.366740e-02 7.802089e-03 7.021895e-03
N 3.119116e+00 1.809944e+00 1.822151e+00 -6.438179e-03 2.428792e-03 -1.788702e-02
N 3.118820e+00 1.783637e+00 6.953986e+00 -7.112879e-03 -4.519776e-03 7.225436e-05
N 3.117662e+00 1.785023e+00 -3.342832e+00 -8.375716e-03 -4.455380e-03 2.406737e-03
N 6.344557e+00 -3.729960e+00 1.807481e+00 -7.946814e-03 -1.206747e-02 1.149083e-03
N 6.307710e+00 -3.695394e+00 6.956723e+00 -9.224700e-03 3.725945e-03 1.026221e-05
N 6.332588e+00 -3.673858e+00 -3.343548e+00 1.020537e-04 9.302492e-03 -2.740565e-04
N 4.754848e+00 -9.664348e-01 1.804469e+00 -1.006227e-03 8.069245e-03 -1.097244e-03
N 4.778706e+00 -9.821673e-01 6.960699e+00 6.203905e-03 2.035451e-03 1.488581e-03
N 4.781267e+00 -9.813947e-01 -3.333857e+00 6.745999e-03 7.772282e-04 3.134579e-03
N -3.216012e+00 1.834361e+00 1.828585e+00 -7.169551e-04 5.316441e-03 -2.567188e-03
N -3.219738e+00 1.803894e+00 6.947273e+00 3.432088e-04 -5.010806e-04 -3.019322e-03
N -3.218148e+00 1.803827e+00 -3.377056e+00 8.476905e-04 -1.043734e-03 -1.038310e-02
N -2.371285e-02 -3.731968e+00 1.831757e+00 -2.265798e-04 -7.639137e-03 1.816473e-03
N -2.685410e-02 -3.703642e+00 6.940746e+00 2.184258e-04 -6.427593e-04 -3.114462e-03
N -2.684015e-02 -3.670697e+00 -3.365476e+00 -6.906706e-04 9.761113e-03 -7.651043e-03
N -1.602284e+00 -9.584106e-01 1.791507e+00 -1.110444e-03 8.930840e-03 -2.241051e-02
N -1.631561e+00 -9.775936e-01 6.960144e+00 -8.783602e-03 2.154508e-03 2.032026e-03
N -1.607320e+00 -9.905304e-01 -3.331564e+00 -9.474386e-04 -3.065395e-03 5.939176e-03
