108
Energy=-1535275.644483 Lattice="9.505004 0.000000 0.000000 -4.760087 8.227719 0.000000 0.001791 -0.000710 15.346923" Stress="-0.000054 0.000001 0.000000 0.000001 -0.000054 -0.000001 0.000000 -0.000001 -0.000048" Properties=species:S:1:pos:R:3:forces:R:3
Al 1.563322 0.871400 2.430250 -0.003121 -0.000648 -0.000150
Al 1.558928 0.872267 7.531617 0.000009 -0.002821 -0.001004
Al 1.560309 0.871573 -2.726090 0.000142 -0.001577 0.001122
Al -0.019413 3.638749 2.406206 0.004124 -0.010032 0.000714
Al -0.025583 3.615225 7.535198 -0.000818 0.000439 0.000368
Ga -0.016412 3.610890 -2.717743 -0.000430 0.000252 0.001024
Al 3.176466 -1.885589 2.444911 -0.009192 0.003533 0.000331
Ga 3.161893 -1.870519 7.508776 -0.001137 -0.000470 0.000351
Al 3.149737 -1.863480 -2.728792 0.000039 -0.000143 -0.001448
Ga -4.778524 0.882528 2.429799 -0.001341 -0.002815 0.000057
Al -4.769421 0.873633 7.525970 0.000074 -0.001485 0.000084
Ga -4.788579 0.879431 -2.715354 -0.000624 -0.002326 0.000600
Al -6.372148 3.613033 2.403372 -0.002688 0.000674 0.001345
Ga -6.365696 3.618135 7.540844 -0.000216 0.000542 0.000716
Al -6.358340 3.622912 -2.717925 -0.001198 0.000274 -0.000769
Ga -3.192480 -1.872384 2.399432 0.002389 -0.000564 -0.000545
Al -3.203306 -1.872338 7.532797 0.000284 0.000194 -0.000101
Ga -3.199099 -1.881604 -2.695176 -0.000096 0.000538 0.000035
Al -1.604708 0.900578 2.427047 0.004746 -0.002680 -0.000723
Ga -1.631494 0.902245 7.534420 0.002742 -0.001585 -0.000337
Ga -1.615409 0.898271 -2.719575 0.003184 -0.002661 0.000069
Al -3.224592 3.605106 2.427814 0.013239 0.013634 -0.000786
Al -3.195991 3.608775 7.518057 0.001369 0.001022 -0.000157
Al -3.216821 3.625814 -2.713677 0.002620 0.001861 -0.000446
Al -0.028991 -1.880514 2.402927 0.005300 0.005295 -0.001906
Ga -0.007024 -1.866580 7.535749 0.002088 0.000855 0.000459
Ga -0.003124 -1.881508 -2.703888 0.001114 0.001045 -0.000013
Ga -0.023935 1.794885 4.964991 -0.000968 -0.000494 -0.000848
Al -0.013790 1.789560 -5.283472 -0.002109 -0.000934 0.000593
Ga -0.017796 1.781412 -0.118143 -0.001134 0.000556 0.001791
Al 3.159314 -3.701833 4.947151 -0.002679 -0.002109 0.003353
Ga 3.145950 -3.705469 -5.275097 -0.001936 -0.000356 0.000672
Ga 3.145070 -3.677864 -0.146838 0.001540 -0.002717 0.003535
Al 1.589190 -0.963730 4.946884 -0.003913 0.001204 -0.001002
Al 1.577737 -0.953050 -5.259407 -0.002372 0.000743 0.000040
Ga 1.582980 -0.966242 -0.123822 -0.002870 0.002620 -0.001052
Ga 3.146236 1.777323 4.986470 -0.000283 0.000459 0.000940
Ga 3.137287 1.785123 -5.273645 0.000555 -0.000089 0.000707
Ga 3.131738 1.803873 -0.149134 0.000136 -0.000732 0.000385
Ga 6.298621 -3.694135 4.970546 0.001174 -0.000180 0.000654
Al 6.312888 -3.692132 -5.278301 0.001119 -0.000957 0.001541
Al 6.328546 -3.691109 -0.153996 0.000050 -0.001413 0.007209
Al 4.732440 -0.959053 4.988451 0.001051 0.003232 -0.000952
Al 4.737913 -0.960256 -5.285122 -0.000955 0.002169 0.000596
Al 4.730169 -0.974213 -0.157040 0.000530 0.003641 0.006872
Al -3.201908 1.792684 4.975970 0.002011 0.001741 -0.000204
Al -3.205627 1.794577 -5.261257 -0.001398 0.003437 -0.004420
Ga -3.201238 1.799448 -0.130929 0.000562 -0.000687 -0.000655
Ga -0.004649 -3.695923 4.948535 -0.000316 -0.000133 0.001478
Al -0.013590 -3.701627 -5.262306 0.000281 -0.000738 0.000709
Al -0.039365 -3.695238 -0.147559 -0.000054 -0.000123 0.003763
Ga -1.605483 -0.949087 4.968793 0.000053 0.001902 -0.000144
Ga -1.611702 -0.961488 -5.279789 0.000083 0.001531 0.001261
Al -1.610442 -0.964572 -0.143000 0.000149 0.003019 0.005832
N 1.565387 0.840805 4.335582 -0.000064 -0.005662 -0.002132
N 1.522279 0.847563 -5.901913 -0.001558 -0.002933 -0.000786
N 1.553215 0.870300 -0.811850 0.000430 -0.001902 -0.003821
N -0.051680 3.634008 4.301325 -0.003976 0.002785 0.005030
N 0.009257 3.596284 -5.892673 0.001583 -0.000748 -0.001313
N 0.010800 3.633066 -0.744865 0.001022 0.001618 -0.001307
N 3.171964 -1.872875 4.375861 -0.002345 -0.000666 -0.001300
N 3.149977 -1.832266 -5.866632 0.000057 0.002514 0.001191
N 3.186272 -1.845839 -0.818453 0.001511 0.000843 -0.000627
N -4.741485 0.861146 4.397035 0.001290 -0.006168 0.001479
N -4.742527 0.855955 -5.901151 0.002448 -0.003047 0.001172
N -4.780651 0.837646 -0.745656 0.000358 -0.004788 0.001261
N -6.369120 3.614873 4.314982 0.000179 0.000192 -0.002069
N -6.360191 3.661505 -5.844556 -0.001144 0.002572 0.001447
N -6.364305 3.663895 -0.791304 -0.000433 0.002526 -0.000913
N -3.222745 -1.848490 4.358923 -0.002837 0.002058 0.001963
N -3.228314 -1.893190 -5.901308 -0.002008 -0.000585 -0.001647
N -3.189255 -1.872609 -0.711071 -0.000695 0.000792 0.001940
N -1.653648 0.906691 4.336210 -0.000197 -0.001347 0.000027
N -1.624827 0.927947 -5.846360 0.003084 0.000708 0.002297
N -1.618357 0.843908 -0.751049 0.001478 -0.003651 0.001604
N -3.165467 3.589228 4.334617 0.004567 0.001766 0.000144
N -3.238728 3.599624 -5.915494 -0.000070 -0.002817 0.001888
N -3.245550 3.643933 -0.795427 0.000194 0.002398 0.000270
N 0.008102 -1.848611 4.311986 0.005391 0.002270 0.000005
N 0.021503 -1.891300 -5.840398 0.003492 0.000227 0.001269
N -0.054799 -1.888774 -0.723841 -0.000023 -0.000932 0.001578
N -0.005933 1.804406 1.860709 -0.003997 -0.004455 0.000993
N 0.014817 1.812523 6.939442 0.000476 -0.000114 0.000909
N 0.016698 1.769100 -3.371204 0.000155 -0.001919 -0.001312
N 3.202105 -3.689534 1.852090 -0.024804 -0.000485 -0.002717
N 3.155480 -3.746031 6.898737 -0.001136 -0.002832 -0.004804
N 3.115570 -3.681343 -3.299310 -0.004148 -0.000148 0.002453
N 1.583127 -0.952732 1.847177 -0.000669 -0.006280 0.005212
N 1.575372 -0.919301 6.861795 -0.002184 0.004223 -0.001498
N 1.609133 -0.938168 -3.343701 -0.000547 0.002646 0.000518
N 3.104067 1.806110 1.829086 -0.000116 0.001470 -0.000297
N 3.141303 1.749111 6.963025 0.000472 -0.002553 0.000212
N 3.104144 1.813550 -3.298908 -0.001655 0.000738 0.001516
N 6.315625 -3.745067 1.790312 0.005139 0.001835 -0.008928
N 6.277426 -3.678761 6.942926 -0.000922 0.000969 0.000274
N 6.351976 -3.712989 -3.362228 0.002648 -0.001430 -0.001778
N 4.688184 -0.975110 1.785318 0.000659 0.001930 -0.010302
N 4.774524 -0.937039 6.900758 0.001583 0.003419 -0.001426
N 4.705805 -0.978360 -3.369798 -0.002037 0.000703 -0.000970
N -3.162216 1.831859 1.840544 0.001888 -0.005969 -0.002742
N -3.239666 1.816251 6.891559 -0.001171 0.000647 -0.002199
N -3.206583 1.840305 -3.354506 0.000552 0.001901 -0.001469
N -0.040896 -3.710237 1.804669 0.005543 0.001444 -0.004986
N 0.013113 -3.712254 6.913448 0.002293 -0.001987 -0.000221
N -0.021544 -3.737309 -3.344507 0.000521 -0.002264 -0.000717
N -1.571520 -0.922637 1.802675 0.001475 0.002384 -0.006864
N -1.637121 -0.974808 6.942643 -0.002527 0.000869 0.000339
N -1.607148 -0.961711 -3.319870 -0.000128 0.002290 0.000610
