108
Energy=-1.123296e+06 Lattice="9.477993e+00 0.000000e+00 0.000000e+00 -4.740827e+00 8.205959e+00 0.000000e+00 -8.014220e-04 -1.407637e-03 1.526532e+01" Stress="-7.104569e-05 -9.392638e-05 -2.725275e-05 -8.339530e-05 -2.796215e-04 6.094819e-06 -2.465720e-05 3.431297e-06 -2.781653e-04" Properties=species:S:1:pos:R:3:forces:R:3 Config_type=AlGaN_super3_15_0_24.xyz
Al 1.558190e+00 8.717143e-01 2.389142e+00 2.018429e-04 2.173562e-05 4.145392e-07
Al 1.564054e+00 8.796593e-01 7.449162e+00 9.044878e-07 -1.320960e-04 -9.095931e-05
Al 1.556354e+00 8.698714e-01 -2.658482e+00 -1.821512e-04 -1.400410e-04 -1.013190e-05
Al -1.895264e-02 3.603044e+00 2.402693e+00 -1.569013e-04 -5.001073e-05 2.461715e-04
Al -1.214276e-02 3.607414e+00 7.482272e+00 -6.527953e-05 2.049675e-04 2.288312e-05
Al -3.299892e-02 3.606546e+00 -2.702770e+00 -1.035162e-05 -4.368428e-04 2.966542e-05
Al 3.136850e+00 -1.857674e+00 2.394594e+00 -7.691158e-05 -2.800111e-04 5.221066e-05
Al 3.144590e+00 -1.859630e+00 7.470039e+00 1.179400e-04 -1.479563e-04 -1.422158e-04
Al 3.124983e+00 -1.872618e+00 -2.678603e+00 2.220375e-04 -3.650929e-05 9.238944e-05
Al -4.773946e+00 8.706931e-01 2.403388e+00 -6.569977e-05 -9.784453e-05 1.297590e-04
Al -4.774167e+00 8.694637e-01 7.461535e+00 1.847983e-04 6.539485e-05 -2.412699e-05
Al -4.769218e+00 8.796764e-01 -2.674337e+00 1.104802e-05 -1.102768e-05 -1.471731e-04
Al -6.349516e+00 3.598895e+00 2.396170e+00 1.894588e-04 -3.096672e-05 -2.604984e-06
Al -6.352910e+00 3.601663e+00 7.476906e+00 8.766900e-07 2.119156e-07 7.480279e-05
Ga -6.337512e+00 3.603101e+00 -2.685399e+00 -1.501614e-05 1.772416e-04 -1.693199e-04
Al -3.177121e+00 -1.859775e+00 2.417283e+00 9.148207e-05 1.091584e-04 -7.893687e-05
Al -3.194797e+00 -1.874362e+00 7.446685e+00 2.287609e-05 6.895129e-05 -1.586610e-04
Ga -3.189597e+00 -1.869344e+00 -2.673152e+00 -9.499294e-07 4.259916e-05 -9.307172e-05
Al -1.595208e+00 8.672369e-01 2.380399e+00 3.128063e-04 -2.285898e-04 3.287125e-05
Ga -1.598752e+00 8.853024e-01 7.487194e+00 4.074937e-04 -3.119989e-04 1.840933e-05
Ga -1.598239e+00 8.899724e-01 -2.674633e+00 3.251593e-04 -1.924871e-04 -9.515941e-05
Ga -3.179645e+00 3.610885e+00 2.363769e+00 1.647685e-04 -2.881634e-06 -4.247481e-05
Al -3.183075e+00 3.607699e+00 7.513351e+00 -3.891440e-05 1.402686e-05 7.278787e-05
Al -3.179201e+00 3.615993e+00 -2.688514e+00 8.660532e-05 -6.033756e-05 1.342296e-04
Al -2.224082e-02 -1.850630e+00 2.387472e+00 9.781344e-05 2.676220e-07 1.473467e-04
Ga -1.313753e-02 -1.863813e+00 7.468091e+00 1.952037e-04 -1.142700e-05 7.233902e-05
Al -4.612242e-03 -1.869833e+00 -2.662487e+00 7.810835e-05 2.012727e-04 1.309996e-04
Al -7.597282e-03 1.778808e+00 4.916894e+00 -5.955477e-05 -1.855882e-04 2.772543e-05
Al -1.633831e-02 1.802842e+00 -5.233672e+00 4.540693e-05 5.697068e-05 -1.642835e-04
Al -2.181217e-02 1.784467e+00 -1.326811e-01 7.605993e-05 -1.213436e-04 2.422573e-04
Ga 3.156213e+00 -3.679404e+00 4.955226e+00 -2.323122e-04 2.249126e-04 2.085415e-04
Al 3.139443e+00 -3.701344e+00 -5.244400e+00 -2.760172e-05 1.744504e-04 5.562753e-05
Al 3.134572e+00 -3.693459e+00 -1.579329e-01 -2.265116e-04 1.195832e-04 1.022747e-04
Al 1.563011e+00 -9.338203e-01 4.916017e+00 2.290119e-04 -2.512919e-05 -1.493020e-04
Ga 1.559536e+00 -9.491268e-01 -5.217011e+00 -3.733971e-04 8.846130e-05 2.051596e-04
Al 1.550852e+00 -9.530379e-01 -1.443875e-01 -2.540501e-04 2.290942e-04 8.383870e-05
Al 3.120476e+00 1.777737e+00 4.933862e+00 2.066946e-05 3.087417e-05 -3.475093e-05
Ga 3.130539e+00 1.790347e+00 -5.248667e+00 2.347301e-05 -1.260240e-04 2.192674e-04
Al 3.135808e+00 1.777731e+00 -1.317290e-01 8.798321e-05 4.163303e-06 -1.068703e-04
Al 6.296220e+00 -3.691213e+00 4.926724e+00 1.302480e-04 -1.708569e-05 -4.170576e-05
Al 6.288732e+00 -3.695073e+00 -5.260555e+00 8.439670e-05 1.154393e-04 -2.054381e-04
Ga 6.291690e+00 -3.701501e+00 -1.103270e-01 -5.203482e-05 3.360471e-05 -1.786068e-04
Al 4.713894e+00 -9.511492e-01 4.926253e+00 -1.452746e-04 -3.873944e-05 2.603968e-06
Ga 4.718540e+00 -9.555854e-01 -5.243637e+00 -1.674013e-04 1.630895e-04 1.153145e-04
Ga 4.705876e+00 -9.404032e-01 -1.214074e-01 -1.073449e-04 9.971975e-06 -1.493804e-04
Ga -3.183705e+00 1.767320e+00 4.938025e+00 4.012798e-05 1.496910e-05 4.215566e-05
Al -3.187901e+00 1.803835e+00 -5.233321e+00 1.651412e-04 -3.411861e-05 -2.312415e-04
Al -3.185604e+00 1.789510e+00 -1.414927e-01 7.129267e-05 -3.069104e-05 -9.232722e-05
Ga -3.955003e-02 -3.682073e+00 4.936785e+00 4.807765e-05 5.213438e-05 4.100118e-05
Al -1.528727e-02 -3.695770e+00 -5.234931e+00 2.485854e-04 2.767313e-05 3.462202e-04
Al -1.410608e-02 -3.679809e+00 -1.407819e-01 -1.094208e-04 3.680864e-05 -8.884411e-05
Al -1.602201e+00 -9.479646e-01 4.912337e+00 -6.548743e-05 -4.397233e-05 -8.077699e-05
Ga -1.603632e+00 -9.563376e-01 -5.232572e+00 -1.085687e-04 1.147236e-04 -6.261101e-05
Al -1.582823e+00 -9.471849e-01 -1.174611e-01 1.039333e-04 1.103309e-04 7.086802e-05
N 1.558257e+00 8.739118e-01 4.311809e+00 1.583865e-04 -8.893168e-05 -3.423250e-05
N 1.511091e+00 8.923517e-01 -5.901633e+00 -2.043018e-05 -4.703575e-05 3.262968e-06
N 1.553824e+00 8.748442e-01 -7.353322e-01 1.165282e-04 -2.836710e-05 5.448754e-05
N 1.255276e-02 3.583067e+00 4.312916e+00 3.368891e-05 7.936114e-05 -3.151507e-04
N -2.283915e-02 3.604910e+00 -5.856710e+00 -9.455796e-05 -8.116124e-05 -6.803078e-05
N -6.165231e-02 3.581272e+00 -7.809459e-01 6.593283e-05 4.684993e-06 -2.707194e-04
N 3.135632e+00 -1.822312e+00 4.308543e+00 -1.083206e-04 1.849451e-04 6.292193e-05
N 3.132959e+00 -1.907474e+00 -5.882327e+00 5.386836e-05 -1.311432e-04 1.669996e-05
N 3.096870e+00 -1.888199e+00 -7.637172e-01 -2.178852e-05 -6.736351e-05 -1.187488e-04
N -4.808670e+00 8.525883e-01 4.316608e+00 -9.090155e-06 9.409314e-05 -5.903371e-05
N -4.723436e+00 8.951286e-01 -5.892873e+00 7.654650e-05 1.419104e-05 -4.870611e-05
N -4.763027e+00 9.208306e-01 -7.633336e-01 -2.843201e-05 -5.174126e-05 1.074532e-04
N -6.382932e+00 3.578100e+00 4.309213e+00 -5.161207e-05 -9.960032e-05 1.892254e-04
N -6.341430e+00 3.655107e+00 -5.865533e+00 -2.932418e-04 9.192487e-05 -9.646096e-05
N -6.303844e+00 3.584375e+00 -7.126411e-01 2.106802e-04 9.406151e-05 1.422393e-04
N -3.182013e+00 -1.863514e+00 4.336940e+00 3.802932e-05 -1.081866e-05 -2.578276e-05
N -3.182202e+00 -1.908399e+00 -5.902468e+00 4.156445e-05 -1.827972e-04 1.108691e-04
N -3.140756e+00 -1.843751e+00 -7.116673e-01 1.246549e-04 1.338090e-04 1.958397e-04
N -1.560566e+00 8.540078e-01 4.299723e+00 1.785149e-04 4.942728e-05 -1.032483e-04
N -1.600532e+00 9.247298e-01 -5.798858e+00 -7.021356e-05 6.395438e-05 1.374576e-04
N -1.601196e+00 8.756708e-01 -6.900515e-01 -4.214862e-05 -7.228690e-05 1.092957e-04
N -3.178648e+00 3.611135e+00 4.316790e+00 1.587893e-04 -1.893630e-04 -7.303429e-05
N -3.182957e+00 3.610151e+00 -5.832827e+00 7.922341e-05 -1.320366e-04 -1.048166e-04
N -3.183673e+00 3.608792e+00 -7.527105e-01 7.877528e-06 -2.353142e-04 -3.422837e-05
N -1.692982e-02 -1.814841e+00 4.306112e+00 -2.535597e-04 -8.953837e-05 -2.105837e-04
N -1.678767e-02 -1.906167e+00 -5.835283e+00 1.478520e-04 -5.824728e-05 -6.729421e-05
N -2.254525e-02 -1.863088e+00 -7.405752e-01 -3.424725e-06 -1.731903e-04 1.705198e-05
N -1.754500e-02 1.787827e+00 1.788114e+00 -2.475056e-04 1.734161e-04 -1.526351e-04
N 1.736836e-02 1.810092e+00 6.834542e+00 -1.572318e-04 7.965718e-05 2.326139e-05
N 2.724474e-02 1.805295e+00 -3.314881e+00 -7.855316e-05 1.783150e-04 3.275935e-04
N 3.189035e+00 -3.661265e+00 1.757177e+00 6.770184e-05 3.016546e-04 2.500053e-05
N 3.138846e+00 -3.691731e+00 6.934636e+00 6.138406e-05 3.043717e-05 3.856077e-05
N 3.136831e+00 -3.687826e+00 -3.307845e+00 4.336900e-05 1.392703e-04 -2.299991e-04
N 1.560834e+00 -9.510770e-01 1.781376e+00 -2.795125e-04 5.447284e-05 -1.358043e-04
N 1.603810e+00 -9.275081e-01 6.832835e+00 -2.318702e-04 3.011050e-04 2.569269e-04
N 1.558103e+00 -9.463105e-01 -3.232115e+00 -1.364982e-04 1.234463e-04 4.789826e-06
N 3.135395e+00 1.780078e+00 1.786936e+00 -1.392910e-05 -2.503518e-06 8.958855e-05
N 3.135294e+00 1.787534e+00 6.860359e+00 -6.013262e-05 -1.020995e-04 -3.170157e-05
N 3.129767e+00 1.732540e+00 -3.271621e+00 -6.848844e-05 -1.374438e-04 -6.006008e-05
N 6.293385e+00 -3.685744e+00 1.859128e+00 4.328152e-06 4.700493e-05 -4.392671e-05
N 6.295647e+00 -3.692921e+00 6.854870e+00 2.979099e-05 -2.879555e-05 -1.916443e-06
N 6.256527e+00 -3.710278e+00 -3.344712e+00 -1.000066e-04 -6.962008e-05 4.868312e-05
N 4.717488e+00 -9.500193e-01 1.852215e+00 8.829418e-05 -1.556267e-04 9.623653e-05
N 4.714144e+00 -9.512296e-01 6.854198e+00 -1.276140e-04 -2.984804e-05 -8.621510e-05
N 4.671809e+00 -9.270819e-01 -3.261988e+00 -1.772675e-04 -2.768963e-05 6.743931e-05
N -3.189256e+00 1.731230e+00 1.770981e+00 1.669768e-04 5.956244e-05 -5.184512e-05
N -3.221671e+00 1.810343e+00 6.905825e+00 -2.395325e-04 6.471838e-05 -4.708845e-05
N -3.229001e+00 1.810033e+00 -3.309992e+00 -7.615523e-05 1.348294e-04 9.863266e-05
N -6.801758e-02 -3.658163e+00 1.771537e+00 4.954982e-05 8.170398e-05 -8.524521e-05
N -2.144462e-02 -3.738786e+00 6.904984e+00 -1.196264e-05 -3.692465e-05 -3.165785e-05
N 2.023824e-02 -3.661676e+00 -3.310905e+00 -3.303189e-06 -6.325118e-05 -1.853143e-04
N -1.600937e+00 -9.538397e-01 1.799495e+00 -2.012243e-04 3.361204e-05 6.338100e-05
N -1.640075e+00 -9.678622e-01 6.825295e+00 -3.103965e-04 5.308794e-05 -9.703197e-06
N -1.559267e+00 -9.750330e-01 -3.268081e+00 -3.002382e-05 6.630521e-06 1.171239e-04
