108
Energy=-9.859700e+05 Lattice="9.461421e+00 0.000000e+00 0.000000e+00 -4.734026e+00 8.188820e+00 0.000000e+00 -3.774555e-04 -2.892228e-03 1.524074e+01" Stress="5.188035e-04 -1.969639e-04 -1.279044e-04 -2.050569e-04 -4.055213e-04 -2.011438e-04 -1.083518e-04 -1.950825e-04 1.778716e-03" Properties=species:S:1:pos:R:3:forces:R:3 Config_type=AlGaN_super3_12_1_29.xyz
Al 1.562938e+00 8.676894e-01 2.385189e+00 3.769250e-04 -5.077959e-05 -4.968777e-06
Al 1.547528e+00 8.705120e-01 7.498267e+00 8.266881e-06 2.338145e-04 3.684449e-05
Al 1.554104e+00 8.606100e-01 -2.710429e+00 5.878029e-05 4.764463e-05 -4.961753e-05
Al -1.346627e-02 3.604302e+00 2.434235e+00 1.395256e-04 -3.554063e-05 1.266278e-04
Al -1.021031e-02 3.596273e+00 7.461922e+00 -9.040428e-06 -5.408174e-05 -1.516709e-04
Al -2.890994e-02 3.589065e+00 -2.714782e+00 2.034067e-04 -5.724944e-05 -6.081675e-05
Al 3.134783e+00 -1.849078e+00 2.380293e+00 1.237066e-05 6.893023e-05 -1.549574e-05
Al 3.135541e+00 -1.852471e+00 7.490580e+00 6.773712e-05 -3.443063e-04 -1.569744e-04
Al 3.123883e+00 -1.843732e+00 -2.692255e+00 -6.775251e-05 2.421933e-05 6.152282e-05
Al -4.763649e+00 8.656100e-01 2.372598e+00 6.593145e-05 6.246532e-05 -8.037500e-05
Al -4.752112e+00 8.649674e-01 7.501923e+00 1.362507e-05 6.105630e-05 7.062904e-05
Al -4.758847e+00 8.680949e-01 -2.699322e+00 1.979090e-05 -1.367354e-05 6.210006e-05
Al -6.332882e+00 3.599266e+00 2.390876e+00 -2.782570e-04 -2.479240e-04 1.188172e-04
Al -6.339246e+00 3.607402e+00 7.486176e+00 4.184907e-05 -4.421164e-05 -5.357350e-05
Ga -6.326857e+00 3.589880e+00 -2.698894e+00 -1.371803e-04 -2.837132e-05 -1.176561e-04
Al -3.173531e+00 -1.858479e+00 2.395032e+00 -4.049951e-04 -1.857026e-04 3.341290e-06
Al -3.169411e+00 -1.862848e+00 7.483353e+00 6.028034e-05 2.597294e-05 -1.495275e-05
Ga -3.181241e+00 -1.847107e+00 -2.703580e+00 -8.388776e-05 -6.936854e-05 -1.616927e-05
Ga -1.602813e+00 8.589188e-01 2.407815e+00 2.969509e-05 2.201884e-05 2.051090e-06
Al -1.595897e+00 8.624250e-01 7.474406e+00 -6.848220e-06 -7.408120e-05 -9.694306e-05
Al -1.598688e+00 8.740805e-01 -2.708370e+00 9.941949e-05 2.336595e-05 8.936476e-05
Ga -3.188393e+00 3.601947e+00 2.409639e+00 7.597660e-05 -1.091330e-04 -2.063442e-05
Ga -3.183917e+00 3.598511e+00 7.470121e+00 1.147699e-05 -6.007518e-05 2.446823e-05
Al -3.181511e+00 3.596249e+00 -2.697447e+00 -1.699477e-04 -7.926285e-05 -2.061984e-05
Al -2.630264e-02 -1.859284e+00 2.381446e+00 5.008332e-06 1.409522e-04 1.193808e-04
Al -3.011525e-02 -1.855459e+00 7.488226e+00 -1.696647e-04 1.174005e-04 1.352861e-04
Al -8.527935e-03 -1.848300e+00 -2.699208e+00 -1.702547e-05 -1.268031e-04 4.384812e-06
Al -2.884470e-02 1.785384e+00 4.950407e+00 -7.509933e-05 3.620748e-05 1.609706e-04
Al -2.112768e-02 1.773100e+00 -5.234839e+00 -5.375397e-05 -4.002262e-05 3.106504e-05
Ga -2.001584e-02 1.766560e+00 -1.570702e-01 -4.346554e-06 3.715696e-05 -5.945561e-05
Al 3.141099e+00 -3.684770e+00 4.943173e+00 1.316256e-04 1.101666e-04 3.302224e-05
Ga 3.139054e+00 -3.675355e+00 -5.216213e+00 -5.411359e-05 9.740206e-05 -1.305436e-04
Ga 3.125125e+00 -3.673385e+00 -1.605492e-01 -2.221736e-05 3.050469e-05 -2.616194e-05
Ga 1.540652e+00 -9.576862e-01 4.942352e+00 -1.248777e-04 -3.056524e-05 1.642882e-05
Al 1.548880e+00 -9.428202e-01 -5.229302e+00 -6.432949e-05 -1.279737e-06 -6.995315e-05
Al 1.552760e+00 -9.477291e-01 -1.582887e-01 -2.226155e-05 1.070557e-04 8.426871e-05
Ga 3.133815e+00 1.793778e+00 4.945452e+00 7.962819e-06 -1.461650e-05 6.520610e-05
Al 3.131405e+00 1.778236e+00 -5.243985e+00 -2.722540e-05 -1.711147e-05 7.865055e-05
Al 3.142180e+00 1.765580e+00 -1.479001e-01 -3.630740e-05 -3.983693e-04 1.520467e-04
Al 6.292674e+00 -3.676315e+00 4.934696e+00 1.835546e-05 -1.540674e-04 -5.655982e-05
Al 6.292993e+00 -3.678957e+00 -5.253613e+00 6.772859e-05 -2.781993e-07 2.848283e-05
Ga 6.291337e+00 -3.675886e+00 -1.203617e-01 -3.248295e-05 4.917565e-05 -3.428088e-05
Ga 4.723624e+00 -9.524839e-01 4.942410e+00 -2.041345e-04 -4.646759e-05 2.936478e-05
Al 4.710565e+00 -9.383739e-01 -5.240879e+00 -4.024924e-05 -1.154837e-05 -3.718063e-05
Al 4.703759e+00 -9.297840e-01 -1.439225e-01 -8.690265e-05 -4.646635e-05 1.824877e-05
Al -3.172433e+00 1.776056e+00 4.954333e+00 2.801366e-05 1.073348e-04 -3.513190e-05
Al -3.180423e+00 1.766922e+00 -5.219825e+00 3.993991e-05 1.071743e-05 -3.238525e-05
Al -3.194011e+00 1.769785e+00 -1.788035e-01 7.844976e-05 1.820580e-04 3.662630e-06
Al -3.319100e-02 -3.670737e+00 4.938487e+00 -1.296408e-04 1.543733e-04 7.321633e-05
Al -3.178172e-02 -3.668662e+00 -5.226643e+00 7.604510e-05 -5.995905e-05 -2.903566e-04
Al -1.938831e-02 -3.671788e+00 -1.543357e-01 2.294525e-04 -7.930539e-05 -2.471040e-05
Al -1.597072e+00 -9.571535e-01 4.952121e+00 1.127182e-04 1.575489e-04 3.460450e-04
Al -1.592635e+00 -9.452057e-01 -5.243767e+00 -7.292302e-05 -2.396848e-05 -8.673602e-06
Al -1.593058e+00 -9.492480e-01 -1.585070e-01 2.195937e-05 1.400761e-04 2.239558e-04
N 1.515546e+00 8.929452e-01 4.296944e+00 1.443299e-04 -2.603560e-05 -8.092663e-06
N 1.549164e+00 8.711775e-01 -5.828256e+00 1.136647e-04 -9.093485e-07 9.074219e-05
N 1.598117e+00 8.464322e-01 -7.875175e-01 -1.077412e-04 -2.351190e-05 2.500193e-05
N -2.171790e-02 3.598002e+00 4.353129e+00 -2.756812e-05 2.286645e-05 1.633657e-06
N 1.494830e-02 3.574137e+00 -5.864151e+00 -3.394051e-05 1.381216e-04 5.358377e-05
N -1.649430e-02 3.598874e+00 -8.188837e-01 -1.170819e-05 2.204091e-05 3.985579e-05
N 3.132247e+00 -1.900493e+00 4.291223e+00 7.172195e-05 -1.812775e-05 6.534092e-05
N 3.130067e+00 -1.812283e+00 -5.844444e+00 -1.404891e-04 -1.354518e-05 1.379427e-04
N 3.132453e+00 -1.804412e+00 -7.735283e-01 2.617892e-04 -3.539694e-05 -1.035818e-04
N -4.712686e+00 8.957145e-01 4.283438e+00 3.832896e-05 -2.866039e-05 6.687057e-05
N -4.748939e+00 8.749695e-01 -5.830660e+00 8.565079e-05 1.795378e-05 1.068554e-04
N -4.760243e+00 8.674848e-01 -7.741037e-01 1.378134e-04 -1.321126e-05 1.229481e-06
N -6.328830e+00 3.644372e+00 4.306999e+00 1.003661e-05 1.080121e-04 8.748210e-05
N -6.327632e+00 3.604195e+00 -5.835716e+00 -4.435941e-05 3.224377e-07 3.317919e-05
N -6.293801e+00 3.573390e+00 -7.231818e-01 -5.987039e-06 3.012951e-04 -6.776670e-05
N -3.130305e+00 -1.877319e+00 4.314006e+00 -9.914798e-05 -6.225067e-05 3.690654e-06
N -3.172169e+00 -1.855908e+00 -5.835807e+00 -3.049736e-05 2.210211e-05 1.596892e-05
N -3.179764e+00 -1.812162e+00 -7.267700e-01 -9.711659e-05 5.912652e-06 -5.103358e-05
N -1.600845e+00 8.662047e-01 4.392203e+00 8.822084e-05 2.450368e-05 -3.231074e-04
N -1.601439e+00 8.750884e-01 -5.840955e+00 1.197979e-04 -5.235200e-05 -1.010230e-05
N -1.640115e+00 8.460910e-01 -7.882963e-01 4.703421e-05 -1.688627e-04 -2.154463e-04
N -3.181778e+00 3.599507e+00 4.399241e+00 1.025013e-04 -1.530560e-04 -2.060768e-04
N -3.219260e+00 3.576294e+00 -5.798283e+00 -2.521079e-05 -9.903699e-06 9.457927e-05
N -3.223455e+00 3.577021e+00 -7.808176e-01 -1.333395e-04 -1.013963e-04 2.015974e-04
N -6.559020e-02 -1.879522e+00 4.300718e+00 1.450175e-04 -1.435569e-04 -2.591296e-04
N -2.134326e-02 -1.857726e+00 -5.837506e+00 1.341743e-05 -6.689020e-05 -5.684161e-06
N -2.016732e-02 -1.856305e+00 -7.706292e-01 -9.188812e-05 -7.256360e-05 4.464905e-06
N 1.443279e-02 1.806174e+00 1.819104e+00 -2.373224e-04 2.484243e-04 -1.498102e-05
N -1.965000e-02 1.774929e+00 6.871895e+00 3.819354e-05 1.159433e-04 4.055514e-05
N -2.345207e-02 1.775373e+00 -3.310490e+00 -2.509797e-05 6.660709e-05 8.570519e-06
N 3.176209e+00 -3.662979e+00 1.819282e+00 -7.990737e-05 3.181991e-05 -6.744251e-05
N 3.176741e+00 -3.652057e+00 6.859020e+00 -6.365762e-05 2.960559e-04 2.081822e-04
N 3.131105e+00 -3.673715e+00 -3.238902e+00 -5.940206e-06 1.482385e-04 -8.509903e-05
N 1.551821e+00 -9.500043e-01 1.773536e+00 -9.243284e-05 -1.103861e-05 -6.110287e-06
N 1.552875e+00 -9.499755e-01 6.924198e+00 3.941028e-05 -8.535507e-06 -2.130536e-04
N 1.554012e+00 -9.506616e-01 -3.308896e+00 -1.217437e-04 7.205221e-06 -6.922592e-05
N 3.129089e+00 1.778366e+00 1.779039e+00 2.100017e-05 -4.196769e-05 -1.984145e-05
N 3.131677e+00 1.778292e+00 6.932083e+00 -1.940217e-04 9.497757e-05 -9.399408e-07
N 3.130645e+00 1.731373e+00 -3.330225e+00 -5.348668e-05 7.633889e-05 -2.668122e-04
N 6.280922e+00 -3.681349e+00 1.853957e+00 9.265325e-05 2.349851e-06 -7.944014e-05
N 6.291505e+00 -3.676827e+00 6.863281e+00 -9.477447e-06 1.140640e-05 3.116967e-05
N 6.248659e+00 -3.700265e+00 -3.348192e+00 3.671809e-05 6.694086e-05 -3.090648e-05
N 4.709941e+00 -9.492148e-01 1.781781e+00 -8.959214e-05 -1.852013e-05 -3.070174e-05
N 4.711390e+00 -9.483323e-01 6.924206e+00 -2.213059e-05 -1.826515e-04 -8.792127e-05
N 4.665179e+00 -9.242390e-01 -3.329035e+00 5.786142e-05 -7.622967e-05 5.647969e-05
N -3.214488e+00 1.757582e+00 1.735106e+00 -5.206948e-05 7.090169e-05 -5.861752e-05
N -3.182167e+00 1.725143e+00 6.860738e+00 1.881671e-04 5.466062e-05 2.313323e-04
N -3.180003e+00 1.775916e+00 -3.298167e+00 4.036177e-05 -5.650497e-05 4.888681e-05
N -5.901654e-02 -3.655035e+00 1.762022e+00 1.245816e-04 9.810900e-05 -1.569475e-04
N -6.870884e-02 -3.649415e+00 6.852220e+00 -8.704492e-05 -2.997343e-04 7.309439e-06
N 1.660300e-02 -3.649178e+00 -3.317503e+00 2.522477e-05 9.839612e-05 3.610880e-04
N -1.598276e+00 -9.940825e-01 1.757375e+00 3.554584e-04 4.650019e-05 -2.386602e-04
N -1.597444e+00 -9.539569e-01 6.876450e+00 -7.323998e-05 -3.472344e-05 6.086899e-05
N -1.554281e+00 -9.261569e-01 -3.328734e+00 -4.964804e-05 -2.089771e-05 5.866863e-05
