108
Energy=-2221908.250331 Lattice="9.614145 0.000000 0.000000 -4.806165 8.326156 0.000000 -0.001017 0.001719 15.584201" Stress="-0.000000 0.000000 -0.000000 0.000000 0.000000 0.000000 0.000000 0.000000 -0.000000" Properties=species:S:1:pos:R:3:forces:R:3
Al 1.569896 0.898400 2.434634 -0.000002 0.000000 0.000001
Al 1.586478 0.889374 7.685451 -0.000003 0.000003 -0.000006
Ga 1.576021 0.887392 -2.777217 0.000001 0.000000 -0.000009
Al -0.028311 3.644577 2.442443 -0.000004 0.000006 -0.000004
Ga -0.023290 3.652608 7.658949 -0.000029 -0.000022 0.000007
Ga -0.030021 3.638526 -2.751372 0.000008 -0.000025 -0.000014
Ga 3.174180 -1.897285 2.452574 0.000007 -0.000005 -0.000041
Al 3.167231 -1.886287 7.656396 -0.000003 -0.000002 0.000009
Ga 3.176845 -1.881937 -2.753568 0.000001 0.000002 0.000047
Ga -4.836418 0.896911 2.459397 0.000002 0.000011 0.000004
Ga -4.845095 0.897906 7.660801 -0.000008 0.000007 0.000004
Al -4.829527 0.891380 -2.768427 -0.000001 0.000001 0.000005
Ga -6.435557 3.651868 2.450637 0.000014 -0.000004 0.000010
Al -6.424401 3.648233 7.667725 -0.000002 0.000008 0.000000
Ga -6.417484 3.647499 -2.765507 0.000007 -0.000004 -0.000000
Ga -3.225341 -1.891594 2.437536 0.000003 0.000000 0.000004
Ga -3.233046 -1.897639 7.660610 0.000001 -0.000005 0.000007
Ga -3.224338 -1.873959 -2.739430 -0.000006 0.000008 0.000002
Ga -1.611414 0.898942 2.424047 0.000014 -0.000032 0.000026
Ga -1.615078 0.899898 7.659664 0.000037 -0.000018 0.000017
Al -1.618808 0.889252 -2.736190 -0.000007 0.000001 0.000009
Al -3.218310 3.659673 2.449169 -0.000009 0.000004 -0.000016
Al -3.235939 3.668183 7.665709 -0.000004 0.000001 -0.000010
Ga -3.233790 3.650929 -2.761024 0.000006 0.000003 -0.000003
Ga -0.019553 -1.884883 2.448874 0.000026 -0.000014 0.000016
Ga -0.004226 -1.899542 7.668875 -0.000005 0.000005 -0.000002
Ga -0.018882 -1.888588 -2.765535 0.000004 0.000003 0.000008
Ga -0.009347 1.808372 5.043909 0.000007 -0.000005 0.000053
Al -0.010274 1.795117 -5.338898 0.000004 0.000004 0.000016
Al -0.025339 1.802318 -0.147549 0.000002 -0.000005 0.000009
Ga 3.175388 -3.747725 5.056797 0.000002 0.000002 0.000016
Ga 3.167459 -3.736749 -5.363313 -0.000039 -0.000022 -0.000012
Ga 3.184616 -3.754382 -0.131867 -0.000014 -0.000012 0.000065
Ga 1.581334 -0.946778 5.067545 0.000005 -0.000004 0.000010
Al 1.581405 -0.955009 -5.365065 0.000004 -0.000001 -0.000003
Ga 1.562522 -0.949453 -0.145629 -0.000002 -0.000002 0.000003
Ga 3.162822 1.809059 5.072797 -0.000003 -0.000007 0.000001
Al 3.171817 1.812336 -5.356569 0.000003 -0.000003 0.000000
Ga 3.173427 1.803350 -0.156449 -0.000003 0.000002 0.000017
Ga 6.383111 -3.746876 5.056519 0.000001 0.000001 0.000014
Ga 6.400529 -3.762031 -5.345859 -0.000003 0.000000 0.000006
Ga 6.380589 -3.744148 -0.145987 -0.000018 -0.000039 0.000006
Ga 4.780646 -0.967184 5.067504 -0.000000 -0.000001 0.000020
Ga 4.763531 -0.957717 -5.337324 0.000002 -0.000004 0.000001
Ga 4.789539 -0.953567 -0.160876 0.000002 0.000000 0.000056
Ga -3.224691 1.822878 5.055145 0.000006 -0.000003 0.000011
Ga -3.226791 1.815636 -5.325614 0.000005 -0.000000 -0.000003
Ga -3.218392 1.801260 -0.168841 -0.000007 0.000002 0.000012
Ga -0.017266 -3.749486 5.067149 0.000008 0.000004 0.000005
Al -0.023141 -3.749191 -5.367200 0.000001 -0.000019 0.000024
Ga -0.023575 -3.731516 -0.139910 -0.000010 -0.000003 -0.000007
Ga -1.624474 -0.962470 5.059831 -0.000010 0.000003 0.000008
Ga -1.604885 -0.957896 -5.325474 -0.000004 -0.000011 -0.000005
Al -1.616491 -0.949183 -0.170352 -0.000004 0.000007 0.000018
N 1.580071 0.886721 4.352929 0.000000 0.000000 -0.000008
N 1.578341 0.888277 -5.963238 -0.000011 -0.000005 0.000005
N 1.534626 0.912243 -0.791845 -0.000001 -0.000002 -0.000003
N -0.025753 3.658067 4.370713 -0.000008 0.000005 -0.000001
N -0.023211 3.606145 -5.948930 -0.000008 -0.000001 -0.000008
N -0.025652 3.606701 -0.767681 0.000002 0.000006 0.000006
N 3.176980 -1.890933 4.428201 0.000008 -0.000004 0.000025
N 3.140067 -1.865153 -6.010562 0.000004 -0.000002 -0.000046
N 3.173608 -1.892559 -0.774267 -0.000004 0.000006 -0.000002
N -4.834888 0.889543 4.440104 -0.000001 -0.000002 -0.000014
N -4.868365 0.912445 -5.949021 0.000007 -0.000001 -0.000005
N -4.835491 0.891709 -0.848383 0.000002 -0.000005 -0.000010
N -6.430235 3.658128 4.424736 -0.000004 0.000003 0.000001
N -6.388782 3.632239 -5.989870 -0.000003 0.000005 -0.000011
N -6.428160 3.660358 -0.787383 0.000003 -0.000001 0.000011
N -3.227065 -1.889032 4.419739 -0.000004 -0.000002 -0.000021
N -3.226455 -1.888834 -5.952971 0.000003 0.000006 -0.000014
N -3.184876 -1.866750 -0.759078 0.000002 0.000019 0.000016
N -1.622759 0.887116 4.407832 -0.000001 -0.000006 -0.000002
N -1.583420 0.911638 -5.952094 -0.000001 0.000013 -0.000011
N -1.576073 0.868297 -0.798183 0.000005 -0.000007 -0.000005
N -3.228225 3.662227 4.366190 0.000005 -0.000012 -0.000001
N -3.268540 3.675756 -6.002553 0.000030 0.000026 0.000005
N -3.230238 3.664826 -0.790253 0.000023 0.000003 0.000019
N -0.019978 -1.890197 4.432123 0.000004 0.000001 -0.000006
N 0.020075 -1.915798 -5.932114 0.000006 -0.000006 -0.000006
N -0.060001 -1.868988 -0.778286 -0.000001 0.000002 -0.000006
N 0.020084 1.835156 1.786056 0.000008 -0.000010 -0.000056
N 0.029538 1.783589 7.026569 -0.000009 0.000000 0.000001
N -0.066683 1.781160 -3.421321 0.000014 0.000026 0.000006
N 3.182402 -3.790939 1.856918 0.000009 -0.000009 -0.000029
N 3.136730 -3.718947 7.058272 -0.000001 -0.000002 0.000001
N 3.180192 -3.739126 -3.389818 -0.000004 -0.000002 -0.000050
N 1.578297 -0.912769 1.833816 -0.000001 0.000014 -0.000004
N 1.619220 -0.927411 7.062209 0.000005 0.000004 -0.000006
N 1.582290 -0.963682 -3.447245 0.000001 -0.000004 -0.000006
N 3.141511 1.784840 1.823366 0.000002 0.000002 -0.000020
N 3.129547 1.833175 7.063224 -0.000004 -0.000002 0.000005
N 3.220358 1.786054 -3.431221 0.000009 0.000005 -0.000016
N 6.341775 -3.766522 1.836047 -0.000007 0.000007 -0.000003
N 6.428254 -3.769884 7.043942 0.000023 0.000017 -0.000013
N 6.386488 -3.741963 -3.370835 -0.000006 -0.000002 -0.000004
N 4.780427 -0.957903 1.813979 0.000005 0.000010 -0.000048
N 4.740504 -0.987402 7.048660 0.000013 0.000006 -0.000011
N 4.781535 -0.919735 -3.358638 -0.000018 0.000009 -0.000003
N -3.230591 1.856435 1.819441 -0.000027 0.000025 -0.000016
N -3.226116 1.863005 7.040465 -0.000023 0.000016 -0.000015
N -3.220366 1.759130 -3.335714 0.000007 -0.000003 -0.000007
N 0.018931 -3.762645 1.839634 0.000005 -0.000003 0.000009
N -0.024119 -3.791291 7.058543 0.000002 0.000000 -0.000008
N -0.022412 -3.742225 -3.449775 -0.000001 0.000011 -0.000003
N -1.621924 -0.961116 1.751837 -0.000031 0.000021 -0.000029
N -1.620745 -0.964336 7.033492 -0.000002 0.000006 -0.000008
N -1.622411 -0.912173 -3.351134 -0.000011 0.000003 0.000012
