108
Energy=-1.672602e+06 Lattice="9.541024e+00 0.000000e+00 0.000000e+00 -4.774316e+00 8.261976e+00 0.000000e+00 3.142339e-03 -5.484621e-03 1.540802e+01" Stress="-1.848097e-03 -1.727090e-04 2.906473e-04 -1.794545e-04 -2.134831e-03 -1.417707e-04 2.841189e-04 -1.557009e-04 -3.489188e-03" Properties=species:S:1:pos:R:3:forces:R:3 Config_type=AlGaN_super3_27_1_32.xyz
Al 1.572863e+00 8.796793e-01 2.397269e+00 6.977126e-04 1.521508e-03 2.750518e-03
Al 1.569916e+00 8.738992e-01 7.547767e+00 7.088643e-05 6.038560e-06 9.717212e-05
Al 1.555491e+00 8.807683e-01 -2.692894e+00 6.398765e-05 5.155055e-05 1.447870e-04
Al -2.511170e-02 3.632083e+00 2.419805e+00 1.495964e-04 6.752611e-06 4.478991e-04
Al -3.399804e-02 3.629157e+00 7.557518e+00 -1.475058e-05 1.121538e-05 1.336422e-04
Ga -3.799045e-02 3.617722e+00 -2.717702e+00 -9.013195e-05 8.202815e-05 1.528892e-04
Al 3.154005e+00 -1.881578e+00 2.441690e+00 -6.345535e-04 6.503290e-04 1.244239e-03
Ga 3.150535e+00 -1.894844e+00 7.542615e+00 -2.495857e-04 2.084371e-04 2.166290e-04
Ga 3.147245e+00 -1.882862e+00 -2.726028e+00 -2.513353e-05 -1.408874e-05 -2.540590e-05
Al -4.800875e+00 8.916914e-01 2.415555e+00 -9.905461e-04 -1.261071e-03 1.231777e-03
Ga -4.791020e+00 8.935246e-01 7.574331e+00 6.766150e-05 -8.753613e-06 4.100951e-05
Ga -4.800420e+00 8.871549e-01 -2.728782e+00 2.673762e-05 -5.421179e-05 1.603494e-04
Al -6.371053e+00 3.631084e+00 2.393517e+00 -1.042549e-03 -2.861392e-04 2.614629e-04
Ga -6.391792e+00 3.618895e+00 7.570160e+00 -2.115874e-04 7.604358e-06 1.743068e-04
Ga -6.379789e+00 3.626167e+00 -2.706665e+00 -6.165204e-05 4.678136e-05 2.821296e-04
Al -3.198398e+00 -1.880966e+00 2.433619e+00 3.796975e-04 4.213190e-04 -7.383604e-05
Ga -3.197184e+00 -1.886365e+00 7.561590e+00 -4.295815e-05 1.411829e-04 8.455591e-05
Ga -3.199240e+00 -1.872677e+00 -2.719997e+00 -2.451654e-04 -5.336724e-05 1.198262e-04
Ga -1.610081e+00 8.846042e-01 2.433857e+00 6.765019e-05 -2.495251e-04 3.607404e-04
Ga -1.620264e+00 8.908892e-01 7.538329e+00 4.427206e-04 -2.952764e-04 2.156765e-04
Al -1.607719e+00 8.897365e-01 -2.710537e+00 2.114555e-04 -4.207385e-05 3.782757e-04
Al -3.206431e+00 3.642060e+00 2.430258e+00 -7.553969e-04 -1.144012e-05 -4.341368e-04
Al -3.184084e+00 3.621423e+00 7.544092e+00 3.518141e-05 -7.812317e-05 2.368176e-04
Al -3.204442e+00 3.636306e+00 -2.719088e+00 -5.357738e-05 3.981942e-05 3.378453e-04
Al -1.317415e-02 -1.881150e+00 2.429472e+00 -2.650363e-04 -7.546923e-04 -5.233721e-04
Ga -9.115437e-03 -1.868113e+00 7.530881e+00 1.393371e-04 1.027111e-04 4.099207e-04
Al -1.613652e-02 -1.873087e+00 -2.696148e+00 1.900360e-05 -1.877808e-04 2.962868e-04
Ga -2.196973e-02 1.792424e+00 4.991358e+00 4.035305e-04 2.636863e-05 -1.741131e-06
Ga -1.763730e-02 1.806961e+00 -5.291941e+00 -8.554772e-05 1.803330e-04 2.225257e-04
Al -1.298801e-02 1.793189e+00 -1.404942e-01 -2.327010e-04 1.935026e-04 1.967825e-07
Al 3.150708e+00 -3.722164e+00 4.969256e+00 -2.034356e-04 -2.938093e-04 3.408725e-06
Al 3.161550e+00 -3.722245e+00 -5.299288e+00 9.822135e-06 1.540162e-04 1.747134e-04
Ga 3.147768e+00 -3.723939e+00 -1.175555e-01 -9.592888e-05 1.734716e-04 -3.498475e-04
Al 1.564398e+00 -9.614589e-01 4.954411e+00 7.620611e-04 1.255406e-03 1.828692e-04
Ga 1.583313e+00 -9.454690e-01 -5.264511e+00 -3.608823e-04 2.438825e-04 4.153160e-04
Ga 1.561738e+00 -9.480212e-01 -1.294630e-01 -3.487234e-04 6.798687e-06 -7.289628e-04
Ga 3.158546e+00 1.785114e+00 4.965592e+00 -2.349173e-04 -1.961730e-04 -1.323956e-04
Al 3.149920e+00 1.791216e+00 -5.280365e+00 5.636616e-05 -8.456667e-06 1.718480e-04
Al 3.145532e+00 1.800571e+00 -1.260091e-01 2.590324e-04 -9.154098e-06 2.225279e-04
Ga 6.334257e+00 -3.713336e+00 4.961173e+00 3.401329e-05 1.016481e-06 3.599865e-04
Al 6.322946e+00 -3.714643e+00 -5.290475e+00 5.142835e-05 8.143627e-06 8.355780e-05
Ga 6.345386e+00 -3.727977e+00 -1.094902e-01 1.137510e-04 1.520438e-04 2.974773e-04
Ga 4.751001e+00 -9.551692e-01 4.959577e+00 -1.872087e-04 2.060280e-04 6.197956e-05
Al 4.747817e+00 -9.547855e-01 -5.292608e+00 -1.059719e-04 -5.441342e-05 -7.058148e-05
Ga 4.742642e+00 -9.507498e-01 -1.014775e-01 -6.612703e-05 1.701255e-04 -6.252149e-05
Al -3.204693e+00 1.805789e+00 4.970086e+00 -1.523616e-04 -1.524219e-04 -3.784073e-04
Al -3.210204e+00 1.811877e+00 -5.269696e+00 1.563986e-04 -3.807238e-05 2.429013e-04
Ga -3.209727e+00 1.812281e+00 -1.484593e-01 1.955647e-04 1.494668e-04 9.118195e-04
Ga -2.766552e-03 -3.711726e+00 4.968983e+00 -2.461399e-04 -2.230121e-04 6.746699e-05
Ga -1.014368e-02 -3.725925e+00 -5.281764e+00 1.006803e-04 1.677699e-07 2.027014e-04
Al -1.490292e-02 -3.714044e+00 -1.338240e-01 1.202167e-04 -1.621025e-04 1.892843e-04
Al -1.605288e+00 -9.586436e-01 4.961503e+00 -4.838202e-05 -6.727951e-05 2.513429e-04
Ga -1.624622e+00 -9.505824e-01 -5.255916e+00 -1.275036e-04 3.551339e-05 2.916844e-04
Ga -1.597067e+00 -9.553773e-01 -1.431570e-01 -1.013591e-04 -1.011530e-04 1.164050e-03
N 1.564321e+00 8.337379e-01 4.312285e+00 -9.351778e-05 1.808561e-04 -6.030648e-04
N 1.607230e+00 8.975206e-01 -5.948516e+00 2.458678e-04 -1.090312e-04 -2.854599e-04
N 1.568852e+00 9.292575e-01 -7.675860e-01 1.886704e-04 -7.123238e-05 -3.952996e-05
N -6.983718e-02 3.646745e+00 4.329222e+00 2.940141e-04 1.608263e-05 -7.646368e-04
N -2.941737e-02 3.681010e+00 -5.927168e+00 -8.147433e-05 3.875872e-06 -2.290788e-04
N -2.711208e-02 3.589106e+00 -7.405631e-01 -5.960611e-05 1.001106e-04 -1.139000e-04
N 3.114588e+00 -1.906949e+00 4.362510e+00 4.989451e-04 -2.812102e-04 -1.065252e-03
N 3.193579e+00 -1.901619e+00 -5.875816e+00 -5.357798e-05 -2.552544e-05 -2.693407e-04
N 3.161934e+00 -1.879350e+00 -7.565173e-01 -2.376343e-04 -8.582425e-05 3.838818e-04
N -4.753222e+00 9.059929e-01 4.326006e+00 5.320979e-04 2.949519e-04 -1.133633e-03
N -4.791999e+00 8.885299e-01 -5.840065e+00 7.548701e-05 1.380299e-04 -1.904948e-04
N -4.841586e+00 9.000678e-01 -7.468920e-01 3.147495e-05 8.149073e-05 -3.337286e-04
N -6.378298e+00 3.628876e+00 4.302246e+00 4.629265e-04 2.271817e-04 -1.563108e-04
N -6.427158e+00 3.608849e+00 -5.857170e+00 -5.419196e-05 4.641862e-05 -2.296156e-04
N -6.342895e+00 3.607939e+00 -7.146713e-01 9.652675e-07 1.418125e-04 -2.170489e-04
N -3.157881e+00 -1.855607e+00 4.335341e+00 1.715410e-04 2.758441e-04 -5.063631e-04
N -3.237452e+00 -1.896358e+00 -5.866190e+00 -3.407184e-05 6.926077e-05 -1.395704e-04
N -3.208708e+00 -1.878530e+00 -7.509817e-01 -6.011837e-05 -7.578547e-05 -2.318418e-04
N -1.651482e+00 8.594157e-01 4.411377e+00 1.455326e-04 -1.818297e-05 -8.373018e-04
N -1.664141e+00 9.051692e-01 -5.890531e+00 2.101997e-04 -1.461033e-04 -2.863029e-04
N -1.575283e+00 9.089140e-01 -7.862062e-01 2.377694e-04 -6.021240e-05 -5.841629e-04
N -3.165119e+00 3.608469e+00 4.339319e+00 6.534833e-04 -1.682384e-04 3.945023e-04
N -3.161628e+00 3.606210e+00 -5.937380e+00 -1.017077e-05 -1.816921e-04 -2.998834e-04
N -3.244221e+00 3.661086e+00 -8.027723e-01 -9.110659e-06 6.254797e-05 -2.402530e-04
N -1.665583e-02 -1.833967e+00 4.347199e+00 -1.379505e-03 -1.477247e-04 -1.670080e-04
N -2.123810e-02 -1.867121e+00 -5.907250e+00 8.722085e-05 -1.854632e-04 -3.003465e-04
N -1.779584e-02 -1.925209e+00 -7.830131e-01 2.766526e-04 -1.255188e-04 -3.073638e-04
N 1.784499e-02 1.819002e+00 1.781549e+00 -5.387683e-04 2.763331e-05 -1.403106e-04
N 2.346077e-02 1.818645e+00 6.975492e+00 -1.977242e-04 2.376363e-04 -4.106083e-04
N -2.077300e-02 1.745884e+00 -3.309353e+00 1.712595e-05 6.281445e-05 -3.969572e-04
N 3.156657e+00 -3.711771e+00 1.859144e+00 1.381859e-04 7.696248e-05 2.852213e-04
N 3.161870e+00 -3.767767e+00 6.899373e+00 -1.625830e-06 6.974174e-05 1.287775e-04
N 3.115834e+00 -3.741528e+00 -3.381915e+00 -3.540248e-05 1.032767e-04 -1.384438e-04
N 1.567685e+00 -9.535957e-01 1.853899e+00 9.634588e-04 -2.365736e-03 -5.136101e-04
N 1.576630e+00 -9.104541e-01 6.876635e+00 -4.111838e-04 4.637116e-05 -1.602819e-04
N 1.524226e+00 -9.260721e-01 -3.283983e+00 -2.009127e-04 1.157732e-04 -7.339072e-05
N 3.155755e+00 1.794845e+00 1.795567e+00 1.230744e-04 -2.731105e-04 8.451758e-05
N 3.119791e+00 1.769629e+00 6.938847e+00 6.280391e-05 1.625320e-05 -2.017088e-04
N 3.101622e+00 1.770766e+00 -3.365915e+00 3.370234e-05 -9.041150e-05 -1.776649e-04
N 6.339270e+00 -3.710170e+00 1.868854e+00 8.913611e-05 -6.420245e-04 -3.339975e-04
N 6.299071e+00 -3.741710e+00 6.940417e+00 4.489649e-05 -5.186872e-05 -2.474789e-04
N 6.335160e+00 -3.717633e+00 -3.379961e+00 1.200863e-04 -7.986085e-05 -1.067933e-04
N 4.748075e+00 -9.590762e-01 1.882341e+00 -6.232923e-04 4.156380e-04 1.542455e-05
N 4.750923e+00 -9.541262e-01 6.931707e+00 -1.611998e-04 -1.026392e-04 1.083253e-04
N 4.745869e+00 -9.566924e-01 -3.388972e+00 -1.740500e-04 -1.429960e-05 -1.175212e-04
N -3.242112e+00 1.825395e+00 1.830569e+00 7.057214e-04 6.908950e-04 -6.612025e-04
N -3.213442e+00 1.843567e+00 6.884379e+00 1.017275e-04 1.016985e-04 3.772418e-04
N -3.163964e+00 1.826414e+00 -3.341579e+00 8.247467e-05 -8.941644e-06 -1.524737e-04
N -9.923645e-03 -3.706125e+00 1.799419e+00 6.891072e-04 4.004874e-04 4.616870e-04
N 2.194259e-02 -3.743518e+00 6.950604e+00 1.310786e-04 6.341116e-06 -2.627827e-04
N 1.933279e-02 -3.686220e+00 -3.300677e+00 1.765212e-04 -1.977815e-05 -3.786683e-04
N -1.604892e+00 -1.001130e+00 1.837359e+00 -2.544276e-04 -1.957414e-04 -2.570085e-04
N -1.613047e+00 -9.609535e-01 6.873287e+00 -1.877056e-04 -5.313111e-05 -4.393458e-04
N -1.567899e+00 -9.293348e-01 -3.277879e+00 -8.735660e-05 -8.166805e-05 -5.304372e-05
