108
Energy=-8.486421e+05 Lattice="9.462075e+00 0.000000e+00 0.000000e+00 -4.746725e+00 8.187479e+00 0.000000e+00 -1.465175e-02 -6.618441e-03 1.524144e+01" Stress="4.523378e-03 2.131817e-03 -3.923789e-04 2.124294e-03 2.743588e-03 -1.170652e-03 -3.917584e-04 -1.170578e-03 9.604680e-03" Properties=species:S:1:pos:R:3:forces:R:3 Config_type=AlGaN_super3_9_1_4.xyz
Al 1.515600e+00 8.625154e-01 2.419210e+00 8.135360e-03 9.890835e-03 3.187631e-03
Al 1.547145e+00 8.807511e-01 7.474331e+00 -8.957817e-05 -7.386852e-03 9.620135e-05
Al 1.559577e+00 8.866927e-01 -2.720707e+00 1.418020e-03 -7.676013e-03 -1.482426e-03
Al -2.272758e-02 3.583605e+00 2.420877e+00 8.821385e-03 5.905280e-02 2.271666e-02
Al -2.761626e-02 3.593271e+00 7.470539e+00 -9.530713e-04 -1.157449e-04 -2.481661e-04
Al -1.244865e-02 3.595439e+00 -2.731520e+00 -1.850021e-03 8.104075e-04 3.470923e-03
Al 3.133640e+00 -1.864113e+00 2.417966e+00 7.581086e-03 -4.188336e-03 5.011810e-04
Al 3.153106e+00 -1.874786e+00 7.470605e+00 -7.529891e-04 -9.361209e-04 1.073417e-03
Al 3.160100e+00 -1.866597e+00 -2.731236e+00 -9.415665e-04 -1.006400e-03 2.892133e-03
Al -4.785202e+00 8.830873e-01 2.422719e+00 -3.081544e-03 -1.455123e-02 -1.322460e-03
Al -4.784323e+00 8.820399e-01 7.472346e+00 2.049653e-03 -6.870369e-03 -2.621906e-04
Al -4.762300e+00 8.953609e-01 -2.703559e+00 1.457891e-03 -6.083709e-03 1.860785e-03
Al -6.349931e+00 3.597494e+00 2.418641e+00 -5.657609e-03 -3.552332e-05 -1.184938e-03
Al -6.352927e+00 3.596490e+00 7.476090e+00 -4.346029e-03 -2.577935e-03 3.471384e-03
Al -6.328310e+00 3.606386e+00 -2.710376e+00 1.753868e-03 1.638223e-04 3.390362e-03
Al -3.169483e+00 -1.868704e+00 2.420830e+00 -3.603318e-04 -9.318594e-04 -3.302613e-03
Al -3.178944e+00 -1.869707e+00 7.472408e+00 9.627566e-05 -4.274146e-04 1.088531e-03
Ga -3.155108e+00 -1.861567e+00 -2.712492e+00 -9.029740e-04 1.014853e-04 4.940697e-04
Al -1.599187e+00 8.938600e-01 2.408913e+00 2.112173e-03 -2.121356e-03 6.268260e-04
Al -1.644830e+00 8.865794e-01 7.472444e+00 8.503008e-03 -4.168597e-03 -7.778639e-04
Al -1.620516e+00 8.936929e-01 -2.711719e+00 5.278077e-03 -3.425560e-03 -1.284374e-02
Ga -3.198963e+00 3.580882e+00 2.409359e+00 9.037492e-03 6.607960e-03 -8.758144e-04
Al -3.210684e+00 3.602420e+00 7.479785e+00 7.667632e-03 7.745905e-04 1.571123e-03
Al -3.197097e+00 3.613438e+00 -2.713488e+00 4.506601e-03 1.287110e-03 -2.830167e-03
Al -1.189160e-02 -1.853906e+00 2.401055e+00 -1.001113e-02 -4.666941e-04 5.226397e-03
Ga -4.143737e-02 -1.869772e+00 7.485442e+00 8.379252e-03 5.740762e-03 -9.963461e-04
Al -1.888829e-02 -1.854494e+00 -2.722966e+00 6.867702e-03 -8.177049e-04 1.354240e-03
Al -2.413801e-02 1.778769e+00 4.953558e+00 -6.207281e-03 3.792247e-04 -5.655941e-04
Al -4.608423e-03 1.786128e+00 -5.249026e+00 -7.400367e-03 -2.443779e-03 -1.361238e-04
Ga -3.202528e-02 1.768010e+00 -1.658059e-01 -2.978705e-03 4.912418e-03 5.379928e-03
Al 3.131330e+00 -3.697015e+00 4.947763e+00 1.084732e-02 3.021671e-03 3.648915e-03
Al 3.168615e+00 -3.677554e+00 -5.247601e+00 -6.473854e-03 -2.921419e-03 3.349639e-04
Ga 3.154950e+00 -3.691151e+00 -1.558778e-01 -6.983555e-03 -4.906706e-03 -1.494649e-03
Al 1.585653e+00 -9.680711e-01 4.951953e+00 -8.385630e-03 4.424321e-03 -9.283318e-05
Al 1.598903e+00 -9.641414e-01 -5.240210e+00 -7.632252e-03 5.037867e-03 -1.287106e-03
Ga 1.584354e+00 -9.791673e-01 -1.478865e-01 -1.107219e-02 5.069762e-03 -6.262534e-03
Al 3.109935e+00 1.780145e+00 4.947246e+00 -5.211074e-05 -6.163178e-04 1.038387e-03
Al 3.125102e+00 1.791783e+00 -5.242367e+00 3.686592e-04 3.486669e-04 2.146293e-03
Ga 3.124906e+00 1.791142e+00 -1.420632e-01 1.235481e-03 5.035817e-04 2.086009e-03
Al 6.285264e+00 -3.687795e+00 4.948333e+00 -2.149932e-03 -3.794460e-05 -1.330780e-03
Al 6.304992e+00 -3.680512e+00 -5.247474e+00 1.770989e-04 7.850551e-04 6.870776e-04
Al 6.298873e+00 -3.676923e+00 -1.921537e-01 6.948079e-04 -1.689543e-03 1.957136e-02
Al 4.718893e+00 -9.729257e-01 4.948330e+00 -9.727589e-04 5.770803e-03 -1.902684e-03
Al 4.728638e+00 -9.615909e-01 -5.246394e+00 3.465851e-05 6.835306e-03 1.376475e-04
Al 4.732363e+00 -9.672154e-01 -1.903873e-01 -2.426351e-03 8.502254e-03 1.642408e-02
Al -3.209638e+00 1.786170e+00 4.947500e+00 2.161074e-03 -4.670548e-03 4.706978e-03
Ga -3.195922e+00 1.796596e+00 -5.240294e+00 6.184659e-04 -5.322514e-04 2.699284e-03
Al -3.189565e+00 1.778718e+00 -1.075057e-01 -5.943996e-03 2.552356e-03 -2.661289e-02
Ga -2.021762e-02 -3.691224e+00 4.958742e+00 -2.712358e-03 2.581432e-03 -2.005534e-04
Al -2.066469e-02 -3.669050e+00 -5.237419e+00 -2.317840e-05 -1.497841e-03 2.331710e-03
Al -2.740194e-02 -3.661889e+00 -1.037284e-01 -5.838976e-04 -1.747793e-03 -2.116586e-02
Al -1.605098e+00 -9.617716e-01 4.944627e+00 -1.194899e-03 5.476942e-03 -2.028573e-04
Al -1.585444e+00 -9.563333e-01 -5.241635e+00 -3.323078e-03 7.555602e-03 -2.497750e-04
Al -1.610502e+00 -9.143535e-01 -2.022290e-01 3.165976e-03 -1.710522e-02 1.357325e-02
N 1.541458e+00 8.769402e-01 4.351540e+00 -9.442410e-04 -9.238106e-03 -2.387473e-03
N 1.559633e+00 8.863200e-01 -5.841526e+00 7.623559e-04 -8.198972e-03 -1.431552e-04
N 1.552926e+00 8.786909e-01 -7.971755e-01 -1.712990e-03 -9.267908e-03 -7.172440e-03
N -3.563313e-02 3.590222e+00 4.352143e+00 -2.742043e-04 1.613362e-03 2.212558e-03
N -1.139171e-02 3.600698e+00 -5.846441e+00 -1.133360e-03 -2.899346e-04 -5.678709e-04
N -9.770662e-03 3.599044e+00 -7.942612e-01 1.095517e-02 4.938507e-03 -1.268650e-02
N 3.142609e+00 -1.878991e+00 4.349688e+00 -2.054016e-03 6.517810e-04 -3.162122e-03
N 3.164187e+00 -1.867983e+00 -5.844457e+00 -1.559310e-03 6.954573e-04 -1.737905e-03
N 3.168112e+00 -1.868616e+00 -7.910497e-01 9.750514e-03 8.396061e-03 -8.310751e-03
N -4.780982e+00 8.820589e-01 4.351424e+00 3.124647e-03 -4.559697e-03 -7.906981e-04
N -4.781791e+00 8.818246e-01 -5.847952e+00 -1.005234e-02 -1.410688e-02 -5.169971e-03
N -4.751190e+00 8.811311e-01 -7.687267e-01 1.167941e-02 -1.529800e-02 -3.018844e-03
N -6.358091e+00 3.584853e+00 4.345648e+00 -8.548524e-03 -5.603668e-03 -6.770426e-03
N -6.334888e+00 3.605255e+00 -5.841683e+00 3.167844e-04 -3.730055e-04 -6.384282e-04
N -6.333085e+00 3.622929e+00 -7.713702e-01 -7.637676e-04 1.195498e-02 -3.177274e-03
N -3.170689e+00 -1.871917e+00 4.350264e+00 4.888785e-04 1.432513e-03 -8.417719e-04
N -3.159971e+00 -1.863969e+00 -5.841705e+00 3.121663e-05 1.021313e-03 -1.330266e-03
N -3.158735e+00 -1.863960e+00 -7.602203e-01 -4.043469e-03 6.169710e-04 1.261736e-02
N -1.640827e+00 8.856788e-01 4.345996e+00 8.468519e-03 -4.509704e-03 -3.550320e-03
N -1.614197e+00 8.852990e-01 -5.848868e+00 1.991239e-02 -1.145551e-02 -3.813848e-03
N -1.662026e+00 8.377945e-01 -8.339855e-01 9.943662e-04 1.276973e-02 1.961622e-02
N -3.158737e+00 3.591634e+00 4.370163e+00 1.234877e-03 -8.044707e-03 -2.128405e-04
N -3.198781e+00 3.627946e+00 -5.843546e+00 7.244059e-03 1.590970e-02 -4.721873e-03
N -3.231484e+00 3.589437e+00 -8.198446e-01 -7.805474e-04 -2.797738e-03 2.070438e-02
N -3.221657e-02 -1.854241e+00 4.343162e+00 6.993493e-03 1.477429e-02 -7.869481e-03
N -2.334847e-02 -1.858190e+00 -5.818081e+00 8.009556e-03 3.284684e-03 1.409788e-02
N -6.509053e-02 -1.866478e+00 -7.996353e-01 2.217405e-03 -1.981364e-03 4.897055e-03
N 3.876193e-02 1.964711e+00 1.853302e+00 -2.071730e-02 -1.014646e-01 -2.101771e-02
N -2.256795e-02 1.779861e+00 6.876155e+00 -6.584469e-03 -3.936029e-03 1.090641e-05
N -6.605132e-03 1.786952e+00 -3.323870e+00 -6.882301e-03 -3.764339e-03 1.297547e-03
N 3.204855e+00 -3.702372e+00 1.806024e+00 -1.562234e-02 1.491969e-02 6.966091e-03
N 3.150008e+00 -3.689009e+00 6.874336e+00 -7.908406e-03 -1.762786e-03 8.730864e-04
N 3.168215e+00 -3.681111e+00 -3.325630e+00 -6.350937e-03 -2.065781e-03 1.349839e-03
N 1.544935e+00 -9.592964e-01 1.825010e+00 3.642708e-03 3.647190e-03 6.626671e-03
N 1.598279e+00 -9.651864e-01 6.873477e+00 9.641329e-04 1.048396e-02 -3.026259e-03
N 1.599471e+00 -9.630505e-01 -3.322026e+00 -8.541308e-03 5.439439e-03 2.680165e-03
N 3.098141e+00 1.768155e+00 1.824118e+00 4.567163e-03 2.047235e-03 1.063649e-02
N 3.112226e+00 1.786213e+00 6.874681e+00 2.040351e-05 -9.859528e-04 -2.607747e-03
N 3.132194e+00 1.795195e+00 -3.310722e+00 -2.125993e-04 -1.151994e-03 -1.184385e-03
N 6.290240e+00 -3.685872e+00 1.841684e+00 4.547312e-03 5.967879e-03 -1.742971e-02
N 6.287971e+00 -3.685227e+00 6.875520e+00 7.726697e-04 4.334293e-04 -8.957856e-04
N 6.307359e+00 -3.694003e+00 -3.323419e+00 -2.188741e-05 -1.297956e-02 -4.578534e-03
N 4.716242e+00 -9.662351e-01 1.842441e+00 -3.673676e-03 6.979749e-03 -1.585351e-02
N 4.718302e+00 -9.697537e-01 6.874533e+00 -1.418894e-03 8.100450e-03 -8.458074e-04
N 4.721222e+00 -9.504973e-01 -3.322008e+00 -1.253876e-02 1.411787e-02 -3.351331e-03
N -3.226465e+00 1.741161e+00 1.764706e+00 1.405484e-02 -5.024907e-03 7.313043e-03
N -3.211398e+00 1.790103e+00 6.877840e+00 5.753584e-04 -8.719765e-04 -3.075799e-03
N -3.192529e+00 1.797244e+00 -3.293666e+00 1.694117e-03 -1.217186e-03 1.083949e-02
N -3.606809e-02 -3.656739e+00 1.791782e+00 -6.512042e-03 -9.353287e-04 6.294893e-04
N -4.629574e-02 -3.707126e+00 6.903842e+00 5.823927e-03 -9.853173e-03 3.497765e-03
N -1.821375e-02 -3.671720e+00 -3.315003e+00 3.970702e-04 7.574511e-04 -2.824550e-03
N -1.591638e+00 -9.624844e-01 1.778434e+00 3.386620e-03 1.600433e-02 -2.215676e-03
N -1.619650e+00 -9.575552e-01 6.870219e+00 -1.160210e-02 1.419605e-02 -6.182737e-03
N -1.573920e+00 -9.462230e-01 -3.324717e+00 1.031805e-02 1.435447e-02 -3.859018e-03
