108
Energy=-1077520.918995 Lattice="9.472518 0.000000 0.000000 -4.739761 8.199074 0.000000 0.000058 0.003529 15.262662" Stress="0.000002 -0.000002 -0.000000 -0.000002 -0.000003 0.000001 -0.000000 0.000001 0.000006" Properties=species:S:1:pos:R:3:forces:R:3
Al 1.555307 0.866461 2.376601 -0.000065 0.000312 -0.000541
Al 1.549853 0.857736 7.486758 0.000356 0.000149 0.000122
Al 1.556303 0.855616 -2.685139 0.000102 0.000229 -0.000174
Al -0.011377 3.599817 2.383912 -0.000437 0.001227 -0.000307
Al -0.027665 3.606802 7.491033 0.000236 -0.000018 0.000309
Al -0.037216 3.602540 -2.689093 -0.000069 0.000155 0.000253
Al 3.132663 -1.846369 2.380054 -0.000517 0.000146 0.000426
Al 3.133653 -1.852589 7.497515 -0.000022 0.000022 0.000422
Al 3.128634 -1.861814 -2.703955 0.000148 -0.000162 0.000015
Al -4.781437 0.862235 2.386811 -0.000243 0.000445 -0.000179
Al -4.763396 0.858501 7.502859 0.000370 0.000192 0.000417
Al -4.773387 0.861555 -2.701193 -0.000637 -0.000238 0.000894
Al -6.348952 3.603016 2.369060 0.001984 -0.000984 -0.000468
Ga -6.345936 3.606811 7.516423 -0.000118 0.000003 -0.000020
Ga -6.334776 3.592328 -2.697230 -0.000051 0.000512 0.000173
Ga -3.191744 -1.869719 2.406586 -0.000152 0.000324 0.000286
Al -3.183623 -1.852789 7.482480 -0.000022 -0.000001 0.000228
Ga -3.189175 -1.855662 -2.703047 0.000123 0.000130 0.000544
Ga -1.584408 0.879333 2.413853 0.000533 0.000375 0.000561
Al -1.595978 0.867922 7.479860 0.000194 -0.000138 0.000074
Al -1.594759 0.873210 -2.696478 0.000128 -0.000123 -0.000001
Ga -3.184836 3.624934 2.375814 0.000306 -0.000347 -0.000334
Al -3.172029 3.615195 7.515197 -0.000203 -0.000367 0.000143
Al -3.169452 3.619271 -2.693805 -0.000701 -0.000025 -0.000229
Al -0.003170 -1.857937 2.398816 -0.000023 0.000645 -0.000111
Al -0.014873 -1.841883 7.501566 0.000069 -0.000166 0.000203
Al -0.000466 -1.854750 -2.711675 -0.000798 -0.000107 0.000083
Al -0.007873 1.782557 4.956378 -0.000479 -0.000452 -0.000204
Ga -0.011172 1.779975 -5.230030 0.000021 0.000210 0.000284
Al -0.005265 1.792567 -0.169732 -0.000516 0.000218 0.000031
Ga 3.160383 -3.668882 4.955144 -0.000059 0.000400 0.000105
Al 3.141026 -3.669573 -5.235440 0.000049 0.000241 0.000308
Al 3.149825 -3.670339 -0.167492 0.000134 0.000351 0.000110
Al 1.554405 -0.942931 4.939272 -0.000090 0.000072 0.000285
Al 1.564125 -0.958529 -5.234629 -0.000283 0.000159 0.000314
Al 1.567832 -0.954272 -0.165453 0.000373 -0.000082 0.001092
Ga 3.118297 1.772015 4.928925 -0.000044 0.000264 -0.000351
Al 3.127987 1.766453 -5.231333 0.000097 -0.000132 0.000159
Al 3.124962 1.772202 -0.151137 -0.000352 0.000771 0.002599
Al 6.286329 -3.680216 4.944208 0.000654 -0.000564 -0.000124
Al 6.286087 -3.676175 -5.240721 0.000210 0.000006 0.000382
Al 6.283150 -3.696776 -0.144340 0.000155 -0.000182 -0.000981
Al 4.709857 -0.954048 4.957711 -0.000135 -0.000464 0.000060
Al 4.705240 -0.959362 -5.247540 0.000017 -0.000205 0.000123
Al 4.691717 -0.954485 -0.156467 -0.000249 -0.000158 -0.000416
Ga -3.183623 1.766407 4.972799 0.000000 0.000182 0.000183
Ga -3.192778 1.780535 -5.226918 0.000133 -0.000046 -0.000057
Ga -3.192627 1.784797 -0.175556 0.000249 0.000204 -0.000213
Ga -0.034974 -3.658938 4.953920 -0.000156 -0.000268 0.000178
Al -0.016364 -3.668627 -5.232048 -0.000064 0.000058 0.000142
Al -0.022135 -3.668995 -0.157551 0.001201 -0.000886 -0.000196
Al -1.593388 -0.957775 4.963430 0.000142 0.000802 -0.000367
Al -1.597767 -0.964403 -5.245616 0.000003 -0.000241 -0.000099
Ga -1.583973 -0.960143 -0.154739 -0.000257 0.000048 0.000095
N 1.507496 0.844987 4.299565 0.000160 0.000326 0.000038
N 1.592085 0.840066 -5.863538 0.000173 0.000058 -0.000289
N 1.558936 0.865593 -0.762968 0.000174 0.000225 0.000255
N 0.017807 3.578463 4.310008 -0.000121 -0.000030 -0.000348
N -0.025065 3.646819 -5.861275 -0.000097 -0.000120 -0.000134
N -0.023301 3.608212 -0.771242 -0.000150 -0.000039 0.000092
N 3.135604 -1.809453 4.309139 0.000040 -0.000078 -0.000136
N 3.132977 -1.861218 -5.844101 -0.000085 -0.000050 -0.000265
N 3.136253 -1.860968 -0.779834 -0.000326 0.000047 -0.000188
N -4.759888 0.819714 4.297586 0.000014 0.000456 0.000134
N -4.803631 0.843386 -5.853343 0.000277 0.000252 -0.000056
N -4.813077 0.843083 -0.786184 0.000801 -0.000102 -0.000997
N -6.378320 3.629785 4.286319 -0.000857 0.000590 0.001652
N -6.340626 3.601956 -5.768492 0.000051 0.000040 -0.000276
N -6.338527 3.602981 -0.708640 -0.000226 -0.000433 -0.000959
N -3.182534 -1.858367 4.396439 0.000124 -0.000056 -0.000297
N -3.179929 -1.861632 -5.848598 -0.000078 0.000162 -0.000304
N -3.221337 -1.885440 -0.725874 -0.000255 -0.000038 -0.000278
N -1.558831 0.852639 4.391563 0.000513 -0.000397 0.000324
N -1.600968 0.824408 -5.873693 0.000034 0.000349 -0.000220
N -1.559340 0.891565 -0.794014 0.000355 0.000322 -0.000081
N -3.180172 3.609312 4.338621 -0.000047 -0.000118 -0.000258
N -3.179028 3.653082 -5.838635 0.000057 -0.000365 -0.000135
N -3.178204 3.661226 -0.776883 -0.000637 0.000170 0.000495
N -0.017833 -1.808981 4.315280 -0.000141 -0.000181 0.000123
N -0.017876 -1.854942 -5.841563 0.000187 -0.000344 -0.000025
N 0.027104 -1.880943 -0.796495 -0.000514 -0.000180 -0.001283
N 0.015731 1.811189 1.750858 0.000995 -0.001381 -0.000404
N -0.016348 1.787113 6.883517 0.000088 0.000169 -0.000132
N -0.018486 1.781135 -3.250521 0.000444 0.000250 -0.000319
N 3.185355 -3.650401 1.758357 0.001045 -0.001043 0.000464
N 3.139816 -3.677366 6.935013 0.000021 0.000229 -0.000500
N 3.141266 -3.683005 -3.308209 0.000163 0.000134 -0.000056
N 1.557359 -0.952948 1.766472 0.000009 0.000460 -0.000359
N 1.558781 -0.952680 6.870088 -0.000185 0.000268 -0.000497
N 1.562522 -0.949850 -3.312418 -0.000166 0.000189 0.000139
N 3.131761 1.778596 1.784526 -0.000187 -0.000037 -0.001195
N 3.133335 1.737936 6.905378 -0.000402 0.000157 -0.000245
N 3.127165 1.727431 -3.320505 -0.000237 0.000245 0.000216
N 6.294118 -3.728005 1.764217 -0.002156 0.000626 0.000571
N 6.253417 -3.661194 6.863760 0.000321 -0.000276 -0.000303
N 6.249178 -3.709218 -3.336056 0.000195 -0.000111 -0.000023
N 4.672592 -0.928035 1.757650 0.000344 -0.000134 0.000116
N 4.709685 -0.948497 6.882923 -0.000118 -0.000247 -0.000164
N 4.670749 -0.930259 -3.334149 -0.000160 -0.000266 -0.000312
N -3.220253 1.757514 1.794746 -0.000518 -0.000110 0.000184
N -3.187128 1.787602 6.954547 -0.000260 -0.000213 -0.000204
N -3.187427 1.782065 -3.239361 0.000843 0.000371 -0.000385
N -0.062489 -3.647098 1.759404 -0.000702 -0.000767 0.000118
N 0.015564 -3.653759 6.927862 -0.000042 -0.000109 -0.000098
N 0.021756 -3.660010 -3.320129 -0.000036 0.000169 -0.000118
N -1.559253 -0.971790 1.808579 -0.000138 -0.000620 0.000361
N -1.596425 -0.955058 6.885356 -0.000105 -0.000151 -0.000024
N -1.559920 -0.928048 -3.326654 0.000276 -0.000765 0.000352
