108
Energy=-1214847.397302 Lattice="9.487571 0.000000 0.000000 -4.745248 8.213237 0.000000 0.001673 -0.002881 15.300080" Stress="-0.000001 -0.000001 0.000001 -0.000001 -0.000003 -0.000000 0.000001 -0.000000 0.000002" Properties=species:S:1:pos:R:3:forces:R:3
Al 1.558135 0.873943 2.395063 -0.000240 0.000127 -0.000031
Al 1.560735 0.879700 7.530883 -0.000128 0.000146 -0.000036
Al 1.556606 0.878939 -2.724597 0.000207 -0.000095 0.000200
Al -0.018805 3.606460 2.416123 0.000303 0.000340 -0.000134
Al -0.029239 3.609716 7.487720 -0.000026 -0.000084 0.000085
Al -0.024424 3.599555 -2.701769 0.000406 -0.000024 0.000054
Al 3.143063 -1.862122 2.410576 -0.000307 -0.000186 -0.000397
Al 3.156515 -1.869101 7.516446 -0.000093 0.000088 -0.000013
Ga 3.135204 -1.862489 -2.719706 -0.000044 0.000064 0.000221
Al -4.770032 0.871796 2.435069 -0.000230 -0.000264 -0.000212
Al -4.766789 0.862185 7.511414 0.000102 -0.000092 0.000095
Al -4.771828 0.882318 -2.738551 -0.000025 -0.000142 0.000023
Al -6.358395 3.605628 2.405893 -0.000199 0.000439 -0.000054
Ga -6.348045 3.604785 7.514565 -0.000020 0.000148 0.000172
Al -6.346797 3.602223 -2.711379 -0.000394 -0.000086 0.000060
Ga -3.192975 -1.873523 2.400576 0.000073 0.000148 -0.000222
Al -3.208217 -1.865754 7.507811 -0.000125 -0.000181 -0.000039
Ga -3.173847 -1.859341 -2.694046 -0.000040 0.000132 0.000139
Al -1.599363 0.882103 2.422203 -0.000354 -0.000489 0.000102
Ga -1.603624 0.893206 7.522976 0.000256 -0.000132 0.000054
Al -1.596633 0.873619 -2.735530 0.000059 -0.000261 -0.000346
Ga -3.182412 3.610215 2.409057 -0.000011 0.000079 -0.000163
Al -3.179619 3.610890 7.503779 0.000196 -0.000106 0.000114
Ga -3.182808 3.609097 -2.704832 0.000035 -0.000094 0.000068
Ga -0.016548 -1.859763 2.387107 0.000199 0.000095 -0.000008
Ga -0.011683 -1.873271 7.531644 0.000074 0.000032 0.000251
Al -0.023420 -1.851720 -2.708381 -0.000051 -0.000108 0.000088
Al -0.025363 1.800254 4.944625 0.000158 -0.000244 -0.000063
Al -0.022334 1.789324 -5.235840 0.000100 0.000033 0.000115
Ga -0.027956 1.784724 -0.156529 -0.000063 0.000040 0.000135
Al 3.148868 -3.693956 4.966464 -0.000165 -0.000067 -0.000106
Al 3.137409 -3.694782 -5.280021 -0.000127 0.000051 0.000123
Al 3.149552 -3.683999 -0.136228 -0.000456 0.000250 0.000311
Ga 1.573746 -0.955184 4.970948 -0.000292 0.000208 -0.000106
Al 1.560690 -0.946038 -5.253781 -0.000064 -0.000010 0.000203
Al 1.552310 -0.963647 -0.159491 -0.000175 0.000154 -0.000035
Ga 3.138298 1.786811 4.952028 0.000200 0.000031 0.000006
Al 3.143054 1.774793 -5.246480 0.000012 -0.000157 0.000078
Ga 3.138380 1.792785 -0.146516 0.000138 -0.000019 0.000247
Al 6.291150 -3.694586 4.961744 0.000001 0.000109 -0.000164
Ga 6.291443 -3.691512 -5.247379 -0.000004 0.000037 0.000247
Al 6.306427 -3.700153 -0.157023 -0.000014 0.000094 -0.000141
Al 4.718462 -0.960697 4.969010 0.000138 0.000440 -0.000058
Al 4.718965 -0.941395 -5.270409 -0.000097 0.000012 0.000070
Ga 4.713913 -0.955179 -0.138254 -0.000144 -0.000095 0.000295
Al -3.185883 1.791318 4.964506 0.000149 -0.000110 0.000042
Al -3.192848 1.790808 -5.257001 -0.000079 -0.000009 0.000417
Ga -3.181883 1.778334 -0.149879 0.000005 0.000006 0.000230
Al -0.019169 -3.703316 4.960007 -0.000051 0.000167 0.000123
Al -0.009883 -3.688480 -5.230950 -0.000006 0.000101 0.000233
Al -0.032670 -3.675108 -0.170212 0.000234 0.000125 -0.000077
Ga -1.615396 -0.948993 4.965343 0.000049 0.000166 -0.000043
Al -1.602365 -0.946055 -5.242924 0.000101 -0.000266 0.000230
Al -1.587469 -0.953146 -0.161459 -0.000142 -0.000034 0.000087
N 1.514949 0.889649 4.301694 -0.000141 0.000201 0.000225
N 1.553015 0.881423 -5.847590 0.000041 -0.000033 0.000003
N 1.560224 0.826770 -0.805126 -0.000082 0.000080 -0.000164
N -0.024495 3.614521 4.345077 -0.000045 -0.000090 -0.000032
N -0.064112 3.581182 -5.898372 0.000035 0.000012 -0.000139
N -0.030095 3.656607 -0.783813 0.000434 -0.000049 0.000007
N 3.180655 -1.893029 4.332973 -0.000074 -0.000103 -0.000143
N 3.141842 -1.864229 -5.861194 -0.000052 0.000009 -0.000150
N 3.099781 -1.891595 -0.743148 -0.000025 -0.000076 -0.000061
N -4.724325 0.846406 4.346274 0.000114 -0.000345 0.000418
N -4.767381 0.876598 -5.867577 0.000074 0.000061 0.000033
N -4.770057 0.873221 -0.833544 0.000130 0.000118 0.000025
N -6.352227 3.662277 4.330435 0.000007 -0.000075 -0.000210
N -6.305596 3.590083 -5.816229 0.000136 0.000075 -0.000117
N -6.347444 3.652302 -0.793098 -0.000320 -0.000132 -0.000029
N -3.227830 -1.892403 4.376271 -0.000060 -0.000171 -0.000014
N -3.185674 -1.818925 -5.876015 -0.000012 0.000039 -0.000021
N -3.144782 -1.886699 -0.716025 0.000052 -0.000014 0.000219
N -1.605548 0.921986 4.340811 -0.000024 0.000172 0.000001
N -1.602113 0.881899 -5.798233 0.000043 -0.000020 -0.000243
N -1.605529 0.828473 -0.823036 0.000301 -0.000163 0.000215
N -3.182513 3.613749 4.394694 0.000306 0.000018 0.000052
N -3.191122 3.613608 -5.867000 -0.000052 -0.000070 0.000004
N -3.180258 3.658710 -0.723191 -0.000060 0.000058 0.000049
N -0.020376 -1.910186 4.358617 0.000253 -0.000242 -0.000090
N -0.021618 -1.867048 -5.797197 -0.000147 -0.000129 -0.000064
N -0.020532 -1.860814 -0.774011 0.000192 -0.000010 0.000031
N -0.028064 1.786736 1.833600 0.000566 0.000164 -0.000060
N 0.023396 1.803944 6.867094 0.000105 0.000178 -0.000077
N -0.018427 1.793231 -3.314630 -0.000032 0.000076 0.000081
N 3.187904 -3.668136 1.784142 0.000061 0.000228 -0.000010
N 3.140669 -3.688077 6.896610 0.000052 0.000047 -0.000091
N 3.185515 -3.716779 -3.369693 -0.000221 0.000096 -0.000354
N 1.603964 -0.928576 1.763125 0.000029 -0.000145 0.000360
N 1.605532 -0.925347 6.947080 0.000150 -0.000299 -0.000064
N 1.520821 -0.926700 -3.340024 -0.000341 0.000154 -0.000117
N 3.144519 1.784965 1.847476 -0.000004 -0.000162 -0.000182
N 3.138692 1.734233 6.927784 -0.000214 -0.000084 0.000015
N 3.137605 1.786355 -3.324639 -0.000062 -0.000065 0.000043
N 6.300432 -3.747358 1.765334 -0.000117 -0.000298 0.000384
N 6.263797 -3.670005 6.881836 -0.000208 0.000067 0.000428
N 6.298190 -3.735675 -3.278047 -0.000042 -0.000179 -0.000008
N 4.677536 -0.921554 1.831883 0.000095 -0.000008 -0.000558
N 4.717481 -0.952093 6.897571 -0.000125 -0.000023 -0.000176
N 4.724929 -0.909185 -3.360991 -0.000034 0.000023 -0.000143
N -3.187968 1.733412 1.829003 0.000134 0.000096 -0.000192
N -3.228100 1.807781 6.886037 0.000022 -0.000129 -0.000296
N -3.186488 1.745835 -3.341806 -0.000156 0.000142 -0.000415
N -0.067315 -3.716735 1.743532 0.000021 0.000023 0.000145
N 0.017739 -3.714658 6.865085 -0.000086 -0.000012 -0.000368
N -0.058786 -3.664072 -3.316913 0.000227 0.000234 -0.000297
N -1.604190 -0.897325 1.756314 0.000094 0.000209 -0.000117
N -1.642517 -0.972102 6.929945 -0.000030 0.000091 -0.000264
N -1.564250 -0.931820 -3.333711 0.000061 -0.000055 0.000059
