108
Energy=-1.306397e+06 Lattice="9.480987e+00 0.000000e+00 0.000000e+00 -4.747887e+00 8.206726e+00 0.000000e+00 -5.687204e-03 9.580555e-04 1.530184e+01" Stress="-1.474156e-02 2.718658e-03 2.754034e-04 2.714183e-03 -9.115208e-03 6.386486e-04 2.728173e-04 6.434321e-04 -4.118961e-03" Properties=species:S:1:pos:R:3:forces:R:3 Config_type=AlGaN_super3_19_0_2.xyz
Al 1.578261e+00 8.858856e-01 2.440795e+00 -1.525883e-03 -5.820114e-03 -2.314587e-04
Al 1.555144e+00 8.514512e-01 7.501456e+00 2.373814e-03 8.930337e-03 4.154397e-03
Al 1.541804e+00 8.814383e-01 -2.748010e+00 3.505184e-03 -5.172273e-03 5.171201e-03
Al -1.901677e-02 3.622633e+00 2.421212e+00 -8.723417e-03 -8.929036e-03 7.701852e-03
Al 7.488271e-04 3.582772e+00 7.538279e+00 -9.406659e-03 1.400330e-02 -1.847761e-02
Ga -1.552764e-02 3.601067e+00 -2.724576e+00 1.276174e-03 -1.007113e-03 4.688238e-03
Al 3.173843e+00 -1.862190e+00 2.422281e+00 -4.681223e-02 -3.353342e-02 2.445102e-02
Al 3.147913e+00 -1.846922e+00 7.497220e+00 6.245833e-03 -9.421219e-03 -4.991068e-04
Ga 3.144552e+00 -1.871565e+00 -2.741668e+00 5.513087e-04 4.073768e-03 6.476537e-03
Al -4.775930e+00 8.881520e-01 2.427874e+00 5.758590e-03 -1.308285e-02 8.859107e-03
Al -4.792767e+00 8.704234e-01 7.510383e+00 3.963889e-03 -2.397249e-03 -8.672393e-03
Ga -4.779309e+00 8.897353e-01 -2.735529e+00 -1.410547e-03 -7.339603e-03 1.328428e-03
Al -6.379263e+00 3.624998e+00 2.420120e+00 2.788048e-02 -1.344003e-02 1.710050e-02
Ga -6.351559e+00 3.610989e+00 7.500939e+00 3.398499e-04 -8.298954e-04 -2.441720e-03
Al -6.344066e+00 3.620563e+00 -2.740613e+00 2.521341e-03 -1.237855e-03 2.700977e-03
Al -3.227284e+00 -1.902272e+00 2.452617e+00 1.247271e-02 7.707533e-03 9.920408e-04
Al -3.201624e+00 -1.874145e+00 7.514231e+00 4.867049e-03 1.852168e-03 -9.205729e-03
Al -3.163174e+00 -1.864602e+00 -2.736090e+00 -1.615008e-03 1.123947e-03 2.842207e-03
Al -1.631912e+00 9.003658e-01 2.426911e+00 6.785414e-03 -5.264017e-03 -6.404179e-04
Ga -1.630127e+00 8.930288e-01 7.510384e+00 4.034965e-03 -3.414889e-03 -5.852249e-03
Al -1.627466e+00 8.882439e-01 -2.733270e+00 7.020955e-03 -3.745106e-03 1.127960e-03
Al -3.203203e+00 3.622895e+00 2.430799e+00 1.085334e-02 -2.576482e-03 6.256661e-04
Ga -3.208983e+00 3.630974e+00 7.478177e+00 1.024815e-02 1.285583e-03 -2.639428e-03
Al -3.209971e+00 3.619083e+00 -2.730315e+00 3.232096e-03 1.386998e-03 4.947116e-03
Ga -1.336505e-02 -1.883032e+00 2.418391e+00 4.030159e-03 5.209983e-03 1.508207e-04
Al -2.041288e-02 -1.860493e+00 7.517038e+00 2.902791e-03 8.388939e-04 -1.128499e-03
Al -7.546907e-03 -1.864962e+00 -2.740849e+00 -3.233688e-03 -6.614926e-04 3.732090e-03
Ga -1.362230e-02 1.802467e+00 4.976458e+00 -6.849816e-03 -1.592489e-03 -1.816859e-03
Al -9.891247e-03 1.775709e+00 -5.274917e+00 -3.260168e-03 -3.090548e-03 2.626096e-03
Ga -2.587712e-02 1.781418e+00 -1.332667e-01 -4.609194e-03 -3.002766e-03 -1.447717e-04
Al 3.162675e+00 -3.686546e+00 4.961251e+00 -5.888581e-03 -7.954740e-04 -3.747045e-03
Ga 3.157833e+00 -3.694378e+00 -5.281449e+00 -4.687570e-03 4.527867e-04 5.254466e-04
Al 3.150861e+00 -3.695010e+00 -1.814308e-01 -7.741645e-03 -1.542687e-03 1.585009e-02
Ga 1.600937e+00 -9.706625e-01 4.996465e+00 -6.405553e-03 2.718190e-03 -4.425288e-03
Al 1.596044e+00 -9.645224e-01 -5.274261e+00 -9.239339e-03 4.168432e-03 -3.747949e-03
Ga 1.573854e+00 -9.813626e-01 -1.318606e-01 -4.631972e-03 6.403353e-03 -2.964195e-03
Al 3.134749e+00 1.788313e+00 4.968185e+00 2.821784e-03 4.053354e-03 -8.527139e-04
Al 3.115599e+00 1.788231e+00 -5.278603e+00 2.993879e-03 -3.472533e-03 8.798342e-04
Ga 3.136894e+00 1.803147e+00 -1.461044e-01 -3.582403e-03 -1.644407e-03 1.001039e-02
Al 6.290629e+00 -3.683551e+00 4.979951e+00 3.136276e-03 -4.363473e-03 3.183662e-04
Ga 6.312265e+00 -3.692839e+00 -5.275435e+00 3.103201e-05 1.698692e-03 2.603752e-03
Ga 6.325356e+00 -3.674182e+00 -1.376439e-01 -2.798015e-03 -4.320902e-03 7.269396e-03
Al 4.733536e+00 -9.633319e-01 4.980080e+00 -3.938326e-03 8.366268e-03 -3.750744e-04
Al 4.732083e+00 -9.601325e-01 -5.288622e+00 -2.302397e-03 5.009090e-03 1.748601e-03
Ga 4.746622e+00 -9.609219e-01 -1.253680e-01 -8.743139e-03 1.237438e-03 3.943902e-03
Al -3.203881e+00 1.801911e+00 4.954042e+00 -5.313824e-03 1.002981e-03 1.002011e-03
Ga -3.212001e+00 1.800803e+00 -5.272105e+00 -2.206859e-03 -1.545779e-03 9.129715e-04
Al -3.203017e+00 1.803085e+00 -1.948900e-01 3.322203e-03 4.067280e-03 1.548391e-02
Al -3.050264e-02 -3.688511e+00 4.965553e+00 -1.488613e-03 -5.595920e-03 -1.437026e-04
Al -1.801341e-02 -3.680424e+00 -5.267975e+00 -9.622272e-04 1.808546e-03 3.792368e-03
Al -3.205819e-02 -3.674835e+00 -1.399189e-01 6.174568e-03 -2.944822e-03 -6.704965e-03
Ga -1.610104e+00 -9.696061e-01 4.981250e+00 -2.131983e-04 8.220233e-03 -1.216422e-03
Ga -1.592458e+00 -9.589120e-01 -5.269040e+00 -2.990572e-04 4.329821e-03 7.480715e-04
Al -1.604420e+00 -9.517808e-01 -2.054753e-01 1.896390e-03 7.666848e-03 1.599378e-02
N 1.577144e+00 8.928162e-01 4.364604e+00 6.318438e-03 -4.011618e-03 -9.169544e-03
N 1.552876e+00 8.719035e-01 -5.874452e+00 1.246395e-03 -3.427083e-03 1.404687e-03
N 1.551604e+00 8.794117e-01 -8.025008e-01 2.772352e-03 -5.951374e-03 -1.011431e-02
N -1.773488e-02 3.637229e+00 4.360539e+00 -1.522685e-03 7.513212e-03 -9.445668e-03
N -1.278052e-02 3.571955e+00 -5.896614e+00 -5.409576e-04 -8.243109e-03 3.575491e-03
N -3.017042e-02 3.617647e+00 -7.611944e-01 -6.153867e-03 6.642689e-03 4.914723e-03
N 3.183792e+00 -1.879076e+00 4.367324e+00 4.997594e-03 -3.788134e-03 -6.373193e-03
N 3.160307e+00 -1.848724e+00 -5.885662e+00 2.170244e-04 8.014407e-03 -2.467999e-03
N 3.158376e+00 -1.891399e+00 -7.689568e-01 6.159029e-04 -8.325160e-03 -1.960774e-03
N -4.779087e+00 8.853475e-01 4.370230e+00 3.505831e-03 -8.508761e-03 -3.736459e-03
N -4.802280e+00 8.642233e-01 -5.894698e+00 -6.909340e-03 -6.293356e-03 4.087323e-03
N -4.762158e+00 8.961887e-01 -7.728532e-01 1.017429e-02 -3.861809e-03 8.579193e-03
N -6.359240e+00 3.614319e+00 4.368459e+00 1.374371e-03 1.035263e-03 -3.993993e-04
N -6.314850e+00 3.598848e+00 -5.850960e+00 6.659710e-03 -5.218411e-03 5.824524e-03
N -6.318655e+00 3.628637e+00 -8.068629e-01 4.528018e-03 4.140935e-03 -2.662848e-03
N -3.206473e+00 -1.884750e+00 4.379612e+00 -7.134636e-03 -2.544413e-03 -8.626068e-03
N -3.193372e+00 -1.856715e+00 -5.905355e+00 -8.306455e-03 4.136235e-03 1.349997e-03
N -3.157318e+00 -1.853156e+00 -7.999896e-01 6.316198e-03 4.076400e-03 -3.954560e-03
N -1.657759e+00 9.045972e-01 4.359380e+00 3.688200e-03 -1.886793e-03 -8.320547e-03
N -1.611379e+00 9.049353e-01 -5.856457e+00 1.417381e-02 7.395375e-04 7.153937e-03
N -1.651196e+00 8.840332e-01 -8.016134e-01 -2.600883e-03 -8.085101e-03 -4.004866e-04
N -3.205221e+00 3.623632e+00 4.365306e+00 5.245048e-03 9.780937e-04 -2.972463e-03
N -3.223233e+00 3.633196e+00 -5.874194e+00 -2.040778e-03 5.191633e-03 2.542932e-03
N -3.211107e+00 3.623141e+00 -7.909339e-01 5.994362e-03 9.995550e-04 1.717119e-03
N -2.454462e-02 -1.901053e+00 4.385390e+00 6.369957e-03 -7.138234e-04 -2.788332e-03
N -2.579213e-03 -1.878092e+00 -5.872878e+00 1.371385e-02 -3.257579e-03 -2.356192e-03
N -5.903510e-02 -1.878633e+00 -8.008806e-01 8.349658e-04 -1.778623e-03 4.046440e-04
N -1.567212e-03 1.787532e+00 1.829372e+00 -5.394012e-03 -1.724744e-03 1.113598e-02
N 1.146226e-02 1.810631e+00 6.931215e+00 2.262806e-03 -6.601101e-03 4.064318e-03
N -1.661446e-02 1.765171e+00 -3.347321e+00 -7.314562e-03 -1.018464e-02 -4.480495e-03
N 3.155954e+00 -3.682655e+00 1.836088e+00 -6.273637e-03 -6.947912e-03 -1.488042e-02
N 3.176916e+00 -3.659227e+00 6.854188e+00 6.375026e-03 -2.571952e-03 1.309860e-02
N 3.136018e+00 -3.707334e+00 -3.332646e+00 -1.336907e-02 -7.089250e-03 3.604003e-03
N 1.644709e+00 -9.554636e-01 1.828464e+00 -1.357584e-02 1.132015e-02 5.338221e-03
N 1.588096e+00 -9.469445e-01 6.961465e+00 -1.099862e-02 -3.582113e-03 2.421037e-03
N 1.543874e+00 -9.495182e-01 -3.365878e+00 -5.503565e-03 7.776270e-03 2.295852e-03
N 3.167165e+00 1.797500e+00 1.890421e+00 -1.199335e-02 -2.632215e-04 -1.416085e-02
N 3.126590e+00 1.763160e+00 6.894666e+00 -1.336869e-03 -1.016356e-02 -4.252245e-03
N 3.105217e+00 1.805955e+00 -3.353932e+00 -8.391337e-03 3.834270e-03 -2.253397e-03
N 6.327830e+00 -3.740968e+00 1.916325e+00 -1.469013e-02 2.261588e-02 -2.465317e-02
N 6.277750e+00 -3.681554e+00 6.906364e+00 -7.374467e-03 5.443183e-03 -4.688041e-03
N 6.326142e+00 -3.672972e+00 -3.322207e+00 6.999483e-03 5.352069e-03 6.958154e-03
N 4.612165e+00 -1.088760e+00 1.880128e+00 7.407167e-02 5.734894e-02 -2.150606e-02
N 4.725341e+00 -9.602730e-01 6.907212e+00 -4.222403e-04 6.340656e-03 -1.538809e-03
N 4.753778e+00 -9.738153e-01 -3.362476e+00 7.285823e-03 7.070280e-04 -6.295804e-03
N -3.202105e+00 1.807761e+00 1.833731e+00 -1.745055e-04 -8.735893e-03 -1.745976e-02
N -3.231251e+00 1.785594e+00 6.876667e+00 -7.411979e-03 -5.915283e-03 -5.961572e-03
N -3.186356e+00 1.809747e+00 -3.323130e+00 1.055173e-02 4.716318e-03 8.310783e-03
N -6.751579e-03 -3.740497e+00 1.772890e+00 -1.113998e-02 1.598661e-03 -1.604118e-03
N -3.303932e-02 -3.647169e+00 6.874740e+00 -1.203785e-03 9.178477e-03 -6.520518e-03
N -2.119913e-02 -3.682821e+00 -3.344118e+00 2.503532e-04 9.412624e-04 5.515145e-04
N -1.607088e+00 -9.383657e-01 1.817758e+00 -2.186625e-02 1.971282e-03 -1.576456e-02
N -1.593366e+00 -9.822824e-01 6.936970e+00 -4.695452e-03 -4.007768e-03 5.308618e-03
N -1.591677e+00 -9.583274e-01 -3.313725e+00 -1.554837e-03 5.238799e-03 1.229547e-02
