108
Energy=-2.038805e+06 Lattice="9.554505e+00 0.000000e+00 0.000000e+00 -4.782358e+00 8.282909e+00 0.000000e+00 -1.150939e-02 -4.738157e-02 1.538869e+01" Stress="-1.766064e-02 1.919807e-03 -4.398428e-04 1.910363e-03 -1.309079e-02 -2.051454e-03 -4.393709e-04 -2.061899e-03 -2.896498e-02" Properties=species:S:1:pos:R:3:forces:R:3 Config_type=AlGaN_super3_35_2_5.xyz
Al 1.567357e+00 8.837550e-01 2.405941e+00 2.186675e-04 -3.550808e-03 -3.232328e-03
Al 1.558559e+00 8.666809e-01 7.542106e+00 4.463910e-04 -4.281170e-03 1.146958e-03
Al 1.569384e+00 8.922655e-01 -2.709755e+00 2.633856e-04 -3.564787e-03 2.116346e-03
Al -2.545304e-02 3.617740e+00 2.596945e+00 2.986144e-03 5.582612e-03 -1.270693e-01
Al -2.543446e-02 3.617303e+00 7.536976e+00 -6.775466e-04 -8.786340e-04 4.657988e-03
Ga -1.213077e-02 3.658686e+00 -2.714624e+00 -1.048491e-03 -1.183688e-03 4.134347e-03
Ga 3.167039e+00 -1.907231e+00 2.410157e+00 -1.814304e-03 -1.899399e-03 -2.918712e-03
Ga 3.178672e+00 -1.924510e+00 7.543546e+00 -1.060789e-03 4.567365e-04 1.353473e-03
Ga 3.175869e+00 -1.879662e+00 -2.714868e+00 -1.145918e-04 3.993570e-05 2.607803e-03
Ga -4.824982e+00 8.921650e-01 2.412078e+00 5.540203e-05 -3.916924e-03 -2.240956e-03
Ga -4.820075e+00 8.617268e-01 7.557988e+00 3.298624e-04 -4.404844e-03 5.843220e-04
Ga -4.811436e+00 9.011783e-01 -2.713853e+00 1.631829e-03 -4.046367e-03 1.948754e-03
Al -6.408126e+00 3.623464e+00 2.406684e+00 -1.982162e-03 2.534539e-03 -4.754636e-03
Ga -6.415306e+00 3.619292e+00 7.552350e+00 4.195401e-04 -3.874918e-04 1.607299e-03
Ga -6.399515e+00 3.662661e+00 -2.713696e+00 1.254634e-03 -6.273202e-05 2.429387e-03
Ga -3.197471e+00 -1.905686e+00 2.401464e+00 1.217651e-03 -2.770832e-03 -2.756248e-03
Al -3.212209e+00 -1.918814e+00 7.543911e+00 4.893994e-04 7.612631e-04 1.517336e-03
Al -3.189056e+00 -1.878356e+00 -2.705258e+00 -2.579773e-04 9.587696e-04 3.073757e-03
Ga -1.629927e+00 8.876993e-01 2.415323e+00 6.611252e-03 -2.949132e-03 -4.488992e-03
Ga -1.640121e+00 8.714276e-01 7.557098e+00 5.645847e-03 -3.482789e-03 -3.005149e-04
Ga -1.630814e+00 8.963809e-01 -2.715575e+00 4.752175e-03 -1.960301e-03 6.273599e-04
Al -3.213004e+00 3.639638e+00 2.418511e+00 4.287459e-03 3.800379e-03 -3.880267e-03
Ga -3.219464e+00 3.624778e+00 7.556807e+00 4.060633e-03 1.768790e-03 2.003609e-03
Ga -3.217274e+00 3.667864e+00 -2.731110e+00 3.634394e-03 9.033554e-04 2.976215e-03
Ga -2.638634e-02 -1.891418e+00 2.402142e+00 4.644371e-03 1.459352e-03 -9.382285e-04
Ga -3.620679e-02 -1.906128e+00 7.554578e+00 4.750742e-03 2.490881e-03 7.247495e-04
Al -2.570853e-02 -1.864723e+00 -2.718098e+00 3.823890e-03 4.608286e-04 1.500917e-03
Ga -1.974310e-02 1.793145e+00 4.966264e+00 -3.665102e-03 -8.829823e-03 5.343388e-03
Ga -1.588014e-02 1.827484e+00 -5.286316e+00 -3.681138e-03 -1.223312e-03 2.452874e-03
Ga -1.633165e-03 1.814272e+00 -1.337452e-01 -4.594870e-03 2.388869e-03 3.749707e-03
Al 3.176607e+00 -3.757374e+00 4.957954e+00 -8.981396e-03 3.091630e-03 4.662271e-03
Al 3.175960e+00 -3.717080e+00 -5.290444e+00 -3.062915e-03 -8.449839e-04 2.217855e-03
Al 3.180416e+00 -3.720281e+00 -1.505769e-01 -2.323675e-05 -1.978914e-03 9.509106e-03
Ga 1.590137e+00 -9.903777e-01 4.985118e+00 -4.864060e-03 3.149951e-03 -6.278545e-04
Ga 1.593379e+00 -9.602397e-01 -5.273745e+00 -4.360504e-03 3.982927e-03 6.232743e-04
Al 1.588626e+00 -9.593577e-01 -1.753703e-01 -4.024793e-03 2.519041e-03 4.612762e-03
Ga 3.141966e+00 1.786281e+00 4.976775e+00 7.412704e-04 1.123211e-04 1.938469e-03
Ga 3.160479e+00 1.825348e+00 -5.279730e+00 -6.751718e-04 -4.960061e-04 2.110970e-03
Al 3.144186e+00 1.811656e+00 -1.610165e-01 -9.695104e-06 4.333776e-04 6.495734e-03
Ga 6.328695e+00 -3.750122e+00 4.965290e+00 6.170797e-03 3.174314e-03 5.458806e-03
Ga 6.350001e+00 -3.698132e+00 -5.288343e+00 -6.053492e-04 -8.323353e-04 3.388193e-03
Al 6.350984e+00 -3.718941e+00 -1.589124e-01 -2.587818e-03 -6.497904e-04 1.078633e-02
Ga 4.761516e+00 -9.972213e-01 4.991653e+00 -1.760146e-03 6.105345e-03 -1.711484e-04
Ga 4.778705e+00 -9.582019e-01 -5.273727e+00 -1.652077e-03 4.932708e-03 1.575980e-03
Ga 4.768383e+00 -9.704920e-01 -1.435255e-01 -6.769134e-04 3.432790e-03 -8.551409e-03
Ga -3.224682e+00 1.800852e+00 4.978207e+00 -9.405939e-04 6.000712e-04 8.454347e-04
Al -3.219007e+00 1.839141e+00 -5.276941e+00 3.193488e-04 3.104072e-04 1.266499e-03
Ga -3.220959e+00 1.825113e+00 -1.281679e-01 4.796189e-04 -5.088448e-04 -7.215494e-03
Ga -2.543486e-02 -3.740540e+00 4.965702e+00 2.668673e-04 7.960629e-05 6.617025e-04
Al -1.328527e-02 -3.702464e+00 -5.269794e+00 5.365227e-04 2.490525e-05 1.920537e-03
Ga -2.349834e-02 -3.701428e+00 -1.403592e-01 -4.989135e-04 -1.195428e-03 -1.761486e-03
Ga -1.620339e+00 -9.887233e-01 4.994409e+00 3.277529e-04 4.696863e-03 4.408814e-04
Ga -1.613710e+00 -9.567591e-01 -5.272360e+00 -3.379180e-04 5.483183e-03 1.731991e-03
Al -1.606304e+00 -9.670686e-01 -1.815297e-01 -1.432222e-03 3.564481e-03 4.345412e-03
N 1.562960e+00 8.657913e-01 4.324034e+00 -3.110621e-04 -3.625033e-03 -5.758959e-03
N 1.570311e+00 9.042302e-01 -5.932850e+00 3.404582e-04 -5.250644e-03 -7.328587e-03
N 1.595717e+00 8.811889e-01 -7.854616e-01 5.334623e-03 -7.777539e-03 -1.001944e-03
N -5.699928e-02 3.629377e+00 4.274608e+00 -6.398922e-03 5.945546e-03 9.169355e-02
N -4.291588e-02 3.675651e+00 -5.924346e+00 -5.694932e-03 2.640382e-03 -7.459986e-03
N -1.841408e-02 3.681574e+00 -7.492304e-01 -7.502534e-04 4.798067e-03 1.586229e-03
N 3.172277e+00 -1.940638e+00 4.380143e+00 9.052965e-04 -7.494418e-03 1.470482e-03
N 3.182096e+00 -1.904771e+00 -5.879566e+00 -4.357674e-04 -6.170537e-03 1.590659e-05
N 3.151073e+00 -1.901097e+00 -7.461526e-01 -6.507930e-03 -3.120421e-03 3.325902e-03
N -4.818478e+00 8.701946e-01 4.372033e+00 1.402708e-03 -5.236354e-03 -3.797197e-04
N -4.779464e+00 9.229557e-01 -5.872544e+00 6.540582e-03 -1.666244e-03 1.720093e-03
N -4.835947e+00 9.167714e-01 -7.512439e-01 -4.587808e-03 -1.670978e-03 2.475273e-03
N -6.407138e+00 3.623782e+00 4.329430e+00 -1.357552e-03 -5.250369e-04 -6.630770e-03
N -6.364809e+00 3.680100e+00 -5.874514e+00 5.914789e-03 3.314638e-03 4.247169e-04
N -6.420602e+00 3.636595e+00 -7.460065e-01 -4.636332e-03 -3.449271e-03 3.956449e-03
N -3.205350e+00 -1.906122e+00 4.360771e+00 -1.080916e-03 -9.165857e-04 -8.824811e-04
N -3.196686e+00 -1.868085e+00 -5.933979e+00 3.208992e-04 2.624409e-04 -9.481048e-03
N -3.172974e+00 -1.897810e+00 -7.807296e-01 5.653596e-03 -3.141451e-03 -2.492907e-03
N -1.641186e+00 8.697660e-01 4.372858e+00 5.292132e-03 -1.887445e-03 1.468038e-03
N -1.660864e+00 9.261894e-01 -5.871232e+00 -5.516716e-04 -5.857979e-04 2.259006e-03
N -1.635357e+00 8.734694e-01 -7.526521e-01 5.745221e-03 -8.659192e-03 3.684686e-03
N -3.194678e+00 3.647002e+00 4.340103e+00 9.760196e-03 2.789631e-03 -4.690782e-03
N -3.216341e+00 3.668924e+00 -5.858109e+00 2.861808e-03 5.700986e-04 4.742739e-03
N -3.190162e+00 3.674019e+00 -7.647213e-01 8.254110e-03 4.036757e-03 1.315506e-03
N -3.143123e-02 -1.895070e+00 4.366387e+00 4.090501e-03 1.529970e-03 -1.067598e-03
N -2.347656e-02 -1.896943e+00 -5.875912e+00 4.007992e-03 -5.019400e-03 1.472489e-03
N -2.210928e-02 -1.844953e+00 -7.900979e-01 4.018402e-03 7.114978e-03 -1.378754e-03
N 1.198009e-02 1.832560e+00 1.851267e+00 6.691340e-04 -1.274567e-03 4.420425e-03
N 5.035191e-03 1.799446e+00 6.945572e+00 9.532671e-04 2.363145e-03 8.577558e-04
N 1.667046e-02 1.802266e+00 -3.318647e+00 1.103494e-03 -4.937604e-03 1.003884e-03
N 3.177064e+00 -3.765576e+00 1.801195e+00 -4.019147e-04 -1.032870e-02 1.086133e-03
N 3.200625e+00 -3.773493e+00 6.893931e+00 2.049528e-03 -4.734025e-03 -8.140269e-03
N 3.184826e+00 -3.713510e+00 -3.376853e+00 -3.776390e-03 -8.889035e-04 -7.784882e-03
N 1.587952e+00 -9.427996e-01 1.778046e+00 -4.555984e-03 9.111079e-03 -8.787243e-03
N 1.587441e+00 -9.614921e-01 6.948216e+00 -4.836441e-03 8.048999e-03 2.240114e-03
N 1.566339e+00 -9.394416e-01 -3.305803e+00 -9.877900e-03 5.638522e-03 4.573494e-03
N 3.123021e+00 1.813854e+00 1.793566e+00 -4.707131e-03 1.927156e-03 -8.116580e-03
N 3.121098e+00 1.767570e+00 6.944067e+00 -5.119523e-03 -3.161228e-03 -1.936840e-04
N 3.127048e+00 1.803680e+00 -3.320336e+00 -5.789833e-03 -3.196570e-03 1.126915e-03
N 6.349246e+00 -3.761660e+00 1.799168e+00 -4.439020e-03 -9.202844e-03 8.178561e-05
N 6.312520e+00 -3.736296e+00 6.944495e+00 -6.126972e-03 2.939928e-03 -4.159285e-04
N 6.352276e+00 -3.673590e+00 -3.324962e+00 2.570606e-04 6.393877e-03 -4.418476e-04
N 4.763085e+00 -9.779654e-01 1.786807e+00 -4.597611e-04 6.253966e-03 8.717502e-03
N 4.788613e+00 -1.008182e+00 6.950959e+00 4.283496e-03 1.492052e-03 1.178563e-03
N 4.801673e+00 -9.750820e-01 -3.309350e+00 4.450980e-03 1.004197e-03 1.818260e-03
N -3.222497e+00 1.833857e+00 1.806739e+00 -3.028193e-04 5.869946e-03 9.929171e-03
N -3.229918e+00 1.789564e+00 6.934723e+00 2.905620e-04 -2.807956e-04 -1.940470e-03
N -3.219542e+00 1.824078e+00 -3.363495e+00 4.340680e-04 -5.480003e-04 -7.585304e-03
N -2.664672e-02 -3.765305e+00 1.823241e+00 6.086534e-04 -5.319133e-03 6.442984e-03
N -3.197996e-02 -3.747133e+00 6.926855e+00 1.671044e-04 -1.201496e-04 -2.185565e-03
N -2.482023e-02 -3.672636e+00 -3.348047e+00 -2.767955e-04 6.840142e-03 -5.421174e-03
N -1.610972e+00 -9.733566e-01 1.759845e+00 -1.103994e-03 5.739815e-03 -1.125450e-02
N -1.647710e+00 -1.006357e+00 6.953233e+00 -6.063343e-03 1.826427e-03 1.532741e-03
N -1.611931e+00 -9.885138e-01 -3.306686e+00 -5.348490e-04 -1.663788e-03 3.958945e-03
