108
Energy=-2.496555e+06 Lattice="9.476763e+00 0.000000e+00 0.000000e+00 -4.738425e+00 8.208579e+00 0.000000e+00 -4.401871e-03 5.538740e-05 1.526502e+01" Stress="-8.855191e-02 7.252237e-03 -6.963916e-05 7.245428e-03 -8.112480e-02 -3.568599e-04 -7.139086e-05 -3.564131e-04 -8.697108e-02" Properties=species:S:1:pos:R:3:forces:R:3 Config_type=AlGaN_super3_45_1_1.xyz
Al 1.562698e+00 9.030211e-01 2.483671e+00 -1.832792e-03 -1.439611e-02 -1.187895e-02
Al 1.562056e+00 9.032492e-01 7.495067e+00 -1.616032e-03 -1.460346e-02 -4.548795e-03
Ga 1.566825e+00 9.028210e-01 -2.756380e+00 -2.171883e-03 -1.866471e-02 -6.153940e-03
Al -2.121302e-03 3.613836e+00 2.483306e+00 -3.080768e-03 -2.145283e-03 -1.025596e-02
Ga -2.453287e-03 3.613580e+00 7.495003e+00 -2.788694e-03 -1.774295e-03 -2.360946e-03
Al 1.715059e-03 3.614263e+00 -2.756292e+00 -3.439652e-03 -1.259735e-03 -3.190560e-03
Ga 3.171627e+00 -1.885199e+00 2.478167e+00 -3.500007e-03 1.446170e-03 -1.204569e-02
Ga 3.171621e+00 -1.885003e+00 7.494950e+00 -3.310918e-03 1.909144e-03 -2.889808e-03
Al 3.175848e+00 -1.884985e+00 -2.754005e+00 -2.849855e-03 1.669484e-03 -4.283090e-03
Ga -4.785802e+00 9.033537e-01 2.478230e+00 3.609748e-04 -1.714993e-02 -1.221755e-02
Ga -4.785975e+00 9.032456e-01 7.494966e+00 9.851483e-04 -1.717830e-02 -4.394362e-03
Al -4.781840e+00 9.031687e-01 -2.754035e+00 1.236812e-03 -1.368021e-02 -3.849403e-03
Ga -6.350268e+00 3.613348e+00 2.478478e+00 -8.082514e-04 -4.039553e-04 -9.159858e-03
Ga -6.350287e+00 3.613525e+00 7.494943e+00 -6.228717e-04 -4.130016e-05 -1.158483e-03
Ga -6.346204e+00 3.613352e+00 -2.753985e+00 -5.120200e-04 -4.011217e-04 -9.679119e-04
Ga -3.176164e+00 -1.885128e+00 2.478113e+00 -4.996580e-04 2.901756e-03 -1.061039e-02
Al -3.176423e+00 -1.884971e+00 7.494992e+00 1.605412e-06 3.356857e-03 -1.904566e-03
Ga -3.172305e+00 -1.885021e+00 -2.753953e+00 -1.350617e-03 3.249873e-03 -2.905716e-03
Ga -1.657335e+00 9.029848e-01 2.482607e+00 1.722956e-02 -8.828154e-03 -1.586392e-02
Al -1.657305e+00 9.032600e-01 7.495053e+00 1.412161e-02 -8.278899e-03 -5.280631e-03
Ga -1.653719e+00 9.028348e-01 -2.756478e+00 1.645875e-02 -9.054213e-03 -8.561049e-03
Ga -3.221365e+00 3.613324e+00 2.478346e+00 1.572115e-02 8.022150e-03 -1.226614e-02
Ga -3.221696e+00 3.613512e+00 7.494929e+00 1.552472e-02 7.533029e-03 -4.304222e-03
Ga -3.217420e+00 3.613380e+00 -2.754009e+00 1.590261e-02 7.839016e-03 -4.231461e-03
Ga -4.743327e-02 -1.885048e+00 2.478302e+00 1.536204e-02 1.119060e-02 -1.323118e-02
Ga -4.759742e-02 -1.885132e+00 7.494920e+00 1.470336e-02 1.157409e-02 -5.530237e-03
Ga -4.336458e-02 -1.885096e+00 -2.753945e+00 1.548898e-02 1.139362e-02 -5.470460e-03
Ga -2.315855e-03 1.806685e+00 4.988316e+00 -1.486805e-02 -1.096505e-02 -6.689055e-03
Ga 1.869675e-03 1.806676e+00 -5.262961e+00 -1.514811e-02 -1.144742e-02 -6.151732e-03
Ga 9.483308e-04 1.806602e+00 -2.589891e-01 -1.504969e-02 -1.118226e-02 4.268559e-02
Ga 3.171490e+00 -3.691452e+00 4.987295e+00 -1.540637e-02 -8.000812e-03 -4.919106e-03
Ga 3.175775e+00 -3.691629e+00 -5.262355e+00 -1.532336e-02 -7.630206e-03 -3.676744e-03
Ga 3.176066e+00 -3.692246e+00 -2.465561e-01 -1.538780e-02 -7.787680e-03 4.106481e-02
Ga 1.607421e+00 -9.819232e-01 4.987314e+00 -1.641852e-02 9.260547e-03 -8.018840e-03
Ga 1.611552e+00 -9.818682e-01 -5.262399e+00 -1.614050e-02 9.505867e-03 -7.794768e-03
Ga 1.611058e+00 -9.812117e-01 -2.461360e-01 -1.644505e-02 9.424230e-03 3.769744e-02
Ga 3.126831e+00 1.806703e+00 4.987396e+00 5.548336e-04 -3.333176e-03 -2.573431e-03
Ga 3.130873e+00 1.806713e+00 -5.262422e+00 2.064448e-04 -3.479781e-03 -2.094334e-03
Ga 3.129764e+00 1.806497e+00 -2.462870e-01 4.423191e-04 -3.695952e-03 4.396227e-02
Ga 6.300664e+00 -3.691393e+00 4.987331e+00 2.742145e-04 -2.859054e-04 -1.234745e-03
Ga 6.304797e+00 -3.691625e+00 -5.262380e+00 8.647560e-05 4.462614e-04 -1.208342e-03
Ga 6.303947e+00 -3.692355e+00 -2.464170e-01 -3.810117e-05 -1.705879e-04 4.509615e-02
Ga 4.736084e+00 -9.816457e-01 4.986652e+00 -8.741775e-04 1.757712e-02 -4.289482e-03
Al 4.740272e+00 -9.816705e-01 -5.262055e+00 -1.201286e-03 1.317375e-02 -3.141435e-03
Ga 4.740047e+00 -9.817112e-01 -2.449264e-01 -1.100209e-03 1.731754e-02 4.064500e-02
Ga -3.221830e+00 1.806688e+00 4.987334e+00 2.949557e-03 -1.769774e-03 -3.017715e-03
Ga -3.217478e+00 1.806727e+00 -5.262447e+00 3.641966e-03 -1.984933e-03 -3.310371e-03
Ga -3.216968e+00 1.806511e+00 -2.464098e-01 3.099706e-03 -2.103163e-03 4.276895e-02
Ga -4.747246e-02 -3.691725e+00 4.986612e+00 3.179573e-03 1.328148e-03 -2.176087e-03
Ga -4.325092e-02 -3.691755e+00 -5.262009e+00 3.245643e-03 1.370542e-03 -1.940983e-03
Ga -4.347272e-02 -3.691828e+00 -2.447581e-01 3.161037e-03 1.525494e-03 4.399800e-02
Ga -1.612085e+00 -9.819079e-01 4.987291e+00 2.188813e-03 1.851341e-02 -4.960487e-03
Ga -1.607725e+00 -9.818474e-01 -5.262447e+00 1.686469e-03 1.881157e-02 -6.423938e-03
Ga -1.607708e+00 -9.811620e-01 -2.461688e-01 2.142399e-03 1.864730e-02 4.066415e-02
N 1.562737e+00 9.028924e-01 4.394459e+00 -1.305135e-03 -1.791860e-02 -1.650291e-02
N 1.566416e+00 9.031922e-01 -5.857069e+00 -1.246191e-03 -1.760599e-02 -1.763469e-02
N 1.566457e+00 9.028672e-01 -8.447594e-01 -1.249903e-03 -1.783162e-02 9.570853e-03
N -2.304852e-03 3.614133e+00 4.394273e+00 -2.303499e-03 1.252714e-04 -2.083483e-02
N 1.869770e-03 3.613540e+00 -5.856936e+00 -2.472059e-03 -3.707652e-05 1.742659e-03
N 1.495277e-03 3.614082e+00 -8.452974e-01 -2.143379e-03 1.977340e-04 -1.767867e-02
N 3.171731e+00 -1.885014e+00 4.391995e+00 -2.941473e-03 1.886911e-03 1.360154e-03
N 3.175998e+00 -1.885030e+00 -5.856825e+00 1.593537e-02 1.237461e-02 9.070771e-03
N 3.175582e+00 -1.885121e+00 -8.402717e-01 -2.914064e-03 1.589139e-03 -1.872567e-02
N -4.785863e+00 9.031897e-01 4.392055e+00 5.510203e-04 -1.780415e-02 6.113781e-03
N -4.781673e+00 9.031523e-01 -5.856850e+00 5.697510e-04 -3.556018e-02 1.223763e-02
N -4.781960e+00 9.033351e-01 -8.402906e-01 3.181245e-04 -1.728505e-02 -1.454570e-02
N -6.350259e+00 3.613437e+00 4.392149e+00 -4.590638e-04 4.528002e-04 2.403766e-03
N -6.345950e+00 3.613466e+00 -5.856815e+00 -6.864367e-04 1.859235e-04 1.990483e-03
N -6.346363e+00 3.613300e+00 -8.402851e-01 -5.749146e-04 4.824561e-04 5.554543e-03
N -3.176349e+00 -1.884978e+00 4.391955e+00 -1.099833e-03 2.274071e-03 1.788169e-03
N -3.172171e+00 -1.885020e+00 -5.856948e+00 -2.019216e-02 1.249298e-02 -1.422637e-02
N -3.172218e+00 -1.885180e+00 -8.401158e-01 -1.069047e-03 1.945006e-03 4.904061e-03
N -1.657729e+00 9.028676e-01 4.394346e+00 1.659765e-02 -9.858300e-03 1.119563e-02
N -1.652995e+00 9.032159e-01 -5.857070e+00 1.635871e-02 -9.270469e-03 -1.329269e-02
N -1.653834e+00 9.028581e-01 -8.449338e-01 1.654951e-02 -9.642118e-03 1.354704e-02
N -3.221527e+00 3.613395e+00 4.392055e+00 1.544350e-02 8.459179e-03 5.965642e-03
N -3.217378e+00 3.613480e+00 -5.856811e+00 1.568171e-02 8.501656e-03 5.918552e-03
N -3.217468e+00 3.613348e+00 -8.403360e-01 1.532626e-02 8.520954e-03 8.913027e-03
N -4.751791e-02 -1.885055e+00 4.392039e+00 1.472456e-02 1.017261e-02 5.808848e-03
N -4.324116e-02 -1.885208e+00 -5.856831e+00 1.507493e-02 1.018553e-02 5.433186e-03
N -4.346758e-02 -1.885085e+00 -8.402064e-01 1.460626e-02 9.925083e-03 8.338613e-03
N -1.527261e-03 1.806699e+00 1.897482e+00 3.658731e-03 7.403489e-04 -2.380339e-02
N -2.426646e-03 1.806649e+00 6.901037e+00 -1.186008e-02 -2.893566e-02 1.896355e-02
N 1.791785e-03 1.806712e+00 -3.350269e+00 -1.457276e-02 1.145291e-02 1.317550e-02
N 3.172273e+00 -3.692479e+00 1.884576e+00 3.451045e-03 -1.923996e-02 -2.828734e-02
N 3.171445e+00 -3.691605e+00 6.900463e+00 -1.549827e-02 -8.339754e-03 5.476413e-03
N 3.175730e+00 -3.691423e+00 -3.349202e+00 3.022438e-03 2.318091e-03 2.114816e-02
N 1.607094e+00 -9.810045e-01 1.884539e+00 -1.674938e-02 2.755092e-02 -2.567124e-02
N 1.607223e+00 -9.817567e-01 6.900505e+00 -1.681804e-02 2.685677e-02 1.542423e-02
N 1.611640e+00 -9.820095e-01 -3.349218e+00 1.797620e-03 -1.261150e-03 1.730359e-02
N 3.125808e+00 1.806492e+00 1.884764e+00 -1.740371e-02 -1.310410e-02 -3.279426e-02
N 3.126515e+00 1.806755e+00 6.900540e+00 -1.746967e-02 -1.282738e-02 9.219421e-03
N 3.131010e+00 1.806621e+00 -3.349263e+00 2.006109e-02 -1.221418e-02 8.807901e-03
N 6.300076e+00 -3.692359e+00 1.884602e+00 -1.837010e-02 -1.094450e-02 -3.245963e-02
N 6.300536e+00 -3.691493e+00 6.900508e+00 3.843910e-04 2.178934e-02 9.336878e-03
N 6.304661e+00 -3.691498e+00 -3.349198e+00 -1.767098e-02 -1.141327e-02 9.352122e-03
N 4.736101e+00 -9.817085e-01 1.882912e+00 -2.021640e-04 1.804053e-02 -3.581484e-02
N 4.736073e+00 -9.816651e-01 6.900176e+00 1.845730e-02 6.755732e-03 1.358752e-02
N 4.740119e+00 -9.816172e-01 -3.348657e+00 -1.964272e-02 2.451895e-02 -4.207672e-03
N -3.220723e+00 1.806579e+00 1.884267e+00 3.100408e-03 -2.199390e-03 -4.089627e-02
N -3.221679e+00 1.806758e+00 6.900512e+00 2.123701e-02 -1.224300e-02 8.695051e-03
N -3.217828e+00 1.806631e+00 -3.349314e+00 -1.618167e-02 -1.199274e-02 8.773159e-03
N -4.738942e-02 -3.691813e+00 1.882869e+00 2.485576e-03 1.001887e-05 -3.976512e-02
N -4.754190e-02 -3.691712e+00 6.900116e+00 2.634647e-03 1.895201e-04 1.302688e-03
N -4.335426e-02 -3.691769e+00 -3.348507e+00 2.227637e-03 -5.278478e-05 1.213385e-03
N -1.611567e+00 -9.811418e-01 1.884134e+00 1.129647e-03 1.832259e-02 -3.618644e-02
N -1.612087e+00 -9.817799e-01 6.900524e+00 -1.804365e-02 2.430460e-02 1.895576e-02
N -1.607940e+00 -9.819729e-01 -3.349265e+00 1.583933e-03 1.766795e-02 5.289503e-03
