108
Energy=-1.581047e+06 Lattice="9.482180e+00 0.000000e+00 0.000000e+00 -4.743222e+00 8.208308e+00 0.000000e+00 -2.994850e-04 1.101894e-03 1.530707e+01" Stress="-3.368593e-02 5.654922e-03 3.091908e-05 5.650033e-03 -2.753923e-02 2.021053e-04 2.535550e-05 1.930314e-04 -2.283471e-02" Properties=species:S:1:pos:R:3:forces:R:3 Config_type=AlGaN_super3_25_0_1.xyz
Al 1.563205e+00 8.989778e-01 2.469894e+00 -4.510765e-04 -1.351653e-02 -6.679890e-03
Al 1.560889e+00 9.012139e-01 7.518735e+00 -6.794102e-04 -1.289100e-02 -3.048441e-03
Al 1.564685e+00 8.755544e-01 -2.779315e+00 -1.080949e-03 -3.237250e-03 5.255295e-03
Al -4.631622e-03 3.610899e+00 2.418174e+00 -2.641902e-03 1.072401e-03 1.137369e-02
Al -3.109062e-03 3.610084e+00 7.518787e+00 -3.013308e-03 -4.361669e-04 -2.131807e-03
Ga -3.953626e-03 3.604546e+00 -2.756656e+00 -1.155898e-03 -2.146464e-03 -2.095645e-03
Al 3.149664e+00 -1.874034e+00 2.456802e+00 8.951829e-03 -2.445203e-03 1.653419e-03
Ga 3.169852e+00 -1.881272e+00 7.520484e+00 -2.431666e-03 5.866251e-04 -3.152082e-03
Ga 3.170966e+00 -1.879558e+00 -2.757257e+00 -2.163102e-03 2.377424e-04 -2.344197e-03
Ga -4.784371e+00 8.997835e-01 2.472050e+00 5.554488e-04 -1.614197e-02 -7.473847e-03
Ga -4.785813e+00 9.055761e-01 7.521168e+00 1.303156e-03 -1.493464e-02 -2.826801e-03
Al -4.783219e+00 8.975510e-01 -2.754658e+00 1.358627e-03 -9.689243e-03 -2.027374e-03
Ga -6.352222e+00 3.615160e+00 2.471212e+00 -1.605702e-03 4.889516e-04 -4.924458e-03
Al -6.351885e+00 3.612878e+00 7.517087e+00 6.095588e-04 8.220100e-04 -7.798407e-04
Ga -6.350893e+00 3.606903e+00 -2.754954e+00 1.345263e-05 -7.332119e-04 -5.635398e-04
Al -3.168444e+00 -1.866046e+00 2.454662e+00 -4.731049e-03 -3.517468e-03 3.615016e-03
Ga -3.172520e+00 -1.882814e+00 7.523335e+00 -5.678851e-04 2.516341e-03 -1.924288e-03
Al -3.177819e+00 -1.877852e+00 -2.762682e+00 1.868301e-03 -5.531711e-04 -1.735113e-03
Ga -1.651721e+00 9.032999e-01 2.470633e+00 1.407449e-02 -8.414728e-03 -9.291135e-03
Ga -1.649957e+00 9.041922e-01 7.520125e+00 1.401340e-02 -7.619394e-03 -5.968363e-03
Al -1.651382e+00 8.977690e-01 -2.757294e+00 1.243762e-02 -6.236174e-03 -4.145307e-03
Al -3.218639e+00 3.614956e+00 2.473292e+00 1.238743e-02 5.058779e-03 -5.599225e-03
Al -3.219896e+00 3.614988e+00 7.513623e+00 1.110592e-02 5.115606e-03 -2.967401e-03
Al -3.217667e+00 3.610553e+00 -2.753162e+00 9.816634e-03 3.694040e-03 -2.205041e-03
Ga -3.973366e-02 -1.881965e+00 2.477158e+00 1.244213e-02 9.628072e-03 -9.205163e-03
Al -4.116216e-02 -1.878511e+00 7.517329e+00 1.113211e-02 6.018775e-03 -3.408865e-03
Ga -4.164164e-02 -1.878516e+00 -2.758238e+00 1.153257e-02 7.106060e-03 -4.088153e-03
Ga -3.884847e-03 1.804946e+00 4.998045e+00 -1.346411e-02 -7.308510e-03 -4.558446e-03
Al -4.790449e-03 1.797996e+00 -5.273102e+00 -9.977589e-03 -5.741992e-03 -4.436833e-03
Ga -4.023235e-03 1.798263e+00 -2.145671e-01 -1.180181e-02 -1.051691e-02 2.804560e-02
Ga 3.170613e+00 -3.693110e+00 4.999867e+00 -1.165024e-02 -6.546595e-03 -6.219134e-03
Ga 3.167872e+00 -3.696472e+00 -5.274373e+00 -1.230553e-02 -7.268300e-03 -4.674544e-03
Al 3.173680e+00 -3.692453e+00 -2.412812e-01 -1.235649e-02 -4.636386e-03 2.938041e-02
Ga 1.604625e+00 -9.774372e-01 4.999486e+00 -1.310115e-02 7.647549e-03 -7.226097e-03
Al 1.603689e+00 -9.753471e-01 -5.275185e+00 -1.286557e-02 6.845334e-03 -6.304463e-03
Al 1.607356e+00 -9.789816e-01 -2.394776e-01 -1.309181e-02 8.414004e-03 2.760117e-02
Ga 3.130925e+00 1.806240e+00 4.998051e+00 3.816092e-04 -2.999542e-03 -1.026498e-03
Al 3.130688e+00 1.800603e+00 -5.277958e+00 -3.547475e-04 -6.767242e-04 -1.001489e-03
Ga 3.129735e+00 1.798797e+00 -2.135817e-01 -9.041125e-05 -2.439765e-03 3.241376e-02
Ga 6.308043e+00 -3.690438e+00 5.001383e+00 -1.930342e-03 4.191324e-04 -3.140914e-03
Al 6.310934e+00 -3.693121e+00 -5.285933e+00 -5.904564e-04 -1.656105e-03 2.340830e-03
Al 6.303378e+00 -3.689671e+00 -2.440719e-01 1.534984e-03 2.288050e-04 3.094145e-02
Ga 4.741162e+00 -9.750479e-01 5.001576e+00 -8.706841e-04 1.350624e-02 -6.020286e-03
Ga 4.742897e+00 -9.744395e-01 -5.266618e+00 -1.037813e-03 1.445995e-02 -4.274511e-03
Al 4.740580e+00 -9.826901e-01 -2.446901e-01 -1.088505e-03 1.260671e-02 3.007070e-02
Al -3.218761e+00 1.808113e+00 4.995791e+00 2.823356e-03 -1.280980e-03 -2.238243e-03
Al -3.214131e+00 1.803255e+00 -5.268386e+00 1.985681e-03 -6.986258e-05 -2.630506e-03
Ga -3.215800e+00 1.799772e+00 -2.220732e-01 2.183268e-03 -4.620076e-04 3.260507e-02
Al -4.100823e-02 -3.690726e+00 4.998036e+00 2.931534e-03 7.375217e-04 -9.098530e-04
Al -3.957745e-02 -3.688749e+00 -5.284652e+00 9.963061e-04 4.243072e-04 4.834009e-04
Ga -4.052281e-02 -3.687303e+00 -2.191910e-01 2.424367e-03 7.185914e-05 3.377327e-02
Ga -1.607258e+00 -9.755524e-01 5.000205e+00 7.973737e-05 1.587233e-02 -5.363026e-03
Al -1.607199e+00 -9.745447e-01 -5.274546e+00 1.717912e-03 1.221497e-02 -3.057655e-03
Al -1.609774e+00 -9.786098e-01 -2.460396e-01 6.084185e-04 1.307766e-02 2.847153e-02
N 1.561956e+00 9.016171e-01 4.392675e+00 -6.765898e-04 -1.540032e-02 -1.727754e-02
N 1.561669e+00 8.984205e-01 -5.872441e+00 5.973884e-04 -1.218874e-02 4.142515e-03
N 1.563051e+00 8.940374e-01 -8.243488e-01 -4.432637e-04 -3.254990e-02 -1.522681e-02
N -3.633063e-03 3.613826e+00 4.398627e+00 -1.523268e-03 -1.256498e-03 -2.807209e-02
N -1.426911e-03 3.607236e+00 -5.873867e+00 1.482363e-02 -9.150620e-03 -4.579675e-03
N -4.214930e-03 3.611097e+00 -8.302883e-01 -2.294337e-03 1.914574e-02 1.785480e-02
N 3.172347e+00 -1.881276e+00 4.401684e+00 -3.628874e-03 2.188158e-03 -2.375167e-02
N 3.168169e+00 -1.879572e+00 -5.865210e+00 -1.825541e-02 1.133453e-02 8.951377e-03
N 3.171688e+00 -1.883294e+00 -8.346229e-01 -2.387852e-03 8.370053e-04 2.455188e-02
N -4.780885e+00 9.045920e-01 4.400381e+00 1.714711e-02 -5.103964e-03 9.765945e-03
N -4.781239e+00 9.103852e-01 -5.861847e+00 5.012281e-04 1.647041e-03 1.793118e-02
N -4.785452e+00 8.936790e-01 -8.313173e-01 1.000947e-03 -3.093570e-02 -8.857662e-03
N -6.346927e+00 3.616634e+00 4.399989e+00 1.713711e-02 1.014767e-02 6.726289e-03
N -6.349074e+00 3.611179e+00 -5.874927e+00 -3.727158e-04 5.744715e-05 1.816406e-03
N -6.354941e+00 3.612000e+00 -8.254905e-01 -1.665137e-02 9.932841e-03 1.005851e-02
N -3.175008e+00 -1.880416e+00 4.401670e+00 2.555567e-04 2.464320e-03 -2.400541e-02
N -3.168554e+00 -1.884028e+00 -5.860756e+00 1.466111e-02 -7.146104e-03 1.418802e-02
N -3.176418e+00 -1.882994e+00 -8.448596e-01 -4.407012e-04 1.263309e-03 3.751880e-03
N -1.654998e+00 9.065350e-01 4.399566e+00 -2.059116e-03 6.763735e-04 1.332374e-02
N -1.650445e+00 9.005366e-01 -5.863609e+00 1.144888e-02 -7.261892e-03 2.641846e-02
N -1.650393e+00 8.941303e-01 -8.342975e-01 1.468094e-02 -2.425945e-02 -5.885615e-03
N -3.223817e+00 3.612394e+00 4.397008e+00 -4.467808e-03 -2.605504e-03 -3.391303e-03
N -3.227698e+00 3.608030e+00 -5.878608e+00 -1.541950e-03 -2.602805e-03 -6.589432e-04
N -3.214701e+00 3.614064e+00 -8.311159e-01 2.742616e-02 1.476258e-02 -8.888208e-03
N -4.148165e-02 -1.885890e+00 4.402358e+00 1.274835e-02 -1.089649e-02 1.086256e-02
N -4.195473e-02 -1.878456e+00 -5.872383e+00 1.057854e-02 6.042049e-03 3.667799e-03
N -4.121166e-02 -1.876237e+00 -8.318523e-01 1.113613e-02 2.553632e-02 1.867427e-02
N 1.875974e-03 1.794958e+00 1.853142e+00 3.210998e-03 2.822360e-03 -1.423041e-02
N 6.589399e-04 1.805697e+00 6.923711e+00 3.729695e-03 3.852918e-04 1.787932e-02
N -2.609219e-03 1.789371e+00 -3.358227e+00 -1.050612e-02 -2.484317e-02 -2.992139e-03
N 3.169983e+00 -3.688093e+00 1.889777e+00 -1.326269e-02 -5.953092e-03 -3.082961e-02
N 3.171705e+00 -3.696630e+00 6.924490e+00 -1.069000e-02 -2.444915e-02 1.729842e-02
N 3.166998e+00 -3.697348e+00 -3.351816e+00 -2.772506e-02 -1.353662e-02 1.132602e-02
N 1.613404e+00 -9.755004e-01 1.888278e+00 -3.767343e-03 1.734772e-02 -3.283394e-02
N 1.600873e+00 -9.738176e-01 6.923882e+00 -2.934564e-02 1.761893e-02 1.935205e-02
N 1.604463e+00 -9.634167e-01 -3.358287e+00 -1.365010e-02 1.777855e-02 -7.526820e-03
N 3.125050e+00 1.800661e+00 1.864659e+00 -1.495017e-02 -1.048221e-02 -2.476034e-02
N 3.125300e+00 1.807189e+00 6.923600e+00 -1.664926e-02 7.430885e-03 1.458105e-02
N 3.131312e+00 1.792275e+00 -3.359249e+00 5.681003e-04 -2.088461e-02 -5.687594e-03
N 6.300718e+00 -3.679486e+00 1.883672e+00 -1.339269e-02 7.901201e-03 -3.937043e-02
N 6.307020e+00 -3.695743e+00 6.925577e+00 2.017858e-04 -1.981864e-02 1.575461e-02
N 6.306764e+00 -3.690965e+00 -3.356812e+00 -1.052570e-04 2.040677e-02 -1.317666e-02
N 4.746146e+00 -9.874325e-01 1.888032e+00 -5.559532e-03 -1.029447e-03 -3.537162e-02
N 4.740623e+00 -9.755978e-01 6.924805e+00 -4.751662e-04 1.561881e-02 5.135361e-03
N 4.746946e+00 -9.756985e-01 -3.345668e+00 1.359026e-02 2.189185e-02 1.769597e-02
N -3.217480e+00 1.811061e+00 1.862876e+00 1.957870e-03 1.764667e-02 -2.571142e-02
N -3.218025e+00 1.811406e+00 6.915464e+00 2.837473e-03 1.662980e-02 -1.378061e-02
N -3.216404e+00 1.802839e+00 -3.350691e+00 2.205311e-03 -1.088317e-03 7.129558e-04
N -3.566656e-02 -3.691687e+00 1.864979e+00 1.814852e-02 -9.864483e-03 -2.532217e-02
N -4.159637e-02 -3.689174e+00 6.918320e+00 9.530759e-04 5.924161e-04 1.372797e-03
N -3.536201e-02 -3.695278e+00 -3.353571e+00 1.868712e-02 -7.814214e-03 -1.533230e-02
N -1.614787e+00 -9.806360e-01 1.884043e+00 -1.113708e-02 8.067066e-03 -4.176346e-02
N -1.603226e+00 -9.771900e-01 6.923710e+00 1.743274e-02 6.834475e-03 1.165296e-02
N -1.613151e+00 -9.749286e-01 -3.357487e+00 -1.587730e-02 2.135827e-02 -2.518841e-03
