108
Energy=-7.113171e+05 Lattice="9.428191e+00 0.000000e+00 0.000000e+00 -4.714941e+00 8.165087e+00 0.000000e+00 -4.540190e-04 -2.167644e-03 1.514166e+01" Stress="-4.954809e-05 -9.961807e-06 1.286904e-05 -1.410985e-05 -7.992764e-05 -1.013398e-04 1.270696e-05 -1.012528e-04 1.017578e-04" Properties=species:S:1:pos:R:3:forces:R:3 Config_type=AlGaN_super3_6_1_17.xyz
Al 1.548349e+00 8.678823e-01 2.366743e+00 -4.508326e-05 -2.882810e-05 7.748800e-05
Al 1.553787e+00 8.795370e-01 7.407065e+00 3.192093e-05 4.159030e-06 4.095494e-06
Al 1.549094e+00 8.794919e-01 -2.654751e+00 5.910525e-05 8.637480e-06 -5.693076e-05
Al -8.898330e-03 3.583868e+00 2.368850e+00 -2.921086e-04 1.388369e-04 -2.476243e-04
Al -1.632599e-02 3.583424e+00 7.430102e+00 7.901050e-05 -5.265475e-06 -1.219829e-05
Al -2.577015e-02 3.583345e+00 -2.675489e+00 7.329655e-06 -1.204179e-05 -1.038085e-05
Al 3.127065e+00 -1.843311e+00 2.363013e+00 -1.452188e-04 -4.284513e-06 -1.610526e-04
Al 3.133069e+00 -1.849540e+00 7.422036e+00 -7.234270e-05 1.000541e-04 -2.819433e-05
Al 3.120554e+00 -1.855506e+00 -2.657201e+00 2.921229e-05 -2.354755e-05 -5.983083e-05
Al -4.738568e+00 8.600375e-01 2.377774e+00 9.705341e-07 -3.970535e-05 -9.286644e-06
Al -4.738886e+00 8.673582e-01 7.415513e+00 4.754550e-05 6.715059e-05 -5.654531e-05
Al -4.744481e+00 8.764731e-01 -2.675222e+00 6.465610e-05 2.039700e-06 -2.141018e-05
Al -6.315559e+00 3.587417e+00 2.373757e+00 -1.084619e-04 1.292058e-04 5.504513e-05
Al -6.317470e+00 3.577147e+00 7.407527e+00 1.081337e-04 -2.647971e-05 -5.945055e-05
Al -6.314609e+00 3.577521e+00 -2.656651e+00 2.191632e-05 -2.260792e-05 -5.465415e-05
Al -3.166050e+00 -1.856449e+00 2.368406e+00 -2.198102e-06 3.463610e-05 -2.830461e-05
Al -3.173023e+00 -1.854183e+00 7.415923e+00 7.482156e-05 -1.582808e-05 -6.109632e-05
Ga -3.166110e+00 -1.852544e+00 -2.661389e+00 1.783328e-05 -3.116736e-05 -5.583335e-05
Al -1.589371e+00 8.648218e-01 2.374069e+00 1.953630e-06 -5.822322e-05 -6.943325e-05
Al -1.597603e+00 8.739135e-01 7.418186e+00 -8.536382e-06 -4.396908e-05 -1.906239e-05
Al -1.589594e+00 8.766968e-01 -2.670453e+00 5.310706e-05 7.201965e-06 1.902553e-05
Ga -3.169769e+00 3.583868e+00 2.364408e+00 1.235136e-04 -2.937482e-05 -1.782421e-04
Al -3.163800e+00 3.574989e+00 7.423489e+00 -4.857838e-05 -4.825994e-05 -3.288346e-05
Al -3.158119e+00 3.586717e+00 -2.657736e+00 5.553561e-06 -4.103705e-05 -5.787665e-05
Al -2.250279e-02 -1.849315e+00 2.374208e+00 -7.581698e-05 4.658115e-04 1.236810e-04
Ga -2.555634e-02 -1.851322e+00 7.402056e+00 5.848973e-05 -4.713927e-05 -5.519150e-05
Al -2.305884e-02 -1.845446e+00 -2.645653e+00 2.526046e-05 -6.765829e-05 -8.020996e-05
Al -1.898685e-02 1.766729e+00 4.892695e+00 6.961299e-05 1.532058e-05 2.279556e-05
Al -2.629694e-02 1.781383e+00 -5.195495e+00 2.366333e-05 6.418591e-05 -4.531765e-05
Al -2.519541e-02 1.777367e+00 -1.509362e-01 -1.280865e-04 1.646621e-04 1.412507e-05
Ga 3.128576e+00 -3.665947e+00 4.908011e+00 9.796609e-05 6.238235e-05 -8.208212e-05
Al 3.133374e+00 -3.673951e+00 -5.197213e+00 -1.087985e-05 5.404227e-05 -9.294998e-05
Al 3.127811e+00 -3.665863e+00 -1.549465e-01 1.105389e-04 -1.135472e-04 5.796496e-05
Al 1.552229e+00 -9.368050e-01 4.881367e+00 -2.791095e-05 5.558356e-05 3.324521e-04
Ga 1.561016e+00 -9.320394e-01 -5.173847e+00 -1.015285e-04 4.182876e-05 -9.593452e-05
Al 1.547993e+00 -9.434257e-01 -1.514264e-01 1.028005e-04 -2.238751e-04 1.204142e-04
Al 3.120982e+00 1.773233e+00 4.886953e+00 -1.967410e-05 3.373754e-05 1.455558e-05
Al 3.118144e+00 1.777230e+00 -5.197695e+00 -3.298381e-05 -5.225740e-07 -2.220333e-05
Al 3.120236e+00 1.776276e+00 -1.434102e-01 1.589661e-04 -7.240858e-05 -3.322217e-05
Al 6.271310e+00 -3.668396e+00 4.892317e+00 9.164176e-05 -1.420508e-05 -5.119644e-05
Al 6.256770e+00 -3.671028e+00 -5.206223e+00 1.189797e-05 -2.030868e-05 -4.470610e-05
Al 6.260618e+00 -3.674765e+00 -1.363047e-01 9.271638e-05 -1.215366e-04 7.455869e-05
Al 4.697837e+00 -9.407461e-01 4.893758e+00 1.925821e-05 2.527699e-07 -4.576207e-05
Al 4.696935e+00 -9.412700e-01 -5.205239e+00 -3.685165e-05 -1.878061e-05 -2.776566e-05
Al 4.686180e+00 -9.383301e-01 -1.374895e-01 9.776080e-05 -1.780858e-04 2.784091e-04
Al -3.168690e+00 1.758893e+00 4.907978e+00 -5.329736e-05 -1.634790e-04 1.409888e-04
Al -3.162518e+00 1.767751e+00 -5.195980e+00 -3.685990e-05 -2.411734e-06 -3.017861e-05
Al -3.167168e+00 1.767494e+00 -1.615452e-01 9.617503e-05 -4.662446e-05 3.544533e-05
Al -3.497146e-02 -3.672852e+00 4.895802e+00 -6.298833e-04 2.881873e-04 2.476208e-04
Ga -2.887397e-02 -3.682847e+00 -5.175199e+00 -6.248508e-05 -2.439924e-06 -1.001817e-04
Al -3.039523e-02 -3.664394e+00 -1.613256e-01 1.075005e-04 -3.566010e-05 1.838160e-04
Al -1.600517e+00 -9.434404e-01 4.876993e+00 -5.904289e-07 -5.926752e-05 9.016541e-07
Al -1.610227e+00 -9.307512e-01 -5.192938e+00 2.209968e-04 -2.037168e-04 -1.414816e-04
Al -1.590144e+00 -9.385202e-01 -1.283759e-01 1.070081e-04 -1.538667e-04 6.194712e-05
N 1.548344e+00 8.703201e-01 4.285403e+00 1.045108e-05 2.605792e-05 -1.074738e-05
N 1.547421e+00 9.179241e-01 -5.819255e+00 6.604590e-05 -1.517074e-05 8.674152e-05
N 1.548515e+00 8.752184e-01 -7.391180e-01 1.105538e-04 -1.856159e-05 1.145888e-04
N 1.993609e-02 3.563242e+00 4.278435e+00 -8.211066e-05 5.614856e-05 5.511703e-05
N -2.113409e-02 3.586815e+00 -5.795026e+00 3.299649e-05 -4.295926e-05 5.865278e-05
N -2.090202e-02 3.589673e+00 -7.562419e-01 5.605464e-05 -6.476168e-05 -1.498287e-05
N 3.124628e+00 -1.808118e+00 4.272229e+00 4.674984e-05 -1.294159e-04 1.004378e-04
N 3.159901e+00 -1.873641e+00 -5.809729e+00 4.441554e-05 -3.926389e-05 9.180967e-05
N 3.124097e+00 -1.851760e+00 -7.429305e-01 1.183735e-04 -5.209794e-05 2.819955e-05
N -4.734916e+00 8.670176e-01 4.295802e+00 7.109143e-05 2.451931e-05 3.677436e-05
N -4.738689e+00 8.723745e-01 -5.801278e+00 5.377063e-05 2.613600e-05 8.870513e-06
N -4.742474e+00 8.685599e-01 -7.575455e-01 9.656823e-05 3.266078e-06 3.682786e-05
N -6.309724e+00 3.587215e+00 4.290805e+00 -8.046776e-05 1.376615e-05 2.117027e-05
N -6.349080e+00 3.565740e+00 -5.822277e+00 2.719487e-05 4.742885e-05 6.989447e-05
N -6.317121e+00 3.586040e+00 -7.443807e-01 5.731277e-05 -5.207360e-05 5.928044e-05
N -3.168427e+00 -1.857515e+00 4.288131e+00 -5.963598e-06 -1.012592e-05 3.727272e-05
N -3.164591e+00 -1.852508e+00 -5.798943e+00 1.019953e-05 -5.961328e-06 4.934041e-05
N -3.165428e+00 -1.851855e+00 -6.851490e-01 4.448685e-05 -3.081739e-06 1.988103e-05
N -1.594377e+00 8.728275e-01 4.290921e+00 -1.075028e-05 2.586519e-05 -2.495924e-06
N -1.593865e+00 8.717861e-01 -5.800979e+00 7.637573e-05 -3.933543e-05 9.361687e-06
N -1.592783e+00 8.671227e-01 -7.535675e-01 5.974598e-05 8.547306e-06 -1.313806e-05
N -3.205866e+00 3.561939e+00 4.331505e+00 6.492043e-04 -2.561593e-04 -3.433943e-04
N -3.127715e+00 3.565206e+00 -5.803972e+00 1.642482e-05 -2.446931e-05 8.618722e-05
N -3.162587e+00 3.589062e+00 -7.396844e-01 2.562080e-06 -9.547593e-05 5.145968e-05
N -2.035254e-02 -1.856115e+00 4.298781e+00 1.962962e-05 3.334595e-05 7.993621e-05
N -6.081288e-02 -1.829967e+00 -5.778125e+00 -1.766182e-04 6.877259e-05 2.075919e-04
N -2.877812e-02 -1.845804e+00 -7.357860e-01 3.381921e-05 -8.278317e-05 2.023594e-05
N -2.374919e-02 1.773658e+00 1.768169e+00 1.010371e-04 -1.564925e-05 2.191221e-05
N -2.451357e-02 1.774630e+00 6.813996e+00 -5.080133e-05 9.334415e-05 -1.727237e-05
N -2.120864e-02 1.774694e+00 -3.273115e+00 -6.466654e-05 5.457797e-05 2.806255e-05
N 3.165120e+00 -3.646656e+00 1.758001e+00 3.158068e-04 1.065054e-04 1.983196e-04
N 3.124802e+00 -3.669525e+00 6.879410e+00 -3.727365e-05 5.326087e-05 -4.152987e-05
N 3.120652e+00 -3.666203e+00 -3.270404e+00 -2.518774e-06 4.334193e-05 5.152980e-05
N 1.549212e+00 -9.474396e-01 1.770850e+00 -1.344048e-04 2.848029e-04 -4.842064e-05
N 1.595314e+00 -9.211130e-01 6.796036e+00 4.521075e-05 -1.572452e-04 -4.311654e-04
N 1.551269e+00 -9.413479e-01 -3.199627e+00 -4.978409e-05 3.063054e-05 1.843644e-05
N 3.123935e+00 1.773347e+00 1.777541e+00 -2.010346e-04 1.765868e-04 -5.073413e-06
N 3.122562e+00 1.772248e+00 6.804537e+00 -7.605387e-05 6.972202e-06 1.704426e-05
N 3.116945e+00 1.776812e+00 -3.275536e+00 -5.121162e-05 2.599972e-05 4.232125e-05
N 6.265736e+00 -3.672524e+00 1.777118e+00 -2.555935e-04 1.070915e-04 -7.561592e-05
N 6.261000e+00 -3.667839e+00 6.815284e+00 -8.371055e-05 2.536385e-06 1.714328e-05
N 6.264491e+00 -3.713865e+00 -3.292250e+00 -1.848534e-05 7.135409e-05 6.155096e-05
N 4.693646e+00 -9.432047e-01 1.776493e+00 -2.207420e-04 7.819132e-05 -2.851427e-04
N 4.693793e+00 -9.457692e-01 6.814784e+00 -7.299523e-05 -4.582595e-05 3.235113e-05
N 4.650427e+00 -9.214950e-01 -3.291866e+00 -2.799142e-05 -1.178781e-05 6.390026e-05
N -3.165827e+00 1.720653e+00 1.748736e+00 -8.379177e-05 1.980462e-04 -3.768871e-05
N -3.166197e+00 1.768694e+00 6.823319e+00 -1.057858e-05 9.553732e-07 3.484773e-05
N -3.166024e+00 1.775884e+00 -3.270642e+00 -6.499953e-05 4.923841e-06 2.609425e-05
N -6.665767e-02 -3.642727e+00 1.753140e+00 2.968910e-06 -5.742052e-04 -4.869610e-04
N -2.365330e-02 -3.719934e+00 6.804857e+00 -1.449241e-04 1.145160e-04 1.122151e-04
N -2.432670e-02 -3.669213e+00 -3.197445e+00 -3.806125e-05 4.097634e-05 8.709750e-05
N -1.589968e+00 -9.448571e-01 1.788609e+00 -2.132217e-04 1.937386e-04 -2.912026e-05
N -1.640651e+00 -9.201100e-01 6.788821e+00 -4.109276e-05 -2.044346e-06 7.359946e-06
N -1.555837e+00 -9.194570e-01 -3.283855e+00 -1.486633e-04 -4.551391e-05 5.627495e-05
