108
Energy=-1764153.077037 Lattice="9.534203 0.000000 0.000000 -4.780550 8.253585 0.000000 -0.001881 0.000581 15.446144" Stress="-0.000048 -0.000002 0.000001 -0.000002 -0.000045 -0.000001 0.000001 -0.000001 -0.000016" Properties=species:S:1:pos:R:3:forces:R:3
Al 1.585102 0.881271 2.428926 -0.007715 -0.004155 0.002636
Al 1.578071 0.897347 7.582952 -0.002507 -0.003992 -0.005927
Al 1.552900 0.871751 -2.746979 0.000378 0.001606 0.005623
Al -0.031276 3.619851 2.460982 -0.000440 0.000364 -0.001102
Al -0.006922 3.624172 7.569105 -0.001144 0.000826 0.001945
Al -0.027226 3.606470 -2.763600 0.000649 0.000583 0.004554
Al 3.143505 -1.875950 2.434062 0.000325 -0.001579 0.000985
Al 3.164479 -1.868973 7.572083 -0.003482 -0.000985 0.002717
Ga 3.151605 -1.886244 -2.740651 0.002088 -0.001210 0.003728
Ga -4.819599 0.903748 2.453818 0.003671 -0.002513 -0.000097
Ga -4.825029 0.886779 7.572135 0.002278 0.001029 0.001011
Ga -4.819429 0.882193 -2.746870 0.002340 -0.000543 0.003180
Al -6.396474 3.582962 2.450404 0.001477 0.011521 -0.000530
Al -6.401384 3.625849 7.563895 -0.000303 0.000317 0.001885
Ga -6.394720 3.614217 -2.748427 0.000651 0.001441 0.003510
Ga -3.199708 -1.889910 2.466399 0.001342 -0.000063 -0.001789
Ga -3.207348 -1.894161 7.583807 0.001187 -0.000435 0.000737
Ga -3.194202 -1.888843 -2.756459 0.000143 -0.000683 0.002616
Al -1.619228 0.904206 2.464390 0.001008 -0.001665 -0.002649
Ga -1.607500 0.904414 7.579968 0.000892 0.000343 0.001670
Ga -1.603869 0.896461 -2.739237 0.001153 -0.000736 0.001404
Al -3.203406 3.632949 2.473421 -0.000048 -0.000383 -0.002207
Ga -3.217714 3.642488 7.547858 0.000666 -0.000011 0.001640
Al -3.203774 3.642459 -2.739077 -0.001148 -0.001101 0.003275
Ga 0.006806 -1.860300 2.448293 0.000036 -0.001202 0.001230
Ga -0.002414 -1.869841 7.545302 0.003674 -0.000596 0.000871
Al -0.000004 -1.865146 -2.727636 -0.001485 -0.003554 0.004237
Ga -0.011637 1.795795 4.995829 -0.000392 -0.000246 0.001632
Al 0.000566 1.799722 -5.319740 -0.001128 0.002368 0.004041
Ga -0.007526 1.779416 -0.116164 -0.000060 0.001943 -0.002487
Ga 3.159730 -3.700845 5.008110 -0.000118 0.000412 0.000107
Ga 3.187095 -3.719844 -5.319003 0.000374 0.002155 0.002218
Ga 3.163854 -3.723638 -0.129093 0.000204 0.001284 -0.001400
Al 1.594493 -0.946468 5.000945 -0.001575 0.002466 0.005170
Ga 1.590553 -0.937932 -5.312720 -0.000580 0.000225 0.002730
Al 1.584392 -0.954057 -0.162472 -0.002132 0.001612 0.001544
Al 3.135717 1.811617 5.015184 -0.000186 -0.000216 0.002482
Al 3.130725 1.796965 -5.323873 -0.000248 -0.000177 0.000812
Al 3.133007 1.778736 -0.153277 -0.001774 0.001510 -0.000992
Al 6.352969 -3.724450 5.013075 0.000058 -0.000579 0.001933
Al 6.330410 -3.728347 -5.324804 0.001337 0.001369 0.002723
Ga 6.335224 -3.730033 -0.125203 0.000231 0.000287 -0.004279
Ga 4.734153 -0.949775 5.019219 -0.000239 0.000206 -0.001221
Al 4.746724 -0.959937 -5.321671 -0.000212 -0.000810 0.001950
Ga 4.740300 -0.955035 -0.123478 -0.000635 -0.000965 -0.002674
Al -3.220958 1.808476 5.000146 0.000332 0.000233 0.001476
Ga -3.216432 1.798332 -5.302039 -0.001112 -0.001413 0.002357
Ga -3.218463 1.805196 -0.130727 -0.000104 0.000546 -0.002484
Al -0.026771 -3.725737 4.997111 -0.001871 0.004163 -0.001839
Ga -0.029758 -3.707834 -5.305376 -0.002253 -0.000372 0.003684
Ga -0.009717 -3.710187 -0.128892 -0.001506 0.000390 -0.004639
Ga -1.596627 -0.952091 5.014882 -0.000592 0.000846 -0.001138
Ga -1.600584 -0.954631 -5.301092 -0.003134 -0.000074 0.001303
Ga -1.591074 -0.954028 -0.132301 -0.001469 -0.001013 -0.002657
N 1.603054 0.857708 4.371854 0.003922 -0.000491 -0.005943
N 1.556690 0.919674 -5.959088 0.003310 0.000918 0.000428
N 1.592316 0.849250 -0.796072 0.002820 0.000138 -0.002464
N 0.009381 3.654484 4.371856 0.000994 0.001155 -0.002832
N 0.014280 3.601250 -5.951436 0.000506 -0.001431 -0.003144
N -0.027201 3.613316 -0.832660 -0.000631 -0.000544 0.000683
N 3.119234 -1.847543 4.357727 0.000675 -0.000855 -0.005560
N 3.198009 -1.855305 -5.952915 0.000658 -0.000401 -0.002839
N 3.129975 -1.863919 -0.760330 -0.000524 -0.000567 0.000935
N -4.809967 0.933700 4.439283 -0.000323 0.000521 -0.002390
N -4.839573 0.853571 -5.894580 -0.000849 0.002257 -0.000809
N -4.842388 0.894193 -0.759012 0.000552 0.001514 0.001290
N -6.390828 3.623968 4.391287 0.000073 -0.000783 -0.004977
N -6.425747 3.608855 -5.946193 0.000738 -0.000909 -0.003007
N -6.389027 3.579440 -0.762870 0.001537 -0.001804 0.000115
N -3.196005 -1.918187 4.431566 0.000050 -0.001399 -0.000317
N -3.229267 -1.899910 -5.888342 -0.000547 -0.001142 0.000734
N -3.196329 -1.881127 -0.779260 0.000394 0.000074 0.003374
N -1.661643 0.911222 4.374900 -0.000104 0.000072 -0.002700
N -1.579875 0.913005 -5.894879 0.001922 -0.000131 -0.000832
N -1.618611 0.886299 -0.770762 0.000609 0.000170 0.001420
N -3.251280 3.615655 4.393674 0.001214 -0.001401 -0.002709
N -3.214114 3.637519 -5.934454 0.000415 -0.000839 -0.003035
N -3.208304 3.634236 -0.825318 0.000258 -0.001162 0.000654
N 0.040969 -1.877467 4.438479 -0.002137 -0.005880 -0.002083
N -0.007971 -1.866505 -5.935089 0.000854 -0.001479 -0.002824
N 0.023453 -1.848991 -0.795749 0.001625 -0.001254 0.000333
N -0.027341 1.788250 1.883250 0.002790 0.001232 0.000207
N 0.016483 1.818527 6.975797 0.002114 0.000080 -0.000332
N 0.019362 1.806036 -3.384034 0.001183 0.001176 -0.003302
N 3.159634 -3.718553 1.876905 0.001074 0.000815 0.000699
N 3.206380 -3.687371 6.990026 0.002010 0.001487 -0.000791
N 3.164731 -3.763372 -3.336287 0.001377 0.000507 -0.000822
N 1.616446 -0.932640 1.776225 0.000074 0.002576 -0.000311
N 1.626025 -0.927703 6.934400 0.000553 0.003141 -0.000316
N 1.540980 -0.939006 -3.328961 -0.001580 0.002012 -0.001694
N 3.096498 1.811866 1.773633 0.003167 0.000701 0.002452
N 3.107132 1.830360 6.942497 -0.001371 -0.000511 -0.003202
N 3.099435 1.763459 -3.407180 -0.001459 0.000510 -0.002024
N 6.333457 -3.761446 1.848056 0.002383 -0.002323 0.003236
N 6.343151 -3.753321 6.941699 -0.000461 -0.000870 -0.003605
N 6.301175 -3.740816 -3.403477 -0.001235 -0.000638 -0.002617
N 4.712240 -0.977870 1.851158 -0.001268 0.001285 0.001273
N 4.710635 -0.976348 6.982151 -0.000086 -0.000072 -0.002042
N 4.748066 -0.960039 -3.409488 -0.001257 -0.000185 -0.001912
N -3.172517 1.826253 1.850505 -0.001175 0.000687 0.003100
N -3.210667 1.797733 6.913366 -0.000964 -0.001079 -0.003738
N -3.213965 1.842460 -3.336612 -0.000729 0.000557 0.000883
N -0.007965 -3.749199 1.851744 -0.005169 -0.003646 0.005011
N -0.069831 -3.730947 6.906491 -0.000655 -0.000175 0.000289
N 0.017796 -3.684685 -3.323480 -0.000020 0.001631 0.000711
N -1.605068 -0.903231 1.846900 -0.000801 -0.000795 0.002329
N -1.606691 -0.943938 6.972609 -0.003152 -0.000546 -0.001274
N -1.559199 -0.976153 -3.334687 -0.000256 -0.000678 0.000780
