108
Energy=-1.626827e+06 Lattice="9.539440e+00 0.000000e+00 0.000000e+00 -4.769699e+00 8.261128e+00 0.000000e+00 -2.017069e-02 2.369641e-03 1.541379e+01" Stress="-2.852725e-05 5.266722e-07 -8.109123e-04 8.846271e-06 1.986429e-04 6.097001e-05 -8.194802e-04 5.504989e-05 -1.950282e-04" Properties=species:S:1:pos:R:3:forces:R:3 Config_type=AlGaN_super3_26_0_39.xyz
Al 1.568003e+00 8.676969e-01 2.435764e+00 -5.219758e-05 1.942327e-04 4.244573e-05
Al 1.552544e+00 8.830729e-01 7.546825e+00 -1.065221e-04 -1.070064e-04 8.026949e-05
Al 1.577296e+00 8.695325e-01 -2.723333e+00 -3.158291e-05 3.266982e-05 -4.586556e-06
Al -1.741839e-02 3.646978e+00 2.426425e+00 5.050604e-05 -1.156985e-04 3.376710e-04
Al -1.272600e-02 3.632122e+00 7.514244e+00 -7.237972e-05 3.024129e-05 -7.222659e-05
Ga -1.066365e-02 3.631314e+00 -2.683343e+00 -1.572450e-05 -5.924439e-06 -7.600348e-06
Al 3.160169e+00 -1.864516e+00 2.406388e+00 3.914869e-04 -8.334112e-05 2.300994e-04
Ga 3.147174e+00 -1.868986e+00 7.549912e+00 -5.610073e-05 -5.100812e-05 -4.568871e-05
Ga 3.167598e+00 -1.850281e+00 -2.697459e+00 -2.822751e-05 -5.494627e-05 -7.418617e-05
Al -4.800992e+00 8.588074e-01 2.396180e+00 -2.300215e-06 -5.288914e-05 1.787899e-05
Ga -4.816956e+00 8.717284e-01 7.584920e+00 -2.239382e-05 -2.003849e-05 1.715618e-05
Al -4.790379e+00 8.622188e-01 -2.715403e+00 -1.009260e-06 2.719254e-04 2.152793e-04
Ga -6.411554e+00 3.632369e+00 2.440407e+00 2.376336e-05 -5.030509e-05 4.890778e-06
Al -6.406422e+00 3.641029e+00 7.536326e+00 -4.759456e-05 4.204161e-05 4.944926e-05
Ga -6.393992e+00 3.618152e+00 -2.710478e+00 -2.708339e-05 -8.081041e-06 3.212168e-05
Al -3.223874e+00 -1.880900e+00 2.398149e+00 -6.757752e-06 4.344449e-04 1.588568e-04
Al -3.211045e+00 -1.891565e+00 7.552527e+00 -4.451013e-05 -3.096962e-05 -3.621308e-07
Al -3.206247e+00 -1.858926e+00 -2.690297e+00 2.320423e-05 -3.450827e-05 3.920683e-05
Ga -1.617609e+00 8.737719e-01 2.413153e+00 -3.775823e-05 -4.352137e-06 1.374856e-05
Ga -1.597853e+00 8.752556e-01 7.545638e+00 1.098113e-05 1.872365e-05 -1.754356e-05
Al -1.614938e+00 8.676625e-01 -2.687472e+00 -2.229846e-05 1.154697e-05 1.527763e-05
Ga -3.193131e+00 3.630360e+00 2.428006e+00 -9.122230e-05 -9.436217e-05 -8.061582e-05
Ga -3.211832e+00 3.647588e+00 7.533072e+00 4.936148e-05 7.363472e-05 -2.214639e-05
Ga -3.190489e+00 3.617437e+00 -2.682352e+00 -4.200106e-05 -6.037009e-06 2.538399e-05
Ga -1.879516e-02 -1.858155e+00 2.426846e+00 -8.591505e-05 5.593075e-05 -1.341480e-05
Al -2.917372e-02 -1.872447e+00 7.541419e+00 1.461255e-05 5.898259e-05 4.890136e-06
Ga -1.883168e-02 -1.845135e+00 -2.697664e+00 -6.156086e-05 -5.273565e-06 -7.770046e-06
Al -1.043460e-02 1.808428e+00 4.973852e+00 -3.687274e-05 8.761601e-06 1.325098e-04
Ga 6.954991e-03 1.790536e+00 -5.278939e+00 -2.843018e-05 -1.186887e-05 -1.046475e-05
Ga -2.091636e-02 1.790241e+00 -1.393802e-01 -4.292986e-05 -6.530364e-05 2.771625e-05
Al 3.161381e+00 -3.704402e+00 4.961562e+00 4.121688e-04 2.066805e-04 7.001451e-04
Ga 3.174836e+00 -3.698110e+00 -5.293688e+00 -3.750943e-05 -3.252956e-06 -2.471702e-05
Al 3.167581e+00 -3.699245e+00 -1.116966e-01 -7.755312e-05 -1.222501e-04 -4.011127e-06
Al 1.559846e+00 -9.601637e-01 4.982721e+00 -1.655403e-04 4.424601e-04 2.257240e-04
Al 1.583759e+00 -9.424713e-01 -5.303313e+00 -3.649717e-05 4.684126e-06 -5.621963e-05
Al 1.578609e+00 -9.533332e-01 -1.298186e-01 -4.047891e-04 2.105017e-04 5.656686e-04
Ga 3.135778e+00 1.794294e+00 4.986917e+00 -8.615015e-05 -7.280937e-05 1.346710e-06
Al 3.155449e+00 1.779814e+00 -5.292528e+00 -2.700848e-05 -4.506308e-06 -2.801499e-05
Ga 3.158014e+00 1.773778e+00 -1.366396e-01 -4.263001e-05 3.363188e-05 4.822717e-05
Al 6.320204e+00 -3.710439e+00 4.992301e+00 -2.874662e-04 7.011732e-05 1.552228e-04
Ga 6.341026e+00 -3.706185e+00 -5.309325e+00 -5.459684e-05 -8.258756e-06 1.917650e-05
Al 6.321979e+00 -3.688143e+00 -1.273510e-01 2.978910e-05 2.066153e-05 -2.522280e-05
Ga 4.736002e+00 -9.744999e-01 4.958858e+00 -1.097716e-05 -5.327487e-05 4.778344e-05
Al 4.751366e+00 -9.554972e-01 -5.268084e+00 -4.019785e-05 -1.117044e-06 -6.540682e-05
Al 4.753753e+00 -9.630621e-01 -1.375842e-01 1.563208e-04 -6.203113e-05 1.879621e-04
Ga -3.210354e+00 1.803162e+00 4.980804e+00 2.940333e-06 -6.467850e-05 4.969469e-05
Ga -3.205806e+00 1.785679e+00 -5.258007e+00 -3.846276e-05 7.803857e-06 -1.231001e-05
Al -3.204295e+00 1.776986e+00 -1.543661e-01 2.526513e-04 2.795515e-04 1.963120e-04
Al -3.032437e-02 -3.698505e+00 5.003834e+00 -2.534498e-05 9.978242e-06 7.043211e-05
Ga -2.067582e-02 -3.705751e+00 -5.299679e+00 -3.775964e-05 5.826276e-06 -1.266540e-05
Ga -1.990825e-02 -3.703423e+00 -1.372155e-01 -2.869322e-05 -2.852509e-05 2.557339e-05
Ga -1.615641e+00 -9.773976e-01 4.997049e+00 -6.557498e-05 3.209041e-05 2.568847e-05
Ga -1.609907e+00 -9.658862e-01 -5.283671e+00 -2.411654e-05 1.751097e-06 -2.972507e-06
Al -1.631388e+00 -9.585355e-01 -1.514934e-01 -1.902844e-05 1.564994e-06 6.611761e-05
N 1.520696e+00 8.474709e-01 4.350032e+00 -1.299912e-04 -7.542142e-05 1.327641e-04
N 1.613982e+00 8.555223e-01 -5.939992e+00 -8.052209e-06 2.829771e-05 -1.120511e-04
N 1.570444e+00 8.255797e-01 -8.095091e-01 1.019310e-04 -4.305425e-05 -1.425159e-05
N -2.244595e-02 3.635919e+00 4.360664e+00 -8.740752e-06 5.295168e-05 3.826287e-05
N -1.492461e-02 3.624939e+00 -5.982093e+00 6.154068e-05 5.492435e-06 7.977279e-07
N -2.311831e-02 3.680498e+00 -7.115640e-01 6.036134e-05 3.769533e-05 8.473241e-06
N 3.103749e+00 -1.893488e+00 4.334513e+00 2.508250e-04 -5.810276e-04 -2.461529e-04
N 3.168440e+00 -1.823210e+00 -5.878130e+00 5.616121e-05 9.076571e-06 2.392464e-05
N 3.157499e+00 -1.871987e+00 -7.025310e-01 1.243871e-04 -1.387368e-04 -1.555432e-04
N -4.801172e+00 8.765222e-01 4.302467e+00 2.600622e-05 2.333004e-05 -4.006523e-05
N -4.826842e+00 8.508936e-01 -5.852591e+00 4.526909e-05 -1.539377e-05 1.095673e-07
N -4.756612e+00 8.460262e-01 -7.850741e-01 -2.735206e-04 6.947040e-06 -5.175662e-04
N -6.393201e+00 3.683080e+00 4.419707e+00 1.927409e-04 -6.111914e-05 -1.615713e-04
N -6.376653e+00 3.581248e+00 -5.949413e+00 -2.055985e-05 -5.438189e-07 -1.538170e-06
N -6.432358e+00 3.649606e+00 -7.348483e-01 1.772468e-05 -1.494543e-05 -2.746264e-05
N -3.206188e+00 -1.927717e+00 4.313522e+00 2.975019e-05 -2.630703e-05 3.019895e-05
N -3.241769e+00 -1.848566e+00 -5.947961e+00 2.927368e-05 -2.473980e-06 7.430859e-06
N -3.209527e+00 -1.875990e+00 -7.607358e-01 8.860839e-06 -1.107150e-05 -3.295808e-05
N -1.575222e+00 8.958200e-01 4.388656e+00 2.986764e-05 -9.749733e-07 -2.645226e-05
N -1.599781e+00 8.815768e-01 -5.901839e+00 3.287873e-05 3.066644e-06 -9.399757e-06
N -1.649225e+00 8.529991e-01 -7.667851e-01 3.754787e-05 6.670559e-07 -5.998743e-05
N -3.209869e+00 3.682988e+00 4.408066e+00 -1.408529e-04 -2.335285e-05 -1.292056e-04
N -3.191452e+00 3.629482e+00 -5.912443e+00 3.917544e-05 -3.484358e-06 1.080386e-05
N -3.152459e+00 3.609043e+00 -7.048158e-01 3.165259e-05 -1.033849e-04 -7.189525e-06
N 1.351656e-02 -1.895925e+00 4.402207e+00 2.178009e-05 -2.114657e-05 -3.108753e-05
N 2.958021e-02 -1.847628e+00 -5.948320e+00 3.227973e-05 7.781614e-06 7.444329e-06
N -1.746733e-02 -1.818615e+00 -7.183632e-01 1.268044e-04 3.017316e-05 2.363594e-05
N 2.104404e-02 1.821369e+00 1.841913e+00 1.408269e-04 -5.114498e-05 -6.060433e-05
N 1.863317e-02 1.821418e+00 6.898617e+00 9.703039e-05 2.156646e-06 7.381986e-06
N -1.892217e-02 1.750914e+00 -3.286327e+00 3.046539e-05 -3.186398e-06 2.995267e-06
N 3.199260e+00 -3.686129e+00 1.806208e+00 -2.282162e-04 2.971741e-04 -5.231471e-05
N 3.196305e+00 -3.725616e+00 6.882517e+00 -6.020130e-05 2.200830e-06 -3.925163e-04
N 3.165820e+00 -3.706510e+00 -3.326562e+00 4.544265e-05 2.768831e-05 8.892534e-06
N 1.607012e+00 -9.269414e-01 1.788660e+00 -2.836996e-04 -1.064217e-04 -7.811934e-04
N 1.521471e+00 -9.290602e-01 6.908425e+00 -4.884637e-06 1.352222e-04 -3.621898e-05
N 1.572220e+00 -9.110075e-01 -3.384824e+00 4.866348e-05 -1.045797e-05 2.184804e-05
N 3.147553e+00 1.747784e+00 1.843891e+00 3.004666e-05 2.576612e-05 -6.396546e-05
N 3.108090e+00 1.816203e+00 6.965734e+00 4.590128e-05 -2.569549e-05 5.188637e-06
N 3.158784e+00 1.746958e+00 -3.356555e+00 7.883098e-05 -4.575982e-05 1.002743e-04
N 6.290029e+00 -3.685417e+00 1.786458e+00 4.486051e-05 -3.556330e-04 -2.670929e-04
N 6.327450e+00 -3.703783e+00 6.923487e+00 1.185807e-05 5.137723e-06 1.765771e-05
N 6.337195e+00 -3.655794e+00 -3.329302e+00 1.850782e-05 6.876661e-06 -2.551876e-05
N 4.743774e+00 -9.595339e-01 1.792866e+00 -1.085556e-05 -4.232448e-05 -2.827315e-05
N 4.781426e+00 -9.783352e-01 6.931281e+00 3.754746e-05 5.026177e-06 -1.605864e-05
N 4.795311e+00 -9.392626e-01 -3.342670e+00 2.637859e-05 -1.234879e-04 -3.181595e-07
N -3.248293e+00 1.770681e+00 1.763107e+00 -3.649924e-05 2.562787e-05 -1.019324e-04
N -3.218671e+00 1.788907e+00 6.939915e+00 2.110833e-05 -9.153071e-06 -3.069332e-05
N -3.198256e+00 1.747246e+00 -3.278727e+00 1.409776e-06 -3.070725e-05 1.983441e-05
N -3.071835e-02 -3.711512e+00 1.818713e+00 3.720614e-05 -1.798236e-05 -3.851401e-05
N -7.642328e-02 -3.683020e+00 6.924260e+00 5.713881e-05 -4.710190e-05 -9.041517e-05
N -1.884482e-02 -3.705899e+00 -3.321890e+00 2.982562e-05 -7.807329e-06 -1.167744e-05
N -1.660296e+00 -9.842466e-01 1.765165e+00 3.246924e-05 -6.387823e-05 -1.012877e-04
N -1.625864e+00 -1.010002e+00 6.973413e+00 4.667943e-05 -4.183906e-06 -1.517507e-05
N -1.654523e+00 -9.367740e-01 -3.295356e+00 2.254136e-05 -8.813320e-06 -2.344694e-05
