108
Energy=-1.169072e+06 Lattice="9.482384e+00 0.000000e+00 0.000000e+00 -4.742203e+00 8.213970e+00 0.000000e+00 -1.661288e-04 -3.085713e-03 1.527846e+01" Stress="9.756159e-05 9.823592e-06 3.866709e-05 1.569137e-05 3.189705e-04 -6.614403e-05 3.759978e-05 -6.584018e-05 -1.581841e-04" Properties=species:S:1:pos:R:3:forces:R:3 Config_type=AlGaN_super3_16_2_24.xyz
Al 1.553731e+00 8.741330e-01 2.386794e+00 3.644755e-05 2.239061e-05 -5.657393e-05
Al 1.564223e+00 8.676312e-01 7.478923e+00 1.677923e-04 1.714115e-04 -9.749674e-06
Al 1.552209e+00 8.610613e-01 -2.678154e+00 -4.193812e-05 -1.531872e-04 -6.198423e-05
Al -1.436938e-02 3.597532e+00 2.419099e+00 1.602976e-04 -3.141070e-05 -7.125838e-05
Al -3.230786e-02 3.615862e+00 7.457695e+00 4.074927e-05 6.414463e-05 3.499397e-05
Al -3.066156e-02 3.605086e+00 -2.680517e+00 -6.678134e-05 7.017155e-05 6.093420e-05
Al 3.136699e+00 -1.851634e+00 2.416975e+00 1.787130e-04 3.810598e-04 -1.549268e-04
Al 3.141570e+00 -1.870436e+00 7.486885e+00 4.505912e-05 1.008002e-04 5.152233e-05
Al 3.131353e+00 -1.859129e+00 -2.717694e+00 -5.053720e-05 -1.121527e-04 7.661745e-05
Al -4.780362e+00 8.650345e-01 2.420016e+00 -3.884672e-05 -3.539657e-05 -1.049654e-04
Al -4.777323e+00 8.617356e-01 7.466688e+00 4.448487e-05 5.704167e-05 -2.540160e-05
Ga -4.782118e+00 8.590016e-01 -2.689565e+00 7.737115e-05 -1.289767e-04 1.133903e-04
Al -6.357437e+00 3.600272e+00 2.425379e+00 2.458664e-04 3.368147e-05 -2.145467e-04
Ga -6.346363e+00 3.601401e+00 7.459134e+00 3.918099e-05 4.645684e-05 1.129861e-04
Ga -6.358903e+00 3.597744e+00 -2.683806e+00 -4.047142e-05 1.609919e-04 1.393888e-05
Ga -3.184904e+00 -1.862771e+00 2.405200e+00 -1.077451e-04 4.555263e-05 -1.589562e-04
Al -3.188797e+00 -1.859396e+00 7.464514e+00 8.335244e-05 2.432787e-05 4.151362e-05
Ga -3.183900e+00 -1.855380e+00 -2.677727e+00 -9.995060e-06 -1.532157e-05 2.100171e-04
Al -1.584115e+00 8.697751e-01 2.422850e+00 5.121994e-05 -6.565714e-05 2.931437e-04
Ga -1.599059e+00 8.666678e-01 7.462106e+00 2.666914e-04 -1.148151e-04 2.098430e-05
Al -1.581441e+00 8.643625e-01 -2.686979e+00 1.561793e-04 -1.109557e-04 1.359262e-04
Ga -3.182212e+00 3.613052e+00 2.440769e+00 8.538001e-05 9.349766e-05 -1.463481e-04
Al -3.174258e+00 3.621475e+00 7.451943e+00 -5.810686e-05 -5.564328e-05 9.147998e-05
Ga -3.163483e+00 3.622806e+00 -2.691108e+00 1.849592e-04 6.109334e-05 -1.006276e-04
Al -1.856642e-02 -1.849597e+00 2.408058e+00 5.526771e-06 -2.453804e-06 -7.639664e-05
Al -1.978237e-02 -1.859963e+00 7.484074e+00 3.687324e-05 7.600234e-05 1.829306e-05
Al -1.069053e-02 -1.833929e+00 -2.694879e+00 5.107817e-05 2.538131e-05 1.161817e-04
Al -1.821236e-02 1.793056e+00 4.931779e+00 -4.566762e-05 -3.212380e-05 5.020248e-05
Ga -8.823143e-03 1.784478e+00 -5.235623e+00 -1.834544e-04 -4.298301e-05 1.705227e-04
Al -1.157473e-02 1.778049e+00 -1.434613e-01 5.503593e-05 1.157300e-04 -3.539092e-04
Al 3.151342e+00 -3.690523e+00 4.948775e+00 7.614368e-05 -8.550234e-06 -3.659078e-06
Al 3.146206e+00 -3.674039e+00 -5.263375e+00 -2.745510e-04 1.253407e-04 2.906265e-04
Ga 3.166909e+00 -3.670576e+00 -1.273044e-01 -1.602025e-04 2.007686e-04 -1.001501e-04
Ga 1.557459e+00 -9.501861e-01 4.947195e+00 -2.053129e-04 2.768199e-04 2.879865e-04
Al 1.567127e+00 -9.482885e-01 -5.259005e+00 -7.014916e-05 4.175952e-05 8.630655e-05
Al 1.563597e+00 -9.397669e-01 -1.444699e-01 -1.077083e-04 -1.540783e-05 4.085775e-04
Al 3.136783e+00 1.782862e+00 4.925290e+00 7.561891e-06 -4.151840e-05 5.835252e-05
Al 3.132002e+00 1.760549e+00 -5.259329e+00 3.711176e-05 -5.456857e-05 1.549556e-04
Al 3.121548e+00 1.774926e+00 -1.112526e-01 -5.247758e-05 -4.215508e-05 3.709527e-04
Al 6.292876e+00 -3.692273e+00 4.943751e+00 -5.459701e-06 4.589343e-06 3.595052e-05
Ga 6.283394e+00 -3.676623e+00 -5.261015e+00 1.733090e-04 1.623208e-04 2.245261e-04
Al 6.293542e+00 -3.699342e+00 -1.234819e-01 -2.962543e-05 -4.904051e-05 2.028643e-05
Al 4.719877e+00 -9.503816e-01 4.956142e+00 2.338874e-05 1.490284e-04 9.463017e-05
Al 4.709688e+00 -9.538247e-01 -5.277907e+00 7.448533e-05 3.314814e-06 3.641706e-05
Al 4.705998e+00 -9.529102e-01 -1.284646e-01 -1.363204e-04 -1.172054e-04 8.442585e-05
Al -3.190559e+00 1.777678e+00 4.942017e+00 1.160425e-05 -4.538902e-05 -3.241342e-06
Ga -3.192935e+00 1.780315e+00 -5.262682e+00 6.683706e-06 4.343831e-05 -1.874202e-05
Ga -3.176936e+00 1.757398e+00 -1.172078e-01 3.821662e-05 9.252581e-05 6.449028e-05
Al -3.137896e-02 -3.686029e+00 4.945921e+00 1.256202e-04 -1.796419e-04 6.171713e-06
Ga -1.304415e-02 -3.671955e+00 -5.257763e+00 -1.915985e-05 2.011462e-04 3.454145e-05
Ga -4.236499e-02 -3.670062e+00 -1.227696e-01 1.413286e-04 -5.020413e-05 -1.803834e-05
Al -1.605119e+00 -9.566549e-01 4.940246e+00 9.004490e-06 9.750399e-05 -1.513682e-04
Al -1.600585e+00 -9.551338e-01 -5.247905e+00 -1.167751e-05 -4.343882e-04 1.423540e-04
Al -1.590657e+00 -9.436997e-01 -1.348790e-01 3.626859e-05 7.395030e-05 2.608649e-04
N 1.553814e+00 9.163963e-01 4.299394e+00 9.885965e-05 -2.480491e-05 -1.380609e-04
N 1.594077e+00 8.511336e-01 -5.885043e+00 8.210707e-05 -8.713664e-05 -1.812273e-04
N 1.562486e+00 8.713395e-01 -7.441991e-01 1.289911e-04 1.027669e-04 4.320371e-07
N -2.200090e-02 3.609008e+00 4.336150e+00 -1.223572e-04 -3.283475e-05 -7.949069e-05
N -6.662236e-02 3.629260e+00 -5.910545e+00 -2.476967e-05 -1.286070e-04 -3.382990e-04
N 1.697233e-02 3.586347e+00 -7.650156e-01 8.000452e-05 -1.163931e-04 5.022092e-05
N 3.179419e+00 -1.883531e+00 4.327784e+00 1.729891e-04 -1.073269e-04 -1.736355e-04
N 3.136901e+00 -1.865672e+00 -5.867299e+00 -1.002174e-04 1.774610e-05 -3.249649e-05
N 3.137906e+00 -1.814405e+00 -7.901703e-01 2.320374e-05 9.894266e-05 -4.452978e-05
N -4.768546e+00 8.654050e-01 4.337548e+00 1.214288e-04 -1.387653e-04 -2.912033e-05
N -4.808346e+00 8.500745e-01 -5.893093e+00 -1.553770e-04 -2.980049e-05 -8.459209e-05
N -4.811949e+00 8.496583e-01 -7.131775e-01 -5.053800e-05 1.066685e-04 1.412171e-04
N -6.349718e+00 3.610172e+00 4.349526e+00 5.418713e-05 3.497390e-05 -2.025656e-05
N -6.345142e+00 3.562542e+00 -5.847651e+00 -7.353513e-05 -2.753717e-04 -1.794396e-04
N -6.386978e+00 3.579097e+00 -7.084678e-01 -1.182726e-04 -6.225178e-05 2.837416e-04
N -3.187540e+00 -1.863574e+00 4.384268e+00 1.165443e-04 2.997390e-06 7.147608e-05
N -3.178645e+00 -1.810899e+00 -5.890083e+00 -2.853375e-05 8.490653e-05 -1.056594e-04
N -3.182596e+00 -1.861829e+00 -6.819889e-01 -8.207458e-06 -1.356997e-05 3.592712e-04
N -1.598583e+00 8.711238e-01 4.348369e+00 4.864836e-05 -9.260924e-05 -5.999256e-05
N -1.597090e+00 8.279270e-01 -5.851123e+00 1.484460e-04 5.027098e-04 -1.065408e-04
N -1.558730e+00 8.480812e-01 -7.692504e-01 4.470829e-06 -1.093269e-04 2.957904e-05
N -3.182823e+00 3.613469e+00 4.411724e+00 -1.006812e-05 -1.036901e-04 2.102811e-04
N -3.140324e+00 3.637672e+00 -5.905620e+00 2.760849e-04 -1.296913e-05 -1.435700e-04
N -3.179730e+00 3.612710e+00 -7.269284e-01 8.119939e-05 -7.434051e-05 3.953329e-04
N -6.088033e-02 -1.883399e+00 4.315691e+00 -9.591617e-05 2.128312e-04 -5.554641e-05
N -2.294010e-02 -1.808641e+00 -5.879657e+00 2.789227e-05 -4.961932e-05 -5.018936e-05
N -1.727195e-02 -1.809062e+00 -7.731167e-01 -3.767960e-05 -2.083623e-07 -5.245350e-05
N -2.670168e-02 1.787275e+00 1.787532e+00 -5.517386e-05 -1.236235e-04 2.507155e-04
N 2.513043e-02 1.806985e+00 6.846093e+00 -8.761462e-05 -2.893851e-05 -1.674687e-05
N -1.580075e-02 1.786862e+00 -3.248208e+00 4.319821e-05 6.321603e-05 1.012917e-04
N 3.185890e+00 -3.662457e+00 1.844930e+00 -2.035644e-04 -2.199893e-04 -3.342286e-05
N 3.143683e+00 -3.683217e+00 6.862815e+00 -3.904311e-05 1.163376e-04 3.275262e-05
N 3.186755e+00 -3.665121e+00 -3.335552e+00 -1.959103e-05 -1.458038e-05 -1.234176e-04
N 1.561132e+00 -9.550399e-01 1.790665e+00 -6.882631e-05 3.434098e-05 -3.372273e-04
N 1.560139e+00 -9.535482e-01 6.924673e+00 -1.036622e-05 -3.795307e-04 3.978126e-05
N 1.559789e+00 -9.466789e-01 -3.320828e+00 -7.892507e-05 1.240304e-04 -1.996632e-04
N 3.137645e+00 1.785760e+00 1.811175e+00 -1.445352e-05 -3.281726e-05 -2.782357e-04
N 3.133879e+00 1.731222e+00 6.834945e+00 -3.724021e-05 -1.756403e-04 -1.215510e-04
N 3.090307e+00 1.755154e+00 -3.347424e+00 -1.890025e-04 -8.069050e-05 -1.043220e-04
N 6.296435e+00 -3.740779e+00 1.793217e+00 4.009154e-05 -4.068813e-05 -1.887189e-04
N 6.256615e+00 -3.666554e+00 6.855983e+00 -1.695228e-04 2.532518e-05 -1.164604e-04
N 6.253183e+00 -3.707123e+00 -3.291094e+00 -5.199607e-05 -7.035713e-05 -3.010886e-05
N 4.673150e+00 -9.289292e-01 1.782854e+00 -3.280849e-04 -1.274932e-04 3.241147e-05
N 4.713407e+00 -9.546208e-01 6.875847e+00 -1.747306e-04 -9.046001e-05 -1.442022e-04
N 4.683169e+00 -9.777281e-01 -3.361334e+00 -2.325867e-04 9.106187e-05 -1.810187e-04
N -3.180665e+00 1.732362e+00 1.858935e+00 -4.325669e-05 3.077495e-06 -1.210649e-04
N -3.229247e+00 1.802712e+00 6.858054e+00 -1.356220e-04 4.706625e-05 -8.571025e-05
N -3.145822e+00 1.758506e+00 -3.285943e+00 1.259713e-04 -4.451487e-05 -3.122601e-05
N -6.645068e-02 -3.664470e+00 1.849917e+00 -2.702011e-04 -3.061367e-05 1.026196e-04
N 1.451037e-02 -3.658842e+00 6.859296e+00 1.449069e-04 1.019589e-05 -5.559563e-05
N -2.432338e-02 -3.637197e+00 -3.282196e+00 1.925789e-05 1.127968e-04 6.551956e-05
N -1.559105e+00 -9.235156e-01 1.781900e+00 1.859138e-04 7.256540e-05 -3.686624e-04
N -1.598396e+00 -1.004051e+00 6.845801e+00 -6.778104e-05 -1.040454e-06 -3.500184e-05
N -1.564214e+00 -9.313200e-01 -3.325424e+00 2.186068e-05 -2.704812e-05 -1.634079e-04
