108
Energy=-1.626827e+06 Lattice="9.516314e+00 0.000000e+00 0.000000e+00 -4.764821e+00 8.238487e+00 0.000000e+00 -8.147388e-04 -3.327299e-04 1.536573e+01" Stress="-8.808445e-03 -4.282355e-04 8.324702e-05 -4.340851e-04 -9.833143e-03 -4.709949e-05 5.229797e-05 -5.229240e-05 -1.063130e-02" Properties=species:S:1:pos:R:3:forces:R:3 Config_type=AlGaN_super3_26_1_10.xyz
Al 1.565553e+00 8.657545e-01 2.420209e+00 7.117151e-05 1.265156e-03 5.432437e-04
Al 1.571911e+00 8.806780e-01 7.526518e+00 5.066022e-04 1.086949e-04 -8.934908e-05
Al 1.566855e+00 8.691080e-01 -2.713537e+00 4.415951e-04 5.872935e-04 6.060802e-04
Al -3.045795e-02 3.618625e+00 2.438578e+00 1.473962e-03 4.455819e-04 7.746335e-04
Al -2.235057e-03 3.633145e+00 7.517346e+00 -4.132351e-03 1.082637e-03 -5.883629e-03
Al -6.220094e-03 3.618207e+00 -2.707765e+00 2.132583e-04 1.527235e-04 4.181243e-04
Al 3.148724e+00 -1.868677e+00 2.424251e+00 1.503071e-03 1.583670e-03 1.637032e-03
Al 3.150289e+00 -1.881037e+00 7.515528e+00 4.335432e-03 2.327041e-03 -5.335342e-03
Ga 3.145590e+00 -1.865055e+00 -2.697284e+00 -2.079286e-04 3.456835e-04 3.119032e-04
Al -4.786747e+00 8.757728e-01 2.439087e+00 -1.637848e-04 -5.975465e-05 -8.907689e-05
Ga -4.813760e+00 8.688200e-01 7.513000e+00 1.959975e-04 -7.470427e-04 -2.166165e-04
Al -4.797629e+00 8.827364e-01 -2.708092e+00 1.191253e-04 5.965232e-04 5.472979e-04
Ga -6.371624e+00 3.616598e+00 2.429622e+00 -4.962267e-04 -1.334798e-04 2.524132e-04
Al -6.387522e+00 3.622278e+00 7.513921e+00 2.216645e-04 -4.328088e-04 3.651255e-04
Ga -6.385762e+00 3.615869e+00 -2.712124e+00 -9.422820e-05 -4.704657e-05 6.071531e-04
Ga -3.207738e+00 -1.876569e+00 2.438705e+00 -7.572921e-04 -2.311018e-04 -3.258872e-04
Al -3.187735e+00 -1.892232e+00 7.527181e+00 -2.840256e-03 1.378642e-03 -1.135173e-03
Ga -3.184198e+00 -1.883569e+00 -2.720025e+00 -9.428429e-05 4.092896e-05 1.306122e-04
Al -1.617587e+00 8.953323e-01 2.408199e+00 7.370049e-04 3.165599e-04 -1.121076e-04
Ga -1.599005e+00 8.670375e-01 7.546439e+00 2.029764e-04 5.625306e-05 5.560201e-04
Ga -1.609898e+00 8.771663e-01 -2.706738e+00 2.559829e-04 -3.307497e-04 3.399313e-04
Al -3.196558e+00 3.621571e+00 2.422377e+00 -9.417434e-05 4.714520e-04 -1.935544e-03
Ga -3.194932e+00 3.651572e+00 7.509666e+00 4.877959e-04 -3.273868e-04 -2.229678e-04
Ga -3.202673e+00 3.623468e+00 -2.683700e+00 -4.242974e-04 -6.268947e-04 6.668551e-04
Ga 6.145115e-04 -1.867041e+00 2.420114e+00 1.067835e-04 -2.982713e-04 3.678487e-04
Al -2.375093e-02 -1.870938e+00 7.521703e+00 9.379932e-06 -1.551108e-04 5.062940e-05
Al -1.361179e-02 -1.856661e+00 -2.700357e+00 -4.668953e-04 -5.285002e-04 9.022837e-04
Ga -1.270389e-02 1.801694e+00 4.968284e+00 4.575626e-04 1.303981e-03 -7.926794e-05
Ga -2.791038e-03 1.801102e+00 -5.274583e+00 -7.621073e-05 -4.587999e-04 6.471008e-04
Ga -1.503320e-02 1.794169e+00 -1.340380e-01 2.025426e-04 3.587369e-04 8.582427e-04
Al 3.160643e+00 -3.693806e+00 4.948414e+00 1.508034e-03 1.799596e-03 4.043538e-04
Ga 3.177862e+00 -3.703178e+00 -5.277842e+00 -7.397207e-04 2.654398e-04 9.113488e-04
Ga 3.156316e+00 -3.709486e+00 -1.144359e-01 1.210563e-04 4.976663e-05 -2.102910e-04
Ga 1.586763e+00 -9.610408e-01 4.987579e+00 1.274147e-03 9.612588e-05 3.632024e-04
Ga 1.563126e+00 -9.497726e-01 -5.293727e+00 -1.023158e-03 4.914233e-04 8.280484e-04
Al 1.562725e+00 -9.577525e-01 -1.373994e-01 -7.242659e-04 1.496761e-04 -5.673117e-04
Al 3.145066e+00 1.798951e+00 4.967418e+00 -1.304187e-03 -1.313977e-03 -4.160180e-04
Al 3.134626e+00 1.799068e+00 -5.276351e+00 3.089663e-04 8.331530e-05 7.429826e-04
Ga 3.149089e+00 1.789783e+00 -1.351158e-01 3.156897e-04 8.491053e-06 -1.122993e-03
Al 6.323806e+00 -3.701769e+00 4.999314e+00 -1.122337e-03 -1.755918e-03 2.883624e-04
Al 6.327390e+00 -3.709010e+00 -5.309853e+00 1.403757e-03 8.557734e-04 -2.958459e-04
Al 6.324840e+00 -3.708866e+00 -1.343064e-01 2.783352e-04 -8.557274e-05 -2.523795e-05
Al 4.731684e+00 -9.644082e-01 4.973028e+00 -1.706089e-03 -9.720222e-04 5.553176e-04
Ga 4.749452e+00 -9.581384e-01 -5.285972e+00 3.804284e-04 6.845637e-05 2.314868e-04
Ga 4.737212e+00 -9.444186e-01 -1.327199e-01 3.147863e-04 1.104572e-04 1.424680e-03
Ga -3.214763e+00 1.803616e+00 4.949165e+00 2.813102e-04 -6.147672e-04 6.461737e-04
Ga -3.213193e+00 1.788196e+00 -5.269841e+00 6.880194e-05 -1.276852e-04 5.320643e-04
Al -3.216725e+00 1.798030e+00 -1.141511e-01 1.848356e-05 -3.168011e-04 -6.354509e-04
Al -2.608969e-02 -3.707629e+00 4.988047e+00 5.306494e-06 2.778192e-05 5.080632e-04
Ga -4.696107e-02 -3.689153e+00 -5.286280e+00 -2.325074e-04 -1.044496e-04 8.999026e-04
Al -1.995977e-02 -3.694074e+00 -1.423926e-01 9.204243e-05 5.894713e-06 -1.744457e-03
Ga -1.616866e+00 -9.658582e-01 4.985198e+00 -4.763547e-04 2.886998e-04 4.294509e-05
Al -1.603892e+00 -9.722190e-01 -5.283852e+00 -5.188071e-04 -7.255998e-04 7.500053e-04
Ga -1.596332e+00 -9.630756e-01 -1.362056e-01 -1.789280e-04 -4.106342e-04 -9.700520e-04
N 1.598751e+00 8.883852e-01 4.325440e+00 1.574225e-03 1.047915e-03 -1.010272e-04
N 1.606254e+00 9.012161e-01 -5.931516e+00 1.636262e-04 1.831409e-04 -3.030048e-04
N 1.562770e+00 8.257778e-01 -7.972887e-01 4.281072e-04 4.419924e-04 1.160049e-04
N -1.568264e-02 3.670754e+00 4.349234e+00 1.190683e-04 -1.655033e-04 2.064634e-04
N 1.438560e-02 3.643754e+00 -5.954059e+00 1.901134e-04 2.456745e-05 2.372744e-03
N 1.923982e-02 3.645221e+00 -7.957390e-01 -4.010701e-04 5.027567e-05 2.285880e-04
N 3.191897e+00 -1.890560e+00 4.340272e+00 -6.388238e-04 2.210577e-04 -9.611376e-04
N 3.157646e+00 -1.874301e+00 -5.953240e+00 -3.661779e-04 -2.829246e-04 1.943268e-03
N 3.113513e+00 -1.853147e+00 -7.321815e-01 5.023425e-05 -8.563847e-05 4.933197e-04
N -4.830411e+00 8.483366e-01 4.353723e+00 3.757798e-04 1.044375e-03 -4.767554e-04
N -4.835967e+00 8.993789e-01 -5.888294e+00 4.235300e-04 2.574102e-04 -3.739508e-04
N -4.745416e+00 9.034106e-01 -7.959932e-01 -2.006513e-05 3.097731e-04 9.399740e-05
N -6.372187e+00 3.628835e+00 4.415681e+00 -4.633868e-06 1.151644e-04 -8.565075e-04
N -6.410760e+00 3.591400e+00 -5.922418e+00 -2.910572e-04 2.502988e-04 -3.365769e-04
N -6.373323e+00 3.668768e+00 -7.284133e-01 -1.949007e-04 -3.326616e-04 -4.552440e-04
N -3.235620e+00 -1.904481e+00 4.407261e+00 9.357269e-04 1.179231e-03 -1.010299e-03
N -3.149636e+00 -1.897466e+00 -5.915422e+00 -1.929616e-04 6.440596e-05 9.923952e-05
N -3.191023e+00 -1.921114e+00 -7.459592e-01 -6.997903e-05 2.735433e-04 -1.776518e-04
N -1.612848e+00 8.790635e-01 4.310558e+00 -1.596258e-04 -7.177214e-04 -2.565397e-04
N -1.609869e+00 8.327890e-01 -5.850278e+00 3.110911e-04 3.465281e-04 -3.005939e-04
N -1.658401e+00 9.058202e-01 -7.304666e-01 4.059673e-04 -2.972460e-04 3.335927e-05
N -3.204424e+00 3.680494e+00 4.342335e+00 -9.442259e-04 -7.019486e-04 -8.655573e-04
N -3.198506e+00 3.633864e+00 -5.893176e+00 4.465399e-05 -3.699802e-04 -5.220402e-04
N -3.236767e+00 3.599073e+00 -7.069854e-01 5.553845e-05 -2.678153e-05 -4.185636e-05
N -1.420997e-02 -1.914985e+00 4.385411e+00 -4.886487e-04 -6.879625e-04 -8.457095e-04
N -5.877468e-02 -1.843501e+00 -5.939724e+00 2.947058e-04 -6.208356e-04 -4.719849e-04
N 2.368988e-02 -1.889440e+00 -7.753825e-01 -5.439373e-05 -8.087757e-05 -1.088193e-04
N -1.777292e-02 1.793765e+00 1.862086e+00 -4.339287e-04 1.980783e-04 -1.818045e-03
N 1.745645e-02 1.808324e+00 6.943901e+00 -2.770122e-04 1.955698e-03 5.638564e-04
N 2.149767e-02 1.814328e+00 -3.292458e+00 4.656391e-05 4.083575e-04 -3.224596e-05
N 3.161929e+00 -3.701256e+00 1.871080e+00 -2.216063e-03 -1.498860e-03 -5.072030e-04
N 3.193968e+00 -3.673173e+00 6.865705e+00 2.658995e-03 -2.857090e-03 2.293761e-03
N 3.197926e+00 -3.729631e+00 -3.303634e+00 1.840337e-04 4.689471e-04 -4.318821e-04
N 1.609131e+00 -9.289999e-01 1.781109e+00 -1.619325e-04 -8.955598e-04 2.604404e-04
N 1.566952e+00 -9.522467e-01 6.966936e+00 -1.361851e-04 -4.169544e-04 8.135310e-04
N 1.526892e+00 -9.345084e-01 -3.311727e+00 1.524016e-05 -3.941117e-05 -9.842066e-04
N 3.147874e+00 1.743571e+00 1.836325e+00 2.226106e-04 1.059769e-04 1.110069e-03
N 3.099741e+00 1.818135e+00 6.878156e+00 -5.804244e-05 -1.216165e-04 -5.751928e-04
N 3.141579e+00 1.746164e+00 -3.348156e+00 -1.085685e-04 -4.079915e-05 -2.637661e-06
N 6.281362e+00 -3.730380e+00 1.772425e+00 -2.242535e-04 1.656128e-04 6.400301e-04
N 6.328448e+00 -3.701541e+00 6.914927e+00 -1.080629e-04 -2.911822e-04 7.185289e-05
N 6.283820e+00 -3.727305e+00 -3.396103e+00 -2.788252e-04 -4.265502e-04 -7.632606e-05
N 4.700896e+00 -9.236457e-01 1.848067e+00 -1.178622e-03 -1.417067e-03 -1.863999e-03
N 4.744854e+00 -1.000412e+00 6.888248e+00 -1.993345e-03 -2.244327e-03 2.884208e-03
N 4.740124e+00 -9.092584e-01 -3.312596e+00 -3.396380e-04 -9.172574e-04 -3.201830e-04
N -3.210013e+00 1.789740e+00 1.816277e+00 -2.934046e-05 1.807444e-03 1.329098e-03
N -3.199367e+00 1.792569e+00 6.910340e+00 4.802462e-04 1.982856e-04 -6.504244e-04
N -3.244319e+00 1.772735e+00 -3.307600e+00 4.936618e-04 1.909277e-04 -3.011015e-04
N 1.243725e-02 -3.719309e+00 1.761590e+00 1.811715e-03 -1.092976e-03 2.793667e-03
N -6.739328e-02 -3.677955e+00 6.903173e+00 1.435199e-04 9.958298e-05 -6.219140e-04
N -2.589952e-02 -3.649325e+00 -3.310217e+00 4.197818e-04 -8.515823e-05 -1.699550e-04
N -1.606053e+00 -9.114888e-01 1.830536e+00 -3.572446e-04 -5.182601e-04 6.352605e-04
N -1.609690e+00 -9.997269e-01 6.950911e+00 7.258079e-05 6.811981e-05 -6.379215e-04
N -1.561368e+00 -9.806303e-01 -3.362590e+00 -2.324589e-04 -1.616420e-04 1.768870e-04
