108
Energy=-7.113161e+05 Lattice="9.459483e+00 0.000000e+00 0.000000e+00 -4.739492e+00 8.183137e+00 0.000000e+00 6.149878e-03 2.562832e-02 1.525375e+01" Stress="6.635658e-03 1.805929e-03 6.682832e-04 1.798966e-03 1.212853e-02 1.684579e-03 6.743311e-04 1.687349e-03 2.184870e-02" Properties=species:S:1:pos:R:3:forces:R:3 Config_type=AlGaN_super3_6_2_3.xyz
Al 1.557724e+00 8.908121e-01 2.404165e+00 1.867040e-03 -7.379131e-03 -1.109032e-03
Al 1.552557e+00 8.942876e-01 7.481401e+00 1.354047e-03 -4.564130e-03 -2.050160e-04
Al 1.551833e+00 8.743906e-01 -2.723182e+00 1.680201e-03 -5.460448e-03 4.552679e-03
Al -2.635580e-02 3.606681e+00 2.415784e+00 -1.786110e-02 -1.087127e-02 1.099281e-02
Al -1.648729e-02 3.612805e+00 7.480327e+00 -2.371053e-04 7.569397e-05 -5.834114e-04
Al -1.524931e-02 3.584338e+00 -2.727411e+00 2.886616e-04 -2.452290e-05 4.035387e-03
Al 3.148115e+00 -1.851758e+00 2.404587e+00 8.446894e-03 -5.121029e-03 3.262392e-03
Al 3.151941e+00 -1.849708e+00 7.488640e+00 -7.678728e-04 -7.748573e-04 -1.480671e-04
Al 3.156650e+00 -1.872519e+00 -2.734975e+00 -8.433837e-04 6.070542e-04 3.926016e-03
Al -4.762417e+00 8.986905e-01 2.393469e+00 6.230877e-03 -3.401539e-03 -1.820931e-03
Al -4.767061e+00 9.010840e-01 7.489573e+00 1.326233e-03 -3.661951e-03 -8.611871e-04
Al -4.779971e+00 8.675919e-01 -2.731290e+00 -1.621743e-03 -5.724657e-03 5.683141e-03
Al -6.328475e+00 3.619379e+00 2.414277e+00 -1.967504e-02 -1.930183e-02 1.905314e-02
Al -6.335782e+00 3.617463e+00 7.485570e+00 1.220617e-05 -2.100560e-04 -7.063714e-04
Al -6.346193e+00 3.591706e+00 -2.729489e+00 1.225221e-04 -1.904648e-03 -8.824469e-03
Al -3.170721e+00 -1.876503e+00 2.427732e+00 -9.302599e-03 1.898805e-03 2.886075e-03
Al -3.163461e+00 -1.844306e+00 7.490766e+00 7.641270e-04 -5.032172e-04 -5.674516e-04
Al -3.172728e+00 -1.874109e+00 -2.731346e+00 -1.651207e-03 -6.987152e-04 2.940294e-03
Al -1.617248e+00 8.955524e-01 2.412694e+00 -2.370557e-03 -5.685405e-03 -3.585071e-03
Al -1.625552e+00 9.053252e-01 7.484264e+00 6.160853e-03 -3.193146e-03 -1.296563e-03
Ga -1.638404e+00 8.765164e-01 -2.709377e+00 1.067518e-02 -4.006200e-03 -1.318718e-03
Al -3.191597e+00 3.618920e+00 2.420935e+00 2.308635e-02 -1.754823e-02 8.253654e-03
Al -3.194056e+00 3.623390e+00 7.486105e+00 5.224737e-03 1.283153e-03 -1.439663e-03
Ga -3.203118e+00 3.590959e+00 -2.721876e+00 5.314942e-03 5.334359e-03 -1.177430e-03
Ga -2.882356e-02 -1.895632e+00 2.438620e+00 5.833420e-03 8.508279e-03 -1.248156e-03
Al -2.388094e-02 -1.837437e+00 7.484620e+00 4.903089e-03 1.305271e-03 -1.322421e-03
Al -3.130656e-02 -1.866922e+00 -2.732078e+00 6.878818e-03 1.277202e-03 5.213308e-04
Al -1.514794e-02 1.799504e+00 4.957588e+00 -4.880009e-03 4.603525e-04 1.066429e-04
Al -1.889849e-02 1.772521e+00 -5.256561e+00 -5.414689e-03 -1.843320e-03 4.402634e-05
Al -2.531112e-02 1.764691e+00 -1.176521e-01 1.816323e-03 4.619025e-04 -1.257042e-02
Al 3.149743e+00 -3.667742e+00 4.958839e+00 -4.101653e-03 -2.790209e-03 -1.236867e-03
Al 3.152722e+00 -3.690853e+00 -5.256209e+00 -5.472057e-03 -1.398461e-03 -6.522393e-04
Al 3.151947e+00 -3.690847e+00 -1.848101e-01 -1.587939e-03 3.763472e-03 1.361502e-02
Al 1.581800e+00 -9.443198e-01 4.965424e+00 -4.703335e-03 4.201897e-03 -1.334646e-03
Al 1.578955e+00 -9.715977e-01 -5.252012e+00 -5.974262e-03 3.813438e-03 -6.334114e-04
Al 1.590680e+00 -9.677081e-01 -1.989606e-01 -3.996707e-03 5.340956e-03 1.055380e-02
Al 3.123035e+00 1.809575e+00 4.954585e+00 4.202465e-05 1.408364e-03 8.168163e-04
Al 3.116626e+00 1.775764e+00 -5.254557e+00 -1.238318e-04 -3.642377e-04 1.622256e-03
Al 3.141184e+00 1.788436e+00 -1.418482e-01 -1.246204e-03 -9.224899e-03 -8.921261e-03
Al 6.297697e+00 -3.661226e+00 4.962946e+00 -5.125212e-04 -2.788778e-03 -2.393293e-03
Al 6.287889e+00 -3.687752e+00 -5.252145e+00 -4.703335e-04 9.144445e-05 1.153891e-03
Ga 6.294570e+00 -3.702217e+00 -1.545954e-01 -4.900717e-03 3.280442e-03 1.004794e-02
Ga 4.724286e+00 -9.391039e-01 4.963360e+00 -1.760412e-03 5.773850e-03 -9.343554e-04
Al 4.719410e+00 -9.668323e-01 -5.253374e+00 -1.420215e-03 4.980585e-03 -2.349601e-04
Al 4.731934e+00 -9.548586e-01 -1.433431e-01 -3.107035e-03 6.667413e-03 -6.135387e-03
Al -3.191702e+00 1.814279e+00 4.955837e+00 9.329856e-05 7.103480e-04 -4.218402e-04
Al -3.201015e+00 1.781564e+00 -5.263760e+00 3.607169e-05 -5.610883e-04 -2.078775e-03
Al -3.143497e+00 1.800349e+00 -2.216025e-01 -2.238630e-02 -1.153683e-02 2.830223e-02
Al -2.298090e-02 -3.655856e+00 4.976266e+00 -2.397170e-04 -4.036828e-03 -2.458358e-03
Al -3.336529e-02 -3.678931e+00 -5.256685e+00 8.701848e-04 -2.523462e-04 1.062050e-04
Ga -2.972753e-02 -3.700951e+00 -1.468667e-01 1.324045e-03 1.416228e-03 8.455428e-03
Al -1.588998e+00 -9.326746e-01 4.967650e+00 -2.700940e-03 5.702561e-03 -7.131292e-04
Al -1.598161e+00 -9.646625e-01 -5.255873e+00 -1.288253e-03 5.998584e-03 -5.549272e-04
Al -1.598972e+00 -9.590691e-01 -1.880966e-01 -2.922146e-03 2.884925e-03 1.374191e-02
N 1.552989e+00 8.991154e-01 4.354772e+00 7.989223e-04 -6.835778e-03 -5.413448e-03
N 1.546690e+00 8.675775e-01 -5.849338e+00 9.667062e-04 -5.326408e-03 1.590618e-04
N 1.555721e+00 8.789134e-01 -7.740923e-01 -8.960417e-04 -5.305022e-03 1.583746e-03
N -1.634442e-02 3.613475e+00 4.358965e+00 -2.688145e-03 -1.815961e-03 -6.449808e-04
N -2.055277e-02 3.587610e+00 -5.851956e+00 -1.569229e-04 -4.896147e-04 -3.600076e-04
N -4.105638e-02 3.568820e+00 -7.836422e-01 -8.080278e-03 -5.844616e-03 -3.158160e-03
N 3.130897e+00 -1.860162e+00 4.348250e+00 -8.323647e-03 -3.720187e-03 -7.208341e-03
N 3.146934e+00 -1.876283e+00 -5.846499e+00 -6.776357e-04 5.346149e-04 5.990238e-04
N 3.158972e+00 -1.871623e+00 -7.934170e-01 -1.912465e-04 -1.549434e-03 8.199562e-04
N -4.765647e+00 9.270411e-01 4.340940e+00 7.429937e-04 2.849923e-03 -7.638282e-03
N -4.774482e+00 8.731649e-01 -5.847621e+00 1.474636e-03 -4.883610e-03 4.528358e-04
N -4.747412e+00 8.870542e-01 -7.906690e-01 5.236588e-04 -5.485780e-03 2.054081e-03
N -6.333039e+00 3.620539e+00 4.360138e+00 2.035173e-04 -9.615502e-04 1.412968e-04
N -6.342701e+00 3.591459e+00 -5.847959e+00 4.942123e-04 -1.597620e-04 1.354082e-04
N -6.336811e+00 3.557873e+00 -8.511839e-01 1.277088e-03 -3.753662e-03 1.640651e-02
N -3.144456e+00 -1.855121e+00 4.357950e+00 8.873669e-03 -3.527994e-03 -5.925678e-03
N -3.170049e+00 -1.873248e+00 -5.845834e+00 1.309012e-04 4.675559e-04 8.488461e-04
N -3.168099e+00 -1.853462e+00 -7.926690e-01 9.313550e-04 7.091348e-03 -1.566250e-03
N -1.623050e+00 9.091046e-01 4.359207e+00 7.028707e-03 -6.019795e-03 -3.704126e-03
N -1.630781e+00 8.777397e-01 -5.847234e+00 6.518588e-03 -3.637518e-03 9.681056e-04
N -1.633011e+00 8.861501e-01 -7.316984e-01 1.923747e-02 -1.111179e-02 1.384351e-03
N -3.194765e+00 3.623705e+00 4.363672e+00 6.394071e-03 1.616766e-03 -1.809047e-04
N -3.199853e+00 3.599368e+00 -5.847036e+00 4.935670e-03 1.443240e-03 7.762550e-04
N -3.170007e+00 3.568221e+00 -7.544953e-01 1.228908e-02 1.173172e-02 6.331034e-04
N -2.411267e-02 -1.842352e+00 4.400860e+00 4.960437e-03 2.815269e-03 7.617467e-03
N -3.044799e-02 -1.864552e+00 -5.848821e+00 5.204676e-03 1.780914e-03 7.877606e-04
N -2.629944e-02 -1.851651e+00 -7.954240e-01 4.548065e-03 8.506021e-03 2.529845e-03
N -1.328627e-02 1.795180e+00 1.772055e+00 -5.087308e-03 -7.913016e-03 1.174444e-02
N -1.573314e-02 1.798041e+00 6.886641e+00 -4.765209e-03 -2.355247e-03 -7.513684e-04
N -1.260628e-03 1.782941e+00 -3.331947e+00 1.070573e-03 1.265190e-03 -2.520902e-03
N 3.148403e+00 -3.669584e+00 1.824490e+00 -5.637559e-03 -1.998673e-03 -1.417655e-02
N 3.153062e+00 -3.665148e+00 6.888212e+00 -4.780131e-03 -4.632439e-04 7.674839e-05
N 3.172569e+00 -3.683550e+00 -3.336195e+00 1.602599e-03 2.712726e-03 -6.859797e-04
N 1.618847e+00 -9.790241e-01 1.804000e+00 -1.261888e-02 1.700850e-02 -1.452525e-02
N 1.587063e+00 -9.440861e-01 6.891979e+00 -6.278545e-03 3.559027e-03 -2.496426e-05
N 1.580983e+00 -9.711220e-01 -3.325502e+00 -6.717258e-03 3.319490e-03 3.376176e-03
N 3.128946e+00 1.806419e+00 1.768228e+00 -3.356880e-03 -2.610717e-03 4.839452e-03
N 3.124793e+00 1.804310e+00 6.886042e+00 -2.633234e-04 -1.170559e-03 -1.692244e-03
N 3.117737e+00 1.776915e+00 -3.329119e+00 -8.553638e-05 -1.791312e-04 -1.449809e-03
N 6.235787e+00 -3.720257e+00 1.927738e+00 2.914635e-02 1.721474e-02 -2.751520e-02
N 6.294846e+00 -3.659303e+00 6.889011e+00 -5.818242e-04 7.576722e-04 -8.494231e-04
N 6.287502e+00 -3.688342e+00 -3.324897e+00 -5.768254e-04 1.055311e-03 -5.045139e-04
N 4.729684e+00 -9.530550e-01 1.775099e+00 -2.571988e-03 3.722913e-03 6.476328e-03
N 4.725035e+00 -9.379828e-01 6.919358e+00 -1.367379e-03 4.624776e-03 9.696070e-03
N 4.720862e+00 -9.660872e-01 -3.330467e+00 -4.529352e-04 4.453878e-03 4.858604e-04
N -3.188843e+00 1.804151e+00 1.772446e+00 5.082166e-03 -2.599869e-03 -1.133393e-03
N -3.194867e+00 1.808663e+00 6.887823e+00 4.190465e-04 -1.014936e-03 -1.634843e-03
N -3.229971e+00 1.761982e+00 -3.356207e+00 -4.455768e-03 -3.424126e-03 -2.242131e-03
N -2.151994e-02 -3.792464e+00 1.929886e+00 -3.344186e-03 2.771248e-02 -3.602465e-02
N -2.456563e-02 -3.657010e+00 6.895018e+00 3.068208e-04 8.883251e-04 1.359786e-04
N -5.178764e-02 -3.670783e+00 -3.333605e+00 -7.062443e-03 5.017503e-03 -3.471606e-03
N -1.644203e+00 -9.916061e-01 1.810049e+00 6.982205e-03 1.750255e-02 -1.532524e-02
N -1.594170e+00 -9.331293e-01 6.892607e+00 -1.012889e-03 4.824667e-03 -4.010613e-04
N -1.598652e+00 -9.872409e-01 -3.332584e+00 -9.256595e-04 -2.733711e-03 -1.184658e-03
