108
Energy=-573990.733318 Lattice="9.415453 0.000000 0.000000 -4.710882 8.152690 0.000000 0.011619 -0.009077 15.077545" Stress="0.000003 0.000000 0.000003 0.000000 0.000000 -0.000002 0.000003 -0.000002 -0.000020" Properties=species:S:1:pos:R:3:forces:R:3
Al 1.542632 0.867877 2.369486 -0.000015 -0.000815 -0.000741
Al 1.551852 0.864109 7.382730 0.000132 -0.000667 -0.000129
Al 1.549833 0.876031 -2.664140 0.000232 -0.000895 -0.000334
Al -0.024844 3.584188 2.366847 -0.000117 -0.000202 -0.000856
Al -0.016835 3.578457 7.386920 -0.000521 -0.000161 -0.000230
Al -0.021877 3.584593 -2.665745 -0.000042 0.000100 -0.000440
Al 3.118516 -1.854063 2.371543 0.000099 -0.000134 -0.000957
Al 3.128334 -1.860068 7.382642 -0.000243 0.000059 -0.000113
Al 3.129784 -1.851394 -2.662755 -0.000240 0.000278 -0.000033
Al -4.737431 0.868215 2.365364 0.000273 -0.000504 -0.000642
Al -4.734185 0.861003 7.376590 0.000368 -0.000462 -0.000207
Al -4.739451 0.865950 -2.650125 0.000342 -0.000623 -0.000519
Al -6.307458 3.584413 2.370666 0.000334 0.000267 -0.000856
Al -6.296941 3.577979 7.383447 0.000021 0.000033 -0.000372
Al -6.304983 3.579272 -2.663746 -0.000078 0.000287 -0.000515
Al -3.171995 -1.856943 2.384290 0.001927 0.000944 -0.001867
Al -3.153692 -1.857572 7.383193 0.000041 0.000540 -0.000308
Al -3.171170 -1.852633 -2.672821 0.000306 0.000437 0.000192
Al -1.601279 0.876226 2.380659 0.001253 0.001278 -0.000831
Al -1.587802 0.863758 7.372727 0.000968 -0.000613 -0.000394
Al -1.593789 0.878959 -2.658463 0.000506 -0.000925 -0.000537
Al -3.168326 3.584497 2.369897 0.000739 0.000408 -0.000824
Al -3.158115 3.586666 7.373962 0.000609 0.000001 -0.000409
Al -3.160833 3.587747 -2.649487 0.000352 0.000203 -0.000646
Al -0.017379 -1.852572 2.376098 0.001097 -0.000316 0.000064
Al -0.017048 -1.855007 7.384391 0.000544 0.000279 -0.000338
Ga -0.019323 -1.851301 -2.666891 0.000933 0.000558 -0.000489
Al -0.018814 1.771932 4.876597 -0.000655 -0.000217 -0.000606
Al -0.017252 1.775290 -5.180789 -0.000833 -0.000408 -0.000744
Al -0.011009 1.782460 -0.148532 -0.003198 -0.002028 0.000580
Al 3.123937 -3.667881 4.872994 -0.000704 -0.000156 -0.000298
Al 3.120739 -3.654677 -5.178051 -0.000713 -0.000031 -0.000353
Al 3.125021 -3.662127 -0.145840 -0.000829 0.000376 -0.000473
Al 1.555782 -0.950435 4.877305 -0.001164 0.000541 -0.000135
Al 1.555270 -0.941986 -5.191267 -0.001102 0.000618 -0.000577
Al 1.569720 -0.942120 -0.137433 -0.000623 0.000374 0.000565
Al 3.114345 1.771136 4.872530 0.000035 -0.000132 -0.000237
Al 3.101422 1.777076 -5.177774 0.000141 -0.000332 -0.000002
Al 3.117862 1.775831 -0.144018 -0.000442 -0.000282 -0.001159
Al 6.256356 -3.667687 4.880998 0.000261 -0.000655 -0.000147
Al 6.253646 -3.661071 -5.182286 0.000215 -0.000009 -0.000475
Al 6.258029 -3.669702 -0.147283 -0.000401 0.000424 -0.000997
Al 4.689236 -0.950162 4.877164 -0.000734 0.000996 -0.000217
Al 4.680347 -0.950103 -5.180830 -0.000249 0.000583 -0.000125
Al 4.684739 -0.947980 -0.142284 -0.000460 0.000602 -0.001098
Al -3.166286 1.772845 4.878820 -0.000010 0.000115 -0.000629
Ga -3.170723 1.779402 -5.175188 0.000095 -0.000110 -0.000294
Al -3.166031 1.786035 -0.143471 0.001044 -0.001878 -0.002227
Al -0.022514 -3.664977 4.876159 0.000300 0.000116 -0.000705
Al -0.030342 -3.657861 -5.190116 0.000302 0.000141 -0.000341
Al -0.015663 -3.667567 -0.138683 -0.000320 -0.003403 0.002966
Al -1.590252 -0.949604 4.871846 0.000403 0.000823 0.000337
Al -1.594379 -0.945730 -5.187533 -0.000107 0.000775 -0.000530
Ga -1.594358 -0.950040 -0.119411 -0.000462 0.002277 -0.006011
N 1.546864 0.864651 4.280683 0.000078 -0.000852 0.000773
N 1.542253 0.873112 -5.780812 0.000208 -0.000757 0.000156
N 1.549974 0.868238 -0.744254 0.000149 -0.000492 0.000143
N -0.018918 3.581432 4.277817 -0.000325 -0.000012 0.000746
N -0.026215 3.586670 -5.774158 -0.000298 -0.000070 0.000369
N -0.017100 3.586746 -0.747795 -0.000915 -0.000774 0.000146
N 3.122825 -1.856381 4.281906 -0.000275 0.000182 0.000522
N 3.119486 -1.852750 -5.781225 -0.000102 0.000082 0.000038
N 3.124138 -1.851829 -0.744346 -0.000236 -0.000025 -0.000230
N -4.732920 0.864806 4.278828 0.000383 -0.000647 0.000828
N -4.779510 0.847813 -5.792708 -0.000298 -0.000833 -0.000053
N -4.731673 0.866226 -0.734129 -0.000275 -0.000260 0.000339
N -6.301890 3.582085 4.280995 -0.000362 0.000189 0.000816
N -6.306284 3.584905 -5.780067 -0.000341 0.000086 0.000199
N -6.295679 3.586874 -0.745720 -0.000312 -0.000186 0.000484
N -3.162575 -1.859507 4.290928 0.000486 0.000684 -0.000188
N -3.163896 -1.850174 -5.778441 -0.000226 0.000195 0.000164
N -3.194172 -1.875639 -0.761200 -0.001554 -0.000552 -0.000576
N -1.597047 0.871810 4.290819 0.000908 -0.000930 0.000493
N -1.562132 0.853168 -5.797757 0.001865 -0.000875 0.000335
N -1.591868 0.902406 -0.756847 0.001588 0.004429 0.002174
N -3.163566 3.583321 4.281309 0.000592 0.000014 0.001276
N -3.165530 3.635955 -5.798208 0.000765 0.000688 -0.000057
N -3.161364 3.594109 -0.736937 0.000793 -0.000590 0.000377
N -0.018066 -1.854072 4.287503 0.000595 0.000395 0.000241
N -0.026234 -1.846785 -5.774661 0.000919 0.000266 0.000193
N 0.021377 -1.876578 -0.700515 0.001647 0.002264 -0.000908
N -0.026875 1.773360 1.774570 0.000097 -0.000267 -0.000787
N -0.014449 1.770288 6.786856 -0.000693 -0.000077 0.000248
N -0.021089 1.774155 -3.264243 -0.000404 0.000012 0.000596
N 3.116082 -3.664179 1.771199 0.000066 -0.000170 0.000811
N 3.128637 -3.669397 6.783892 -0.000431 0.000089 0.000355
N 3.118632 -3.662905 -3.257819 -0.000401 -0.000037 0.000227
N 1.555073 -0.947094 1.779845 -0.001125 0.001172 -0.000037
N 1.558884 -0.952507 6.792967 -0.000969 0.000546 0.000444
N 1.595681 -0.921250 -3.281219 -0.000408 0.000904 -0.000020
N 3.108077 1.775364 1.770481 0.000623 -0.000237 0.000895
N 3.117082 1.770589 6.783183 -0.000069 -0.000205 0.000242
N 3.114142 1.775735 -3.259205 0.000159 -0.000329 0.000226
N 6.252591 -3.660520 1.767428 0.000551 -0.000273 0.001394
N 6.260268 -3.668818 6.792726 0.000148 0.000031 0.000459
N 6.256523 -3.662782 -3.265466 0.000167 -0.000367 0.000128
N 4.684348 -0.947200 1.772551 0.000673 0.000461 0.001204
N 4.693830 -0.952153 6.786909 -0.000220 0.000338 0.000313
N 4.686569 -0.942047 -3.263949 -0.000375 0.000665 0.000001
N -3.169938 1.775515 1.770996 0.000902 -0.000387 0.001025
N -3.162388 1.770520 6.791336 0.000015 -0.000073 0.000402
N -3.167913 1.777160 -3.205406 -0.000203 0.000042 0.000979
N -0.028039 -3.664914 1.782828 0.000495 0.000268 -0.001110
N -0.020547 -3.665861 6.787379 0.000103 0.000142 0.000400
N -0.022497 -3.708873 -3.282476 0.000212 -0.001057 0.000218
N -1.591042 -0.937683 1.823659 -0.002689 -0.002414 0.009726
N -1.585504 -0.952287 6.785671 -0.000371 0.000497 0.000439
N -1.630673 -0.919135 -3.276281 -0.000920 0.000631 -0.000311
