108
Energy=-1626826.489359 Lattice="9.531106 0.000000 0.000000 -4.785164 8.243880 0.000000 -0.000457 0.006635 15.429675" Stress="-0.000026 -0.000006 0.000001 -0.000006 -0.000028 -0.000000 0.000001 -0.000000 0.000009" Properties=species:S:1:pos:R:3:forces:R:3
Al 1.543321 0.836810 2.434322 0.006135 0.004153 0.000888
Al 1.554512 0.890335 7.528961 0.002484 0.005274 0.002068
Al 1.538916 0.869442 -2.723569 0.001769 0.002970 0.003431
Al -0.038541 3.624180 2.426196 0.001664 -0.001413 0.002412
Al -0.023059 3.606796 7.550982 0.000605 -0.000976 0.000971
Al -0.047870 3.603272 -2.714949 0.002954 -0.000050 0.001977
Al 3.158943 -1.883824 2.414056 -0.004809 0.001412 -0.007129
Ga 3.175235 -1.851160 7.569065 -0.001019 -0.003468 0.002398
Ga 3.147514 -1.877453 -2.715726 0.002647 0.001025 0.003329
Al -4.804104 0.863198 2.492474 0.001062 0.000715 -0.005288
Al -4.800186 0.879831 7.550613 0.000077 0.007488 0.002121
Ga -4.797151 0.875802 -2.725157 0.001482 0.001312 0.001806
Ga -6.382119 3.614615 2.445707 -0.001986 -0.000473 0.001315
Al -6.382323 3.620745 7.548647 0.000576 -0.002178 0.001060
Ga -6.380436 3.624111 -2.719425 0.000381 -0.000210 0.001776
Al -3.187797 -1.870914 2.440158 0.002891 -0.000001 0.003071
Ga -3.181637 -1.841667 7.571306 -0.002471 -0.005463 0.002982
Ga -3.178131 -1.854621 -2.733722 -0.000151 -0.001174 0.003674
Ga -1.611727 0.862688 2.460525 0.001180 -0.002023 0.003979
Al -1.618627 0.884119 7.532261 0.000998 0.008974 0.002322
Al -1.601968 0.876853 -2.730092 -0.001291 -0.000258 0.002415
Ga -3.219383 3.636741 2.423401 0.001713 -0.001914 0.002402
Ga -3.222795 3.627519 7.550009 0.000930 -0.001286 0.001031
Al -3.200747 3.638282 -2.723803 -0.004120 -0.003682 0.003342
Al -0.023816 -1.866894 2.390922 -0.001294 0.001401 0.005597
Ga -0.034971 -1.841918 7.549143 0.005215 -0.006171 0.006833
Al -0.011222 -1.861892 -2.728504 -0.004130 -0.001642 0.004185
Al -0.035185 1.789137 5.000418 0.001339 0.001223 0.000444
Ga -0.032724 1.771740 -5.312933 -0.000013 0.002974 0.005724
Ga -0.034268 1.763878 -0.141683 0.001732 0.004558 -0.000098
Ga 3.168101 -3.714243 4.982489 0.000903 0.001341 0.002028
Ga 3.167043 -3.711464 -5.291875 0.000663 0.001206 0.002541
Al 3.155833 -3.707516 -0.148933 0.001393 0.000629 -0.000180
Ga 1.566478 -0.946360 4.967960 -0.001730 -0.000292 0.001988
Ga 1.569163 -0.954974 -5.295911 -0.001241 -0.000154 0.002874
Al 1.557228 -0.973576 -0.167448 -0.000585 0.000665 -0.001759
Al 3.150695 1.786333 4.999301 -0.003167 0.003909 0.002777
Ga 3.149667 1.784454 -5.328369 -0.000431 0.002140 0.003895
Ga 3.139434 1.771891 -0.114256 -0.001661 0.001105 0.001744
Ga 6.358233 -3.718822 5.006034 -0.002969 0.002726 -0.002918
Ga 6.347675 -3.694601 -5.308699 0.000056 -0.001419 0.001896
Ga 6.336652 -3.698660 -0.119634 -0.001345 -0.001039 -0.002542
Ga 4.768594 -0.926936 4.980261 0.001540 -0.004860 -0.001218
Al 4.763833 -0.942455 -5.303493 -0.002028 -0.002008 0.003055
Ga 4.751256 -0.958553 -0.078516 -0.001948 -0.001847 -0.000664
Al -3.234300 1.807153 5.008045 0.012201 -0.003830 0.002021
Ga -3.207148 1.783808 -5.309343 -0.001093 0.001112 0.003475
Ga -3.198561 1.797614 -0.150926 -0.001602 0.000924 0.001542
Al -0.018710 -3.695858 4.994527 0.000498 0.000930 0.001146
Al -0.016635 -3.686072 -5.301360 -0.002045 -0.000958 0.004198
Al -0.002924 -3.677298 -0.154013 -0.000290 -0.000831 -0.002916
Al -1.567594 -0.966049 5.083282 -0.012113 0.006679 -0.040690
Al -1.597005 -0.941448 -5.298557 -0.001683 -0.001508 0.005275
Al -1.590890 -0.957475 -0.155390 -0.000310 -0.001717 0.002357
N 1.550137 0.929220 4.364904 0.003203 -0.002519 -0.001094
N 1.552456 0.871782 -5.983007 0.001721 0.000227 -0.004391
N 1.553902 0.823591 -0.803177 0.002437 -0.000279 -0.000405
N -0.033538 3.574861 4.342224 0.001569 0.000713 0.000151
N -0.032643 3.613707 -5.968012 0.000693 0.000350 -0.002245
N -0.070263 3.634488 -0.793126 -0.001083 0.000471 0.000047
N 3.168661 -1.863584 4.307532 -0.003101 -0.001402 0.003888
N 3.201193 -1.848476 -5.886947 0.001897 -0.000098 -0.000354
N 3.129758 -1.891844 -0.723499 0.000313 -0.000594 0.000638
N -4.796807 0.941810 4.395284 -0.000052 -0.001701 -0.003197
N -4.796131 0.831142 -5.953787 0.001769 0.000845 -0.004752
N -4.801008 0.865823 -0.759955 0.001843 0.000596 0.000164
N -6.331829 3.600468 4.426468 -0.001738 -0.001918 -0.002419
N -6.342904 3.647612 -5.951362 0.001960 0.001117 -0.003391
N -6.350543 3.640774 -0.736266 0.002202 -0.000095 0.001010
N -3.141727 -1.851793 4.355602 0.005623 0.002412 0.005476
N -3.184526 -1.815903 -5.878004 0.001585 0.000967 -0.001426
N -3.160336 -1.843130 -0.744751 0.000756 0.000515 -0.000661
N -1.601203 0.878238 4.461614 -0.009497 -0.002604 -0.001724
N -1.620739 0.836597 -5.962352 0.000203 -0.002262 -0.006155
N -1.621705 0.829091 -0.803156 0.000038 -0.001347 -0.001347
N -3.252054 3.617957 4.417537 -0.001379 -0.001359 -0.002699
N -3.251546 3.655626 -5.905218 -0.001553 -0.001216 -0.001025
N -3.209278 3.677252 -0.778446 -0.001685 -0.000837 -0.002959
N -0.065859 -1.886158 4.370693 0.004901 -0.002590 -0.009204
N -0.057628 -1.878295 -5.892500 -0.001469 -0.002728 -0.002171
N -0.022457 -1.864668 -0.773628 -0.000488 -0.002003 -0.006064
N 0.022669 1.808308 1.851822 -0.004748 -0.001285 -0.004618
N -0.028388 1.789497 6.934032 -0.000060 0.001798 -0.000843
N -0.030390 1.779873 -3.307413 0.000589 0.003853 -0.001074
N 3.199602 -3.699558 1.783796 0.000679 0.001750 0.000009
N 3.208177 -3.719645 6.959812 0.000724 0.001351 -0.001535
N 3.163478 -3.755208 -3.309254 0.002014 0.001221 -0.001466
N 1.558092 -0.965985 1.738572 0.001220 -0.000877 0.019981
N 1.579514 -0.908189 6.952078 -0.001859 -0.000678 -0.003240
N 1.525601 -0.926967 -3.312835 0.002476 -0.002608 -0.000822
N 3.147689 1.723077 1.887352 -0.002311 0.000674 -0.006546
N 3.150351 1.791654 6.940416 -0.000960 0.000360 -0.000885
N 3.106823 1.764827 -3.342279 -0.003216 0.000060 -0.001644
N 6.299037 -3.690502 1.861112 0.000755 0.002028 -0.000169
N 6.343570 -3.733768 6.986436 0.000072 0.000188 0.000750
N 6.302843 -3.726604 -3.328161 -0.003099 -0.001235 -0.000495
N 4.742630 -0.961500 1.931960 0.003339 0.001563 -0.010028
N 4.757288 -0.899253 6.953961 -0.000326 -0.002418 -0.003891
N 4.750198 -0.951441 -3.389521 -0.002347 -0.002807 -0.004015
N -3.247519 1.758436 1.841195 -0.000678 0.000983 -0.000804
N -3.213170 1.755043 6.932916 -0.000825 -0.000873 -0.000256
N -3.167248 1.811347 -3.317173 0.001863 0.002719 0.001099
N -0.017715 -3.660829 1.758987 -0.000517 0.000865 0.002012
N -0.051803 -3.704469 6.907421 -0.002746 0.001327 -0.001547
N 0.023121 -3.679635 -3.361459 0.002311 0.002091 -0.001327
N -1.608895 -0.997200 1.776066 -0.000028 -0.000333 -0.000422
N -1.605318 -0.887899 6.897520 -0.000586 -0.004990 0.019499
N -1.555938 -0.921853 -3.365980 0.000034 -0.001387 -0.002378
