108
Energy=-1626826.722859 Lattice="9.537098 0.000000 0.000000 -4.770286 8.259804 0.000000 -0.002314 -0.001323 15.412172" Stress="-0.000003 -0.000000 0.000000 -0.000000 -0.000001 0.000001 0.000000 0.000001 -0.000006" Properties=species:S:1:pos:R:3:forces:R:3
Al 1.569996 0.872766 2.426202 0.000002 -0.000021 0.000155
Al 1.574860 0.879325 7.549005 0.002355 0.003367 -0.000163
Al 1.572916 0.873599 -2.717123 0.000028 -0.000040 0.000080
Al -0.026784 3.631276 2.445361 -0.000158 0.000217 0.000456
Al 0.002485 3.637012 7.541700 -0.004042 0.002886 -0.004922
Al -0.004608 3.629861 -2.713262 0.000016 -0.000019 0.000234
Al 3.153388 -1.869998 2.432935 -0.000159 -0.000156 0.000148
Al 3.161116 -1.882407 7.527811 -0.000576 -0.000904 0.000032
Ga 3.145548 -1.867085 -2.701905 0.000008 0.000096 0.000136
Al -4.794493 0.876634 2.444433 0.000003 0.000022 -0.000106
Ga -4.821762 0.868588 7.534796 -0.001720 0.002443 -0.000188
Al -4.803644 0.884202 -2.712640 0.000048 -0.000039 0.000088
Ga -6.383140 3.625050 2.436113 -0.000129 0.000142 0.000530
Al -6.385872 3.669604 7.544982 -0.006484 -0.013345 -0.002790
Ga -6.398016 3.624754 -2.717790 0.000017 0.000015 0.000164
Ga -3.220856 -1.880684 2.443067 -0.000000 -0.000123 0.000101
Al -3.233466 -1.880244 7.544346 0.010420 -0.003025 0.001225
Ga -3.196400 -1.890871 -2.727256 -0.000041 0.000070 0.000041
Al -1.615378 0.897376 2.412119 0.000008 0.000027 0.000132
Ga -1.597198 0.865538 7.572113 0.000085 -0.000143 -0.000292
Ga -1.606933 0.874636 -2.712121 0.000030 -0.000030 0.000082
Al -3.199636 3.629411 2.423972 -0.000048 0.000171 0.000660
Ga -3.199794 3.655428 7.531221 0.001143 -0.000389 -0.000179
Ga -3.205144 3.627831 -2.687911 -0.000033 -0.000065 0.000151
Ga -0.000820 -1.875317 2.427393 0.000064 -0.000107 -0.000035
Al -0.023548 -1.876169 7.542298 -0.001974 -0.000773 0.000444
Al -0.016457 -1.865637 -2.703907 0.000019 -0.000007 0.000125
Ga -0.009761 1.810564 4.982787 0.000046 0.000333 0.000067
Ga 0.000565 1.808758 -5.287281 0.000033 -0.000634 0.000394
Ga -0.011615 1.802047 -0.132542 -0.000009 0.000059 0.000074
Al 3.169029 -3.696738 4.967822 -0.001377 -0.001069 -0.001478
Ga 3.179169 -3.710361 -5.291220 -0.000401 0.000220 0.000043
Ga 3.159604 -3.717113 -0.113643 0.000005 0.000046 0.000205
Ga 1.586371 -0.960438 5.002708 0.000056 0.000145 -0.000671
Ga 1.559088 -0.949888 -5.309148 -0.000090 0.000209 0.000345
Al 1.561445 -0.958383 -0.135867 -0.000042 0.000001 0.000138
Al 3.152745 1.800230 4.978593 -0.000068 0.000920 0.001449
Al 3.145467 1.803316 -5.289205 0.000024 -0.000282 -0.000812
Ga 3.161366 1.794279 -0.135498 0.000024 0.000004 0.000116
Al 6.329547 -3.710187 5.019635 0.001377 -0.001105 -0.000938
Al 6.340804 -3.716201 -5.329597 0.000253 0.000554 0.000586
Al 6.336801 -3.718571 -0.132712 -0.000013 0.000027 0.000194
Al 4.736906 -0.962877 4.986741 -0.000813 -0.001644 -0.000715
Ga 4.755426 -0.960578 -5.300677 0.000033 0.000222 0.000834
Ga 4.745587 -0.946886 -0.129759 -0.000029 -0.000018 0.000075
Ga -3.215237 1.803630 4.963072 0.000145 0.000490 -0.000056
Ga -3.213971 1.789584 -5.283388 -0.000006 -0.000190 0.000092
Al -3.217817 1.799439 -0.113391 0.000001 0.000011 0.000102
Al -0.028344 -3.720479 5.001077 -0.000124 -0.000646 -0.000887
Ga -0.047814 -3.703175 -5.298522 0.000322 0.000287 0.000915
Al -0.020300 -3.706727 -0.142863 0.000010 0.000023 0.000174
Ga -1.622149 -0.968502 4.997168 -0.000020 0.000000 0.000486
Al -1.609554 -0.979916 -5.296715 -0.000155 0.000079 -0.000337
Ga -1.601893 -0.969358 -0.136355 -0.000039 -0.000020 0.000105
N 1.606710 0.894646 4.335210 -0.000209 -0.000267 -0.000273
N 1.612814 0.905414 -5.949965 -0.000201 -0.000257 0.000062
N 1.570161 0.829996 -0.797017 0.000027 -0.000020 -0.000137
N -0.014910 3.682674 4.361881 0.000358 0.000169 -0.000208
N 0.015765 3.655897 -5.971045 0.000461 -0.000234 0.002366
N 0.020741 3.657229 -0.796376 0.000036 -0.000003 -0.000178
N 3.193565 -1.893134 4.350908 0.000637 0.000657 0.000481
N 3.158668 -1.878221 -5.971117 0.000144 -0.000032 -0.000250
N 3.115902 -1.855844 -0.730847 0.000008 -0.000003 -0.000142
N -4.837291 0.849759 4.363329 0.000096 0.000440 -0.000346
N -4.841894 0.902093 -5.907429 0.000182 -0.000178 0.000132
N -4.751023 0.905369 -0.796261 0.000036 0.000013 -0.000107
N -6.384544 3.636791 4.424929 -0.001142 0.000733 0.000360
N -6.422037 3.599836 -5.942465 0.000334 0.001449 0.001246
N -6.384872 3.677425 -0.729476 -0.000021 0.000005 -0.000129
N -3.246600 -1.905079 4.416787 -0.000170 0.000050 0.000024
N -3.160118 -1.900576 -5.936080 -0.001021 0.000536 -0.000174
N -3.201197 -1.926961 -0.747531 0.000021 -0.000017 -0.000121
N -1.609575 0.878307 4.318915 0.000074 0.000032 -0.000211
N -1.606450 0.831383 -5.866703 0.000071 0.000139 0.000145
N -1.655690 0.904373 -0.730393 0.000048 -0.000021 -0.000095
N -3.209776 3.685432 4.352094 0.000814 0.000533 0.000115
N -3.201633 3.638529 -5.912893 -0.000016 0.000015 -0.000098
N -3.239806 3.604928 -0.707216 0.000009 -0.000047 -0.000146
N -0.016484 -1.923649 4.395627 0.000150 -0.000087 0.000337
N -0.061823 -1.854036 -5.959089 0.000294 -0.000191 -0.000536
N 0.022542 -1.897640 -0.775878 0.000050 -0.000014 -0.000137
N -0.016009 1.802186 1.860151 -0.000018 0.000109 -0.000003
N 0.018296 1.817141 6.964343 0.000336 -0.000219 0.000295
N 0.024516 1.821311 -3.299011 -0.000033 0.000150 -0.000128
N 3.160744 -3.711883 1.873558 0.000265 -0.000031 -0.000015
N 3.199254 -3.687022 6.886104 0.002452 -0.001056 0.002511
N 3.201107 -3.736515 -3.311488 0.000106 -0.000027 -0.000301
N 1.608182 -0.930575 1.787289 0.000090 -0.000038 -0.000037
N 1.567109 -0.954874 6.987873 0.000554 -0.000963 -0.000205
N 1.523748 -0.934449 -3.322474 -0.000049 0.000002 -0.000062
N 3.158209 1.747735 1.841842 0.000015 -0.000063 -0.000074
N 3.109316 1.819403 6.892712 -0.000264 0.004494 0.002344
N 3.152480 1.749531 -3.355981 -0.000018 0.000114 -0.000221
N 6.292211 -3.738958 1.777951 -0.000077 0.000076 -0.000257
N 6.335427 -3.699393 6.939645 -0.000157 -0.000853 -0.000296
N 6.294762 -3.738959 -3.407160 -0.000049 -0.000086 -0.000460
N 4.704033 -0.928729 1.846385 -0.000022 0.000031 -0.000019
N 4.746348 -1.008550 6.911828 -0.003916 0.002441 -0.001463
N 4.745813 -0.913407 -3.321734 -0.000099 0.000008 0.000014
N -3.213149 1.795983 1.822560 -0.000024 -0.000042 -0.000115
N -3.201046 1.792004 6.927725 0.000083 -0.000208 0.000126
N -3.244989 1.773564 -3.316443 -0.000018 0.000007 -0.000070
N 0.014911 -3.733571 1.770538 0.000079 -0.000003 -0.000178
N -0.071528 -3.694230 6.919633 0.004399 0.005005 -0.000556
N -0.025664 -3.662221 -3.317556 0.000073 0.000017 -0.000114
N -1.612445 -0.916344 1.834625 -0.000047 0.000023 -0.000050
N -1.615427 -1.003874 6.967670 -0.002749 -0.000511 0.000648
N -1.567253 -0.988127 -3.370252 -0.000004 -0.000068 -0.000106
