108
Energy=-1.260622e+06 Lattice="9.482239e+00 0.000000e+00 0.000000e+00 -4.748010e+00 8.208328e+00 0.000000e+00 8.470661e-04 1.821076e-03 1.531019e+01" Stress="-7.316191e-03 5.367980e-04 2.831556e-04 5.400184e-04 -4.630945e-03 1.743194e-04 2.904960e-04 1.720686e-04 -4.174870e-04" Properties=species:S:1:pos:R:3:forces:R:3 Config_type=AlGaN_super3_18_0_4.xyz
Al 1.559737e+00 8.757705e-01 2.554774e+00 -1.700314e-03 -1.875444e-03 -6.620860e-02
Al 1.551323e+00 8.731491e-01 7.509659e+00 8.557104e-04 1.598878e-03 -4.203379e-04
Al 1.552597e+00 8.712752e-01 -2.726342e+00 1.027582e-03 2.715606e-03 8.369971e-03
Al -5.085845e-03 3.580738e+00 2.428763e+00 5.089937e-03 7.012556e-03 3.110803e-03
Al -1.972712e-02 3.602060e+00 7.500566e+00 8.097750e-04 1.451117e-03 2.259968e-03
Al -2.252957e-02 3.602916e+00 -2.720764e+00 -1.525591e-03 -5.014019e-04 -6.871883e-03
Al 3.144862e+00 -1.831282e+00 2.414041e+00 -1.275732e-02 -1.801862e-02 7.065130e-03
Al 3.157362e+00 -1.865796e+00 7.505962e+00 1.672777e-03 -8.245543e-04 2.528605e-03
Ga 3.161030e+00 -1.870365e+00 -2.734748e+00 1.623614e-03 -3.383104e-03 5.006187e-03
Al -4.762159e+00 8.663759e-01 2.427833e+00 -1.157107e-02 -1.614481e-03 -1.160226e-04
Al -4.782047e+00 8.737646e-01 7.515408e+00 3.691311e-03 -6.295474e-04 1.046464e-03
Al -4.775767e+00 8.702158e-01 -2.747772e+00 2.079126e-03 1.539500e-03 2.547298e-03
Al -6.336543e+00 3.616732e+00 2.349804e+00 -1.220418e-03 -1.107866e-02 1.805342e-02
Al -6.364661e+00 3.603031e+00 7.523408e+00 1.048458e-03 1.364478e-03 6.995482e-04
Ga -6.352459e+00 3.590561e+00 -2.721443e+00 -2.373708e-03 2.996869e-04 2.527265e-03
Al -3.188336e+00 -1.859879e+00 2.449348e+00 -3.530352e-03 -7.805797e-03 3.252875e-03
Ga -3.177908e+00 -1.865648e+00 7.520173e+00 -5.341562e-04 -1.062384e-03 1.955478e-04
Al -3.181177e+00 -1.855313e+00 -2.755575e+00 7.784415e-04 -2.668465e-03 4.418973e-03
Ga -1.624236e+00 8.860218e-01 2.413280e+00 7.755273e-03 1.500795e-03 -6.834779e-04
Al -1.618567e+00 8.810366e-01 7.510390e+00 2.008026e-03 6.032145e-04 1.975662e-03
Al -1.634455e+00 8.831424e-01 -2.736677e+00 4.155404e-03 9.581942e-04 2.042069e-03
Ga -3.198778e+00 3.609660e+00 2.423930e+00 4.882108e-03 2.745742e-03 1.768253e-03
Ga -3.179824e+00 3.612736e+00 7.514343e+00 2.557116e-03 -3.036020e-05 -2.465755e-03
Al -3.189876e+00 3.602589e+00 -2.738432e+00 5.301740e-03 -1.481056e-03 4.265579e-03
Al -1.865446e-02 -1.860660e+00 2.404153e+00 6.144254e-03 3.434331e-04 2.067228e-04
Al -2.361745e-02 -1.846402e+00 7.524564e+00 2.381121e-03 -2.239140e-03 -6.097063e-04
Ga -2.415496e-02 -1.847732e+00 -2.724087e+00 -2.862819e-04 -1.580795e-04 4.692167e-03
Al -3.619469e-02 1.790036e+00 4.991034e+00 -2.352228e-03 8.694393e-03 3.573021e-03
Ga -2.774232e-02 1.787048e+00 -5.274668e+00 -3.525882e-03 -6.435442e-04 3.988893e-03
Al -2.146948e-02 1.780913e+00 -1.960200e-01 4.217894e-03 -4.033401e-03 5.533085e-03
Al 3.157956e+00 -3.696732e+00 4.961775e+00 4.330149e-03 2.819506e-03 1.727992e-03
Al 3.162718e+00 -3.696533e+00 -5.278274e+00 -1.016587e-03 1.753550e-03 5.048276e-03
Ga 3.148771e+00 -3.714007e+00 -1.268466e-01 -1.067189e-03 2.744615e-03 -5.656573e-03
Ga 1.588611e+00 -9.579628e-01 4.981074e+00 -1.155803e-03 -5.829407e-03 4.570975e-03
Ga 1.584325e+00 -9.497323e-01 -5.286420e+00 -2.475384e-03 -1.530641e-04 1.542768e-03
Al 1.573658e+00 -9.561962e-01 -1.622300e-01 -2.515361e-03 9.821064e-03 7.067100e-03
Ga 3.125697e+00 1.790156e+00 4.973844e+00 8.140822e-03 5.916241e-03 2.517128e-03
Al 3.132674e+00 1.773320e+00 -5.282431e+00 2.369602e-03 3.154491e-03 2.862926e-03
Al 3.138232e+00 1.794882e+00 -1.519540e-01 -7.993945e-03 -1.356114e-02 5.245270e-03
Al 6.291486e+00 -3.696400e+00 4.976164e+00 1.035760e-03 1.224397e-03 -3.404319e-03
Al 6.291934e+00 -3.686713e+00 -5.269535e+00 1.100206e-03 -1.179556e-03 2.604646e-03
Ga 6.301874e+00 -3.703504e+00 -1.287229e-01 -1.143539e-03 3.493198e-03 -1.533972e-03
Al 4.733969e+00 -9.581397e-01 4.974936e+00 -1.644311e-03 1.143539e-03 -1.322759e-04
Al 4.742343e+00 -9.545278e-01 -5.272717e+00 -3.823720e-03 2.081747e-03 1.146364e-03
Ga 4.728223e+00 -9.264037e-01 -1.327985e-01 -2.827778e-03 6.742304e-05 1.235657e-03
Al -3.186976e+00 1.778623e+00 4.979865e+00 -7.331172e-03 3.193423e-03 6.155203e-03
Al -3.203280e+00 1.778346e+00 -5.272644e+00 -9.197155e-05 -2.500207e-04 4.593456e-03
Al -3.208745e+00 1.804254e+00 -1.966119e-01 4.435401e-04 -1.624184e-03 3.588228e-03
Ga -2.430529e-02 -3.685539e+00 4.978847e+00 -2.273962e-03 -3.131449e-03 6.252693e-04
Ga -2.623287e-02 -3.688776e+00 -5.277588e+00 -1.132041e-03 4.021968e-04 3.667401e-04
Al -1.956188e-02 -3.689580e+00 -1.608435e-01 2.046973e-03 2.137205e-03 2.940635e-03
Ga -1.599341e+00 -9.334060e-01 4.981824e+00 -3.079164e-03 -8.308279e-04 -6.451860e-04
Al -1.607410e+00 -9.427471e-01 -5.267761e+00 -3.777856e-03 1.365476e-03 1.441152e-03
Ga -1.596249e+00 -9.353724e-01 -1.358239e-01 -1.584133e-03 9.471303e-04 -4.629478e-03
N 1.514211e+00 8.915007e-01 4.347175e+00 -5.763049e-03 6.398160e-04 2.446187e-02
N 1.587606e+00 8.992533e-01 -5.914266e+00 3.157532e-04 -5.731881e-04 6.752724e-04
N 1.558273e+00 8.711064e-01 -7.849423e-01 1.818432e-03 -1.175300e-03 -1.288597e-03
N -2.109566e-02 3.602818e+00 4.372231e+00 1.020678e-03 -4.308061e-03 -3.596418e-03
N -2.493170e-02 3.642104e+00 -5.887207e+00 1.661732e-03 2.683448e-03 -5.873567e-03
N -2.021256e-02 3.567991e+00 -8.356613e-01 7.596137e-04 -8.119954e-04 8.718242e-03
N 3.189648e+00 -1.881057e+00 4.353864e+00 -1.538113e-03 -1.772264e-03 -3.393595e-03
N 3.187225e+00 -1.889139e+00 -5.883930e+00 4.368811e-03 -2.168210e-03 -2.408046e-03
N 3.125712e+00 -1.854407e+00 -7.574903e-01 -2.434621e-03 6.574792e-04 1.571835e-03
N -4.741493e+00 8.554182e-01 4.362831e+00 4.413550e-03 -1.436229e-03 -5.743562e-03
N -4.773527e+00 8.689759e-01 -5.871423e+00 8.343960e-04 -1.483054e-04 -1.448275e-03
N -4.782006e+00 9.304086e-01 -8.193593e-01 2.231702e-03 -2.713955e-03 3.849501e-03
N -6.383908e+00 3.629758e+00 4.325209e+00 -7.245452e-04 3.080145e-04 -8.579948e-03
N -6.388331e+00 3.588235e+00 -5.877158e+00 -2.870267e-03 -2.109214e-03 -9.529758e-04
N -6.316828e+00 3.575936e+00 -7.355856e-01 3.283545e-03 5.755380e-03 1.259327e-03
N -3.205759e+00 -1.879443e+00 4.376377e+00 -1.485334e-03 -1.645766e-03 -3.059412e-03
N -3.176223e+00 -1.867900e+00 -5.827709e+00 9.201577e-04 -6.606382e-04 3.505701e-03
N -3.179769e+00 -1.861945e+00 -8.232423e-01 -1.237372e-04 -5.131189e-04 -1.790893e-03
N -1.622490e+00 9.476538e-01 4.406754e+00 7.561401e-03 -6.890952e-03 -6.551449e-03
N -1.665198e+00 8.572459e-01 -5.885691e+00 3.441802e-03 -6.218867e-04 -1.057373e-03
N -1.624198e+00 9.272097e-01 -8.068760e-01 6.174002e-04 -1.936342e-04 3.370743e-03
N -3.146822e+00 3.585140e+00 4.415711e+00 -1.452997e-03 3.297985e-04 -4.636943e-03
N -3.146030e+00 3.593149e+00 -5.839131e+00 1.214211e-03 -2.612074e-03 6.291026e-04
N -3.222910e+00 3.604468e+00 -7.945308e-01 -1.892664e-03 -1.346016e-03 -1.708572e-03
N -1.394030e-02 -1.853936e+00 4.332430e+00 1.778089e-03 1.732124e-03 -1.039514e-02
N -6.301842e-02 -1.829639e+00 -5.892629e+00 1.476412e-03 -4.276559e-04 1.625179e-04
N 6.052521e-03 -1.870206e+00 -7.481902e-01 4.273315e-03 -4.453137e-03 4.771717e-03
N 1.160203e-02 1.808076e+00 1.759903e+00 3.052580e-03 -5.940028e-03 5.176015e-03
N -2.633239e-02 1.783842e+00 6.920897e+00 -6.058825e-04 -2.308520e-03 -4.486874e-03
N -2.570045e-02 1.776940e+00 -3.294219e+00 -1.723934e-03 -9.120114e-04 1.628103e-03
N 3.207057e+00 -3.683403e+00 1.836130e+00 -4.903940e-03 4.067033e-03 5.055701e-03
N 3.195397e+00 -3.665406e+00 6.887621e+00 -1.838671e-03 6.264276e-04 -3.905967e-03
N 3.147430e+00 -3.735246e+00 -3.359036e+00 -8.184885e-04 -2.138300e-03 1.432887e-03
N 1.573926e+00 -9.555040e-01 1.794449e+00 -6.377726e-03 5.071669e-03 6.523351e-03
N 1.575295e+00 -9.572537e-01 6.967589e+00 -2.634555e-03 1.407128e-03 -3.308116e-03
N 1.576900e+00 -9.199893e-01 -3.325064e+00 -2.935890e-03 4.443386e-03 -1.223975e-03
N 3.117891e+00 1.759061e+00 1.802897e+00 5.854388e-03 3.723229e-03 3.629990e-03
N 3.131821e+00 1.791426e+00 6.951471e+00 -1.172282e-03 -2.706119e-03 -1.617932e-03
N 3.127601e+00 1.743054e+00 -3.359137e+00 -6.201849e-04 -4.618236e-03 -3.113169e-03
N 6.343204e+00 -3.680990e+00 1.860346e+00 -1.773162e-02 1.393929e-03 -3.897285e-03
N 6.303151e+00 -3.725993e+00 6.898339e+00 5.147861e-04 -3.320044e-03 -5.023507e-03
N 6.272843e+00 -3.675563e+00 -3.350633e+00 -2.821677e-03 2.318094e-03 -1.054347e-04
N 4.679096e+00 -9.886799e-01 1.896120e+00 2.634726e-02 1.858895e-02 -1.440899e-02
N 4.700166e+00 -9.324585e-01 6.900324e+00 -4.878779e-03 3.795565e-03 -4.842753e-03
N 4.761563e+00 -9.339379e-01 -3.357906e+00 8.546368e-04 3.552609e-03 -1.362333e-03
N -3.242012e+00 1.766920e+00 1.762998e+00 -2.648485e-04 -2.619440e-03 -9.534537e-03
N -3.195823e+00 1.750868e+00 6.899400e+00 -1.785145e-03 -4.522042e-03 -2.858545e-03
N -3.202109e+00 1.789462e+00 -3.342131e+00 -3.671022e-04 -1.103340e-03 -5.401548e-04
N -5.343578e-02 -3.664127e+00 1.793165e+00 3.886123e-03 2.026595e-03 -9.697009e-03
N -5.765164e-02 -3.665110e+00 6.949262e+00 -3.562600e-03 3.022691e-03 1.812583e-03
N 6.796345e-03 -3.702700e+00 -3.323203e+00 2.305539e-03 -5.920477e-04 2.860185e-03
N -1.613912e+00 -1.004158e+00 1.841080e+00 -1.132667e-03 6.175771e-03 1.726986e-03
N -1.564551e+00 -9.280846e-01 6.942017e+00 1.848708e-03 2.831894e-03 -7.552226e-04
N -1.628515e+00 -9.289192e-01 -3.351816e+00 -3.429171e-03 3.725586e-03 -6.847554e-04
