108
Energy=-2679661.157097 Lattice="9.566348 0.000000 0.000000 -4.791407 8.264896 0.000000 0.149729 0.070716 15.507657" Stress="-0.000268 0.000025 0.000030 0.000025 -0.000265 0.000013 0.000030 0.000013 -0.000224" Properties=species:S:1:pos:R:3:forces:R:3
Al 1.647426 0.927727 2.485487 -0.001799 -0.008771 -0.006821
Ga 1.653498 0.933112 7.605814 -0.000365 -0.010053 -0.000729
Ga 1.512632 0.867235 -2.751856 -0.000914 -0.010424 0.001030
Al 0.063404 3.670999 2.478979 -0.003080 -0.001834 -0.003720
Ga 0.068131 3.672038 7.606575 -0.001526 -0.000652 0.001309
Ga -0.075432 3.604221 -2.759023 -0.001356 -0.000540 0.001529
Al 3.270189 -1.849007 2.479107 -0.002783 -0.000613 -0.004331
Ga 3.274273 -1.851344 7.605120 -0.001389 0.000733 0.000815
Ga 3.130336 -1.919073 -2.759480 -0.001246 0.000815 0.001092
Al -4.762348 0.928295 2.467851 0.000085 -0.006350 -0.002441
Ga -4.743013 0.935972 7.606849 0.000692 -0.009428 -0.000247
Ga -4.885546 0.869913 -2.761700 0.001495 -0.009833 -0.000641
Ga -6.342440 3.662049 2.468107 -0.000295 -0.001491 -0.001971
Ga -6.327760 3.674323 7.607087 -0.000278 -0.000117 0.001481
Ga -6.469649 3.606635 -2.760258 -0.000160 0.000768 0.001291
Ga -3.135145 -1.850099 2.475465 -0.001108 0.000927 -0.003648
Ga -3.122349 -1.848557 7.607224 -0.000395 0.001467 0.001043
Ga -3.265481 -1.916243 -2.759882 0.000043 0.001700 0.001078
Ga -1.581180 0.938442 2.476273 0.008970 -0.004944 -0.006647
Ga -1.573272 0.939440 7.608477 0.009591 -0.005351 -0.002158
Ga -1.715455 0.871804 -2.757707 0.010003 -0.005337 -0.001790
Ga -3.164174 3.673761 2.474231 0.008795 0.003688 -0.004635
Ga -3.158065 3.677554 7.607331 0.008725 0.003957 -0.000284
Ga -3.300693 3.610536 -2.760146 0.008989 0.004140 0.000063
Ga 0.044447 -1.848004 2.476312 0.008187 0.004864 -0.005103
Ga 0.048325 -1.845797 7.608713 0.008681 0.005380 -0.000661
Ga -0.094981 -1.912628 -2.759481 0.009018 0.005629 -0.000572
Ga 0.067926 1.843661 5.034474 -0.008649 -0.005334 -0.001393
Ga -0.075649 1.774466 -5.329622 -0.008746 -0.005574 -0.000344
Ga -0.062763 1.781364 -0.171308 -0.003857 -0.004968 0.018242
Ga 3.274325 -3.680591 5.034131 -0.008732 -0.004010 -0.000975
Ga 3.129676 -3.748949 -5.330785 -0.008806 -0.004100 -0.000226
Ga 3.137591 -3.745287 -0.176590 -0.004420 -0.002027 0.019840
Ga 1.688920 -0.942247 5.036519 -0.009542 0.005493 -0.002858
Ga 1.544913 -1.009254 -5.328749 -0.009810 0.005552 -0.001841
Ga 1.556235 -1.003970 -0.169910 -0.006323 0.008800 0.016902
Ga 3.235344 1.842996 5.031855 0.000318 -0.001978 0.000642
Ga 3.091854 1.776832 -5.332696 -0.000028 -0.001686 0.001285
Al 3.121614 1.788002 -0.202168 -0.002294 -0.002467 0.023211
Ga 6.440621 -3.679781 5.038360 -0.000165 -0.000526 0.001016
Ga 6.298111 -3.746952 -5.330529 0.000018 -0.000248 0.001721
Ga 6.306517 -3.748720 -0.181803 0.003395 0.001667 0.021228
Ga 4.855261 -0.938717 5.034679 -0.001433 0.009948 -0.000768
Ga 4.712870 -1.007771 -5.330641 -0.001056 0.009467 -0.000151
Ga 4.716493 -1.001246 -0.178809 0.002679 0.010965 0.019775
Ga -3.163016 1.846666 5.035110 0.000046 -0.001517 0.000191
Ga -3.303106 1.780207 -5.332642 0.001092 -0.001000 0.000833
Ga -3.298455 1.783419 -0.184723 0.005565 0.000532 0.020055
Ga 0.045120 -3.676748 5.040896 0.000650 0.000095 0.000489
Ga -0.097263 -3.743726 -5.331628 0.001126 0.000434 0.001220
Ga -0.090745 -3.741654 -0.185882 0.005280 0.002996 0.020014
Ga -1.539017 -0.937055 5.043255 0.000017 0.010070 -0.001314
Ga -1.682464 -1.004413 -5.330858 0.000137 0.010060 -0.000562
Ga -1.676689 -1.002277 -0.183038 0.004163 0.012028 0.018091
N 1.648935 0.931316 4.410020 -0.000571 -0.009900 -0.012435
N 1.506113 0.863914 -5.949578 0.000043 -0.009753 0.000302
N 1.533725 0.878915 -0.791153 0.012515 -0.002400 0.005350
N 0.065422 3.672079 4.408175 -0.000986 0.000040 -0.014994
N -0.078609 3.603208 -5.948601 -0.000886 0.000098 -0.001574
N -0.071898 3.606519 -0.806393 -0.000532 0.000538 0.000659
N 3.270747 -1.852562 4.407714 -0.001386 0.000741 -0.015109
N 3.126834 -1.920583 -5.949649 -0.001172 0.000929 -0.001913
N 3.133419 -1.917377 -0.805969 -0.000276 0.000936 0.000651
N -4.748394 0.933815 4.402739 0.001346 -0.009378 -0.013034
N -4.889920 0.866342 -5.949360 0.000971 -0.009519 0.000848
N -4.890688 0.878601 -0.810544 -0.009390 -0.003441 0.008699
N -6.332191 3.673056 4.421644 -0.000014 0.000909 -0.000942
N -6.474803 3.605793 -5.948745 -0.000030 0.000472 -0.001277
N -6.463425 3.595868 -0.806995 0.000036 -0.012257 0.006705
N -3.125182 -1.850185 4.424955 -0.000267 0.001023 -0.001078
N -3.269340 -1.918379 -5.948512 -0.000209 0.001150 -0.001517
N -3.264549 -1.916269 -0.806856 0.000164 0.001388 0.001628
N -1.578400 0.936723 4.424574 0.009885 -0.005806 0.003451
N -1.720140 0.869631 -5.948540 0.010047 -0.005519 0.002970
N -1.711633 0.873551 -0.806073 0.011101 -0.004570 0.005890
N -3.163300 3.676236 4.423554 0.008825 0.004523 0.001343
N -3.305163 3.608890 -5.949151 0.008910 0.004463 0.000862
N -3.297041 3.612627 -0.808421 0.010110 0.004768 0.003446
N 0.042746 -1.848708 4.425251 0.008320 0.005155 0.000949
N -0.099374 -1.915072 -5.948011 0.008720 0.005191 0.000713
N -0.091859 -1.910687 -0.807804 0.010244 0.005528 0.003445
N 0.079331 1.849750 1.875027 -0.002209 -0.000139 -0.008161
N 0.070048 1.844024 6.987531 -0.008615 -0.005143 0.000195
N -0.072257 1.775655 -3.376437 -0.008150 -0.005355 0.000500
N 3.286289 -3.672538 1.873559 -0.002064 0.000571 -0.008690
N 3.275925 -3.680507 6.987376 -0.008832 -0.004357 0.000368
N 3.131827 -3.748350 -3.379522 -0.008500 -0.004188 0.001048
N 1.699407 -0.932890 1.875889 -0.003160 0.007257 -0.007126
N 1.690947 -0.941240 6.988213 -0.009920 0.005503 0.002518
N 1.547511 -1.007624 -3.376778 -0.009783 0.005896 0.002954
N 3.210859 1.816671 1.867049 0.003090 -0.012512 -0.026206
N 3.238768 1.845209 6.986794 0.000465 -0.000919 -0.001847
N 3.095479 1.778845 -3.380710 0.000534 -0.001058 -0.001055
N 6.419901 -3.688088 1.861492 -0.013616 -0.007808 -0.014758
N 6.443534 -3.678691 6.990458 0.000373 -0.000053 -0.001389
N 6.300924 -3.746244 -3.378105 0.000590 -0.000249 -0.000702
N 4.836202 -0.930826 1.870933 -0.015347 0.012271 -0.009887
N 4.858474 -0.937766 6.987836 -0.000504 0.009457 0.000450
N 4.715437 -1.006150 -3.379205 -0.000575 0.009790 0.001390
N -3.182189 1.836925 1.856377 -0.014340 -0.009425 -0.013834
N -3.158569 1.848151 6.988612 0.001619 -0.000715 -0.001928
N -3.299799 1.781641 -3.380203 0.001446 -0.000943 -0.001303
N 0.040344 -3.680305 1.848091 -0.003563 -0.001804 -0.018144
N 0.048201 -3.675759 6.991950 0.001189 0.000140 -0.001415
N -0.094449 -3.742972 -3.379274 0.001070 0.000054 -0.000957
N -1.543186 -0.939475 1.851421 -0.004108 0.007844 -0.016526
N -1.536343 -0.935939 6.992845 0.000164 0.009811 0.000769
N -1.679772 -1.003446 -3.379145 0.000024 0.009763 0.001043
