108
Energy=-2.862757e+06 Lattice="9.476278e+00 0.000000e+00 0.000000e+00 -4.738139e+00 8.206697e+00 0.000000e+00 9.377101e-16 1.624162e-15 1.531397e+01" Stress="-1.086797e-01 7.385452e-03 1.113402e-05 7.382557e-03 -1.003613e-01 -1.352730e-04 5.588945e-06 -1.360324e-04 -1.039984e-01" Properties=species:S:1:pos:R:3:forces:R:3 Config_type=AlGaN_super3_53_0_0.xyz
Al 1.564294e+00 9.031460e-01 2.504900e+00 -1.300998e-03 -1.479478e-02 -1.262423e-02
Ga 1.564294e+00 9.031460e-01 7.521855e+00 -2.178215e-03 -1.877516e-02 -6.227140e-03
Ga 1.564294e+00 9.031460e-01 -2.775158e+00 -2.194140e-03 -1.877556e-02 -6.010616e-03
Ga 2.938992e-08 3.612582e+00 2.504900e+00 -3.037401e-03 -1.773964e-03 -1.271093e-02
Ga 2.938992e-08 3.612582e+00 7.521855e+00 -3.193243e-03 -1.435875e-03 -2.665088e-03
Ga 2.938992e-08 3.612582e+00 -2.775158e+00 -3.247836e-03 -1.510982e-03 -2.761075e-03
Ga 3.173845e+00 -1.884678e+00 2.504900e+00 -3.540962e-03 1.863855e-03 -1.395748e-02
Ga 3.173845e+00 -1.884678e+00 7.521855e+00 -3.399714e-03 1.984514e-03 -3.778403e-03
Ga 3.173845e+00 -1.884678e+00 -2.775158e+00 -3.490478e-03 2.009851e-03 -3.849223e-03
Ga -4.783396e+00 9.031460e-01 2.504900e+00 3.789655e-04 -1.723529e-02 -1.424318e-02
Ga -4.783396e+00 9.031460e-01 7.521855e+00 7.652820e-04 -1.734567e-02 -4.947924e-03
Ga -4.783396e+00 9.031460e-01 -2.775158e+00 7.875983e-04 -1.726920e-02 -4.942223e-03
Ga -6.347690e+00 3.612582e+00 2.504900e+00 -2.868939e-04 -3.039368e-04 -1.140043e-02
Ga -6.347690e+00 3.612582e+00 7.521855e+00 -2.055310e-04 9.724590e-05 -1.528560e-03
Ga -6.347690e+00 3.612582e+00 -2.775158e+00 -1.587127e-04 4.858467e-05 -1.663940e-03
Ga -3.173845e+00 -1.884678e+00 2.504900e+00 -4.161718e-04 3.274878e-03 -1.259161e-02
Ga -3.173845e+00 -1.884678e+00 7.521855e+00 -3.753480e-04 3.494920e-03 -2.697559e-03
Ga -3.173845e+00 -1.884678e+00 -2.775158e+00 -3.565936e-04 3.546282e-03 -2.884416e-03
Ga -1.654808e+00 9.031460e-01 2.504900e+00 1.671716e-02 -9.349457e-03 -1.716634e-02
Ga -1.654808e+00 9.031460e-01 7.521855e+00 1.653387e-02 -9.493991e-03 -8.416861e-03
Ga -1.654808e+00 9.031460e-01 -2.775158e+00 1.654053e-02 -9.448265e-03 -8.277286e-03
Ga -3.219102e+00 3.612582e+00 2.504900e+00 1.541554e-02 8.015054e-03 -1.432282e-02
Ga -3.219102e+00 3.612582e+00 7.521855e+00 1.544452e-02 8.016935e-03 -4.826664e-03
Ga -3.219102e+00 3.612582e+00 -2.775158e+00 1.542571e-02 7.955189e-03 -4.912751e-03
Ga -4.525702e-02 -1.884678e+00 2.504900e+00 1.532762e-02 1.115903e-02 -1.550270e-02
Ga -4.525702e-02 -1.884678e+00 7.521855e+00 1.518996e-02 1.132348e-02 -6.067138e-03
Ga -4.525702e-02 -1.884678e+00 -2.775158e+00 1.522683e-02 1.133278e-02 -6.046622e-03
Ga 1.469567e-08 1.806291e+00 5.013378e+00 -1.512062e-02 -1.138220e-02 -7.012174e-03
Ga 1.469567e-08 1.806291e+00 -5.283635e+00 -1.519311e-02 -1.133688e-02 -6.094364e-03
Ga 1.469567e-08 1.806291e+00 -2.666800e-01 -1.509707e-02 -1.139671e-02 4.545424e-02
Ga 3.173845e+00 -3.690969e+00 5.013378e+00 -1.547715e-02 -8.101750e-03 -5.346254e-03
Ga 3.173845e+00 -3.690969e+00 -5.283635e+00 -1.544807e-02 -8.038079e-03 -4.929219e-03
Ga 3.173845e+00 -3.690969e+00 -2.666800e-01 -1.541536e-02 -7.932682e-03 4.654143e-02
Ga 1.609551e+00 -9.815320e-01 5.013378e+00 -1.655908e-02 9.535426e-03 -9.229778e-03
Ga 1.609551e+00 -9.815320e-01 -5.283635e+00 -1.652624e-02 9.535824e-03 -8.441283e-03
Ga 1.609551e+00 -9.815320e-01 -2.666800e-01 -1.648232e-02 9.539551e-03 4.285741e-02
Ga 3.128588e+00 1.806291e+00 5.013378e+00 2.748281e-04 -3.516645e-03 -3.614350e-03
Ga 3.128588e+00 1.806291e+00 -5.283635e+00 3.674106e-04 -3.508665e-03 -2.706213e-03
Ga 3.128588e+00 1.806291e+00 -2.666800e-01 3.091680e-04 -3.698260e-03 4.898410e-02
Ga 6.302433e+00 -3.690969e+00 5.013378e+00 2.232283e-04 -1.341952e-04 -2.019764e-03
Ga 6.302433e+00 -3.690969e+00 -5.283635e+00 1.970549e-04 -1.399944e-04 -1.579084e-03
Ga 6.302433e+00 -3.690969e+00 -2.666800e-01 1.706923e-04 -1.519399e-04 5.023562e-02
Ga 4.738139e+00 -9.815320e-01 5.013378e+00 -7.078427e-04 1.742463e-02 -5.390998e-03
Ga 4.738139e+00 -9.815320e-01 -5.283635e+00 -7.893912e-04 1.738011e-02 -4.988786e-03
Ga 4.738139e+00 -9.815320e-01 -2.666800e-01 -8.610439e-04 1.729814e-02 4.661207e-02
Ga -3.219102e+00 1.806291e+00 5.013378e+00 3.411247e-03 -1.998544e-03 -4.211914e-03
Ga -3.219102e+00 1.806291e+00 -5.283635e+00 3.415423e-03 -1.991120e-03 -3.756606e-03
Ga -3.219102e+00 1.806291e+00 -2.666800e-01 3.586351e-03 -2.038163e-03 4.786714e-02
Ga -4.525703e-02 -3.690969e+00 5.013378e+00 3.192208e-03 1.353655e-03 -3.098954e-03
Ga -4.525703e-02 -3.690969e+00 -5.283635e+00 3.204811e-03 1.404602e-03 -2.658094e-03
Ga -4.525703e-02 -3.690969e+00 -2.666800e-01 3.374606e-03 1.490403e-03 4.898096e-02
Ga -1.609551e+00 -9.815320e-01 5.013378e+00 2.131360e-03 1.885222e-02 -6.524954e-03
Ga -1.609551e+00 -9.815320e-01 -5.283635e+00 2.190674e-03 1.882316e-02 -6.107202e-03
Ga -1.609551e+00 -9.815320e-01 -2.666800e-01 2.293389e-03 1.880620e-02 4.549458e-02
N 1.564294e+00 9.031460e-01 4.418497e+00 -1.356007e-03 -1.773553e-02 -1.688199e-02
N 1.564294e+00 9.031460e-01 -5.878516e+00 -1.368838e-03 -1.794722e-02 5.766217e-03
N 1.564294e+00 9.031460e-01 -8.615610e-01 -1.246374e-03 -1.769625e-02 9.179375e-03
N 2.938992e-08 3.612582e+00 4.418497e+00 -2.481619e-03 1.961048e-04 2.526411e-03
N 2.938992e-08 3.612582e+00 -5.878516e+00 -2.347907e-03 1.086693e-04 1.846149e-03
N 2.938992e-08 3.612582e+00 -8.615610e-01 -2.246932e-03 5.016326e-05 5.861295e-03
N 3.173845e+00 -1.884678e+00 4.418497e+00 -2.949707e-03 1.683731e-03 1.985884e-03
N 3.173845e+00 -1.884678e+00 -5.878516e+00 -2.905885e-03 1.727329e-03 1.449341e-03
N 3.173845e+00 -1.884678e+00 -8.615610e-01 -2.856517e-03 1.685261e-03 5.381569e-03
N -4.783396e+00 9.031460e-01 4.418497e+00 5.030250e-04 -1.778503e-02 6.805898e-03
N -4.783396e+00 9.031460e-01 -5.878516e+00 3.742918e-04 -1.778723e-02 6.087288e-03
N -4.783396e+00 9.031460e-01 -8.615610e-01 3.307191e-04 -1.750162e-02 9.757338e-03
N -6.347690e+00 3.612582e+00 4.418497e+00 -5.568063e-04 5.139481e-04 2.932960e-03
N -6.347690e+00 3.612582e+00 -5.878516e+00 -6.371429e-04 4.207808e-04 2.175385e-03
N -6.347690e+00 3.612582e+00 -8.615610e-01 -6.312625e-04 3.256651e-04 6.288878e-03
N -3.173845e+00 -1.884678e+00 4.418497e+00 -1.241143e-03 2.105008e-03 2.349950e-03
N -3.173845e+00 -1.884678e+00 -5.878516e+00 -1.221161e-03 2.053058e-03 1.830057e-03
N -3.173845e+00 -1.884678e+00 -8.615610e-01 -1.204152e-03 1.932789e-03 5.652431e-03
N -1.654808e+00 9.031460e-01 4.418497e+00 1.659322e-02 -9.624604e-03 1.066810e-02
N -1.654808e+00 9.031460e-01 -5.878516e+00 1.664244e-02 -9.640050e-03 1.002085e-02
N -1.654808e+00 9.031460e-01 -8.615610e-01 1.657071e-02 -9.509733e-03 1.320899e-02
N -3.219102e+00 3.612582e+00 4.418497e+00 1.559436e-02 8.593166e-03 6.701630e-03
N -3.219102e+00 3.612582e+00 -5.878516e+00 1.557194e-02 8.598618e-03 6.078013e-03
N -3.219102e+00 3.612582e+00 -8.615610e-01 1.537655e-02 8.461266e-03 9.593593e-03
N -4.525702e-02 -1.884678e+00 4.418497e+00 1.486132e-02 1.014736e-02 6.346852e-03
N -4.525702e-02 -1.884678e+00 -5.878516e+00 1.484556e-02 1.018859e-02 5.724267e-03
N -4.525702e-02 -1.884678e+00 -8.615610e-01 1.474087e-02 9.969257e-03 9.312905e-03
N 1.469567e-08 1.806291e+00 1.910020e+00 3.607777e-03 -2.116093e-02 -3.237614e-02
N 1.469567e-08 1.806291e+00 6.926975e+00 -1.487238e-02 -1.018839e-02 5.784736e-03
N 1.469567e-08 1.806291e+00 -3.370038e+00 -1.487957e-02 -1.014128e-02 5.630123e-03
N 3.173845e+00 -3.690969e+00 1.910020e+00 -1.560805e-02 -8.476771e-03 -3.925710e-02
N 3.173845e+00 -3.690969e+00 6.926975e+00 -1.557900e-02 -8.569970e-03 6.115306e-03
N 3.173845e+00 -3.690969e+00 -3.370038e+00 -1.556559e-02 -8.587742e-03 6.043175e-03
N 1.609551e+00 -9.815320e-01 1.910020e+00 -1.723244e-02 2.754186e-02 -2.933789e-02
N 1.609551e+00 -9.815320e-01 6.926975e+00 -1.664627e-02 9.631297e-03 9.981397e-03
N 1.609551e+00 -9.815320e-01 -3.370038e+00 -1.664069e-02 9.555548e-03 9.989257e-03
N 3.128588e+00 1.806291e+00 1.910020e+00 -1.776211e-02 -1.295231e-02 -3.645100e-02
N 3.128588e+00 1.806291e+00 6.926975e+00 1.198969e-03 -2.073943e-03 1.903296e-03
N 3.128588e+00 1.806291e+00 -3.370038e+00 1.238622e-03 -2.019080e-03 1.737549e-03
N 6.302433e+00 -3.690969e+00 1.910020e+00 5.954559e-04 -1.292333e-04 -4.365363e-02
N 6.302433e+00 -3.690969e+00 6.926975e+00 5.964152e-04 -3.932020e-04 2.309755e-03
N 6.302433e+00 -3.690969e+00 -3.370038e+00 6.058509e-04 -3.838602e-04 2.175351e-03
N 4.738139e+00 -9.815320e-01 1.910020e+00 -3.498596e-04 1.792787e-02 -3.949483e-02
N 4.738139e+00 -9.815320e-01 6.926975e+00 -4.025469e-04 1.774074e-02 6.199930e-03
N 4.738139e+00 -9.815320e-01 -3.370038e+00 -3.690758e-04 1.771634e-02 6.083750e-03
N -3.219102e+00 1.806291e+00 1.910020e+00 3.140860e-03 -2.024292e-03 -4.453110e-02
N -3.219102e+00 1.806291e+00 6.926975e+00 2.952333e-03 -1.707129e-03 1.565449e-03
N -3.219102e+00 1.806291e+00 -3.370038e+00 2.929629e-03 -1.691796e-03 1.295499e-03
N -4.525703e-02 -3.690969e+00 1.910020e+00 2.387071e-03 2.099177e-04 -4.393366e-02
N -4.525703e-02 -3.690969e+00 6.926975e+00 2.388381e-03 -5.097293e-05 1.940697e-03
N -4.525703e-02 -3.690969e+00 -3.370038e+00 2.369976e-03 -8.204487e-05 1.767964e-03
N -1.609551e+00 -9.815320e-01 1.910020e+00 1.332120e-03 1.823485e-02 -4.002768e-02
N -1.609551e+00 -9.815320e-01 6.926975e+00 1.406670e-03 1.794902e-02 5.897886e-03
N -1.609551e+00 -9.815320e-01 -3.370038e+00 1.367390e-03 1.790347e-02 5.697897e-03
