108
Energy=-1.260623e+06 Lattice="9.489459e+00 0.000000e+00 0.000000e+00 -4.748454e+00 8.213716e+00 0.000000e+00 1.799785e-03 5.684052e-03 1.530880e+01" Stress="-1.671516e-03 -4.550235e-04 1.608424e-04 -4.479998e-04 -2.457272e-03 2.652691e-04 1.662030e-04 2.579713e-04 -5.707256e-04" Properties=species:S:1:pos:R:3:forces:R:3 Config_type=AlGaN_super3_18_0_16.xyz
Al 1.563115e+00 8.646861e-01 2.389147e+00 -1.676312e-03 2.851140e-03 5.249841e-05
Al 1.557334e+00 8.850227e-01 7.497302e+00 1.509133e-04 -4.269602e-04 8.153598e-04
Al 1.560642e+00 8.823229e-01 -2.687659e+00 1.731462e-04 -8.795560e-05 9.167694e-04
Al -2.049661e-03 3.606488e+00 2.429009e+00 -4.219707e-03 -2.147530e-03 5.040793e-04
Al -1.616178e-02 3.610663e+00 7.495217e+00 -2.799364e-04 7.045938e-04 2.988012e-04
Al -2.640582e-02 3.602243e+00 -2.714882e+00 5.905808e-05 -6.093589e-05 -1.543676e-06
Al 3.149608e+00 -1.852581e+00 2.412984e+00 -4.391981e-04 -2.017843e-03 9.232448e-05
Al 3.154513e+00 -1.861000e+00 7.505973e+00 -1.497921e-04 -1.677263e-04 2.883732e-04
Ga 3.157112e+00 -1.868410e+00 -2.707114e+00 -9.026444e-06 1.489367e-04 3.011362e-04
Al -4.771873e+00 8.677651e-01 2.405932e+00 -5.576246e-04 9.599475e-04 2.040644e-04
Al -4.774327e+00 8.744478e-01 7.516456e+00 2.829377e-04 -7.072774e-05 3.806662e-04
Al -4.766654e+00 8.758521e-01 -2.718358e+00 -9.043992e-06 3.948468e-04 -2.177699e-04
Al -6.361894e+00 3.601543e+00 2.387242e+00 1.023580e-03 9.410250e-04 2.268396e-04
Al -6.367119e+00 3.606057e+00 7.522734e+00 9.071491e-05 -6.309158e-05 -1.183616e-04
Ga -6.361333e+00 3.592669e+00 -2.697411e+00 -1.439071e-04 4.494489e-05 5.155799e-04
Al -3.194081e+00 -1.877204e+00 2.444040e+00 -9.369255e-05 6.323445e-04 -1.464779e-04
Ga -3.187416e+00 -1.865602e+00 7.512130e+00 -5.719754e-05 -1.249943e-04 2.365026e-04
Al -3.189524e+00 -1.858948e+00 -2.742141e+00 -1.117414e-04 4.334526e-06 -2.667521e-06
Ga -1.604621e+00 8.862202e-01 2.402905e+00 7.443383e-04 1.203110e-04 2.351025e-04
Al -1.604243e+00 8.833085e-01 7.507894e+00 2.987041e-04 -5.512447e-05 5.269235e-04
Al -1.617765e+00 8.835277e-01 -2.704454e+00 2.707857e-04 5.195490e-05 1.458454e-04
Ga -3.196145e+00 3.608625e+00 2.419670e+00 3.221105e-04 1.401458e-04 -8.341018e-05
Ga -3.173857e+00 3.611060e+00 7.503618e+00 3.959555e-04 3.492941e-06 -8.880792e-06
Al -3.176122e+00 3.592529e+00 -2.708742e+00 -2.657057e-04 -1.357639e-04 1.259695e-04
Al -1.748964e-02 -1.868413e+00 2.384329e+00 7.668553e-04 -9.217092e-04 7.517299e-05
Al -1.964578e-02 -1.847590e+00 7.523020e+00 -3.470028e-05 1.044669e-06 4.487908e-04
Ga -2.711931e-02 -1.850165e+00 -2.689161e+00 2.620772e-04 -1.882293e-04 3.819381e-04
Al -2.813196e-02 1.808106e+00 4.972752e+00 1.079865e-04 -5.609907e-04 -4.841113e-04
Ga -2.965998e-02 1.790587e+00 -5.255873e+00 -1.954814e-05 5.775302e-05 7.257566e-04
Al -1.762555e-02 1.781269e+00 -1.657476e-01 -4.243434e-05 1.169816e-04 -2.166174e-04
Al 3.168802e+00 -3.688602e+00 4.948287e+00 -9.735366e-06 -1.792614e-05 8.992212e-04
Al 3.160366e+00 -3.695020e+00 -5.255736e+00 -1.471857e-04 1.810784e-04 2.360434e-04
Ga 3.138139e+00 -3.709011e+00 -1.403919e-01 -2.633037e-04 5.198429e-05 1.396947e-03
Ga 1.574953e+00 -9.515457e-01 4.962470e+00 -7.990353e-04 9.858153e-05 2.251380e-04
Ga 1.573766e+00 -9.470261e-01 -5.270972e+00 -4.293165e-04 2.890963e-04 4.255349e-04
Al 1.561245e+00 -9.392002e-01 -1.286172e-01 -4.845681e-04 3.523631e-04 -1.897225e-04
Ga 3.142070e+00 1.791788e+00 4.952487e+00 9.401819e-05 -6.507610e-04 2.885888e-04
Al 3.142573e+00 1.778630e+00 -5.265846e+00 -2.687392e-04 -2.009509e-04 3.582969e-04
Al 3.137708e+00 1.772553e+00 -1.362525e-01 5.550413e-04 2.319913e-04 -8.518987e-04
Al 6.293464e+00 -3.695707e+00 4.952173e+00 -1.666275e-05 -1.851050e-04 -1.752260e-04
Al 6.294190e+00 -3.690626e+00 -5.255424e+00 -2.786873e-06 -4.058861e-05 1.723759e-04
Ga 6.301972e+00 -3.697959e+00 -1.319662e-01 -8.435550e-05 -2.896054e-04 5.945502e-05
Al 4.725556e+00 -9.488537e-01 4.952953e+00 -4.467581e-04 6.742356e-05 -5.701775e-05
Al 4.731624e+00 -9.455934e-01 -5.257262e+00 -5.562639e-04 -1.875728e-04 1.562589e-05
Ga 4.726999e+00 -9.336742e-01 -1.353838e-01 -2.222736e-04 4.386574e-04 8.783976e-05
Al -3.188476e+00 1.782481e+00 4.975994e+00 1.887312e-04 -1.550245e-03 2.250073e-05
Al -3.195328e+00 1.772103e+00 -5.246004e+00 2.881952e-04 2.183970e-04 8.415668e-05
Al -3.203464e+00 1.793600e+00 -1.755207e-01 7.833403e-05 -2.246753e-04 -9.173964e-05
Ga -2.944464e-02 -3.689226e+00 4.969079e+00 -5.487662e-05 3.111473e-04 3.698169e-04
Ga -2.932589e-02 -3.696111e+00 -5.261752e+00 2.354499e-04 -3.942440e-05 5.095735e-04
Al -1.331980e-02 -3.700027e+00 -1.433632e-01 -1.136060e-05 -3.726351e-04 3.739957e-04
Ga -1.607377e+00 -9.405365e-01 4.959203e+00 3.141802e-05 5.512075e-05 1.768167e-04
Al -1.620958e+00 -9.411001e-01 -5.252495e+00 3.293749e-04 -2.179027e-04 -7.672483e-05
Ga -1.604949e+00 -9.437199e-01 -1.402785e-01 -1.849192e-04 3.413209e-04 9.409916e-05
N 1.512456e+00 9.002771e-01 4.309796e+00 -3.408082e-06 6.956184e-05 -2.703281e-04
N 1.590958e+00 9.023363e-01 -5.909884e+00 6.640759e-04 1.428782e-04 -5.651622e-04
N 1.561565e+00 8.709271e-01 -7.565752e-01 3.456899e-04 -2.815438e-05 5.104414e-04
N -1.837018e-02 3.607126e+00 4.349388e+00 -4.030743e-04 -5.430605e-04 7.278329e-06
N -2.264422e-02 3.654024e+00 -5.894174e+00 -1.174701e-04 2.337111e-04 -8.717213e-04
N -2.113712e-02 3.566252e+00 -8.077455e-01 -1.752015e-04 1.315493e-04 3.705174e-04
N 3.185413e+00 -1.882392e+00 4.328879e+00 -1.341970e-04 6.191293e-06 -1.479626e-04
N 3.192014e+00 -1.892875e+00 -5.880597e+00 2.468184e-04 -2.537922e-04 -5.888629e-04
N 3.106450e+00 -1.844315e+00 -7.370143e-01 -1.321955e-04 1.668596e-04 4.418636e-04
N -4.726487e+00 8.574110e-01 4.323669e+00 7.196329e-04 -8.420084e-05 -7.184217e-05
N -4.768976e+00 8.724526e-01 -5.866901e+00 3.299803e-04 1.825278e-04 -3.172970e-04
N -4.778175e+00 9.191388e-01 -7.988855e-01 1.673968e-04 -1.973981e-05 8.706851e-04
N -6.388635e+00 3.635956e+00 4.301089e+00 -4.723338e-04 -7.438521e-05 -1.015034e-03
N -6.400601e+00 3.585175e+00 -5.872051e+00 -2.607156e-04 -5.086065e-05 -1.502218e-04
N -6.315709e+00 3.582054e+00 -7.173833e-01 2.830779e-05 -3.636561e-04 5.398534e-04
N -3.223270e+00 -1.887049e+00 4.357134e+00 -3.779764e-04 -1.028132e-04 -4.531137e-04
N -3.186671e+00 -1.868959e+00 -5.814566e+00 5.698158e-05 2.822069e-04 1.589366e-04
N -3.187188e+00 -1.867814e+00 -8.303386e-01 -2.795932e-05 9.788281e-05 3.662368e-04
N -1.604720e+00 9.336467e-01 4.378831e+00 1.664394e-04 5.813769e-04 -1.770301e-05
N -1.651401e+00 8.562804e-01 -5.882142e+00 -5.387879e-05 -1.216973e-04 -1.103027e-04
N -1.612761e+00 9.229839e-01 -7.808057e-01 4.737811e-04 -3.764960e-04 2.539339e-04
N -3.149541e+00 3.586350e+00 4.401272e+00 6.083048e-04 1.094774e-03 -5.153534e-04
N -3.140971e+00 3.583998e+00 -5.832753e+00 8.127739e-05 -4.971100e-04 2.429461e-04
N -3.225838e+00 3.591690e+00 -7.874768e-01 -4.243834e-05 -2.872833e-04 1.751257e-04
N -1.537020e-02 -1.860964e+00 4.289029e+00 3.461041e-04 -4.688084e-04 -7.497812e-04
N -6.596988e-02 -1.835416e+00 -5.884046e+00 -3.052567e-04 3.786141e-06 1.129789e-04
N 1.923076e-02 -1.882564e+00 -7.126353e-01 1.803385e-04 -5.146660e-04 4.822561e-04
N 1.859104e-02 1.810794e+00 1.756762e+00 7.296714e-04 2.031076e-04 1.412972e-04
N -2.523141e-02 1.790118e+00 6.899566e+00 8.701026e-05 1.391487e-04 -5.354599e-04
N -2.288118e-02 1.777654e+00 -3.269143e+00 2.752344e-05 9.888796e-05 1.007598e-04
N 3.188373e+00 -3.675226e+00 1.842833e+00 3.078911e-04 5.728286e-04 -9.248732e-04
N 3.191895e+00 -3.660182e+00 6.868651e+00 2.898547e-04 -4.561915e-05 -7.669117e-04
N 3.146143e+00 -3.740437e+00 -3.335974e+00 -7.680470e-05 9.683352e-05 8.004103e-05
N 1.565939e+00 -9.537598e-01 1.796926e+00 2.825361e-04 -1.119991e-04 -6.083200e-04
N 1.566351e+00 -9.521690e-01 6.949827e+00 -1.378656e-04 4.821292e-04 -2.224527e-04
N 1.565191e+00 -9.036774e-01 -3.305233e+00 -7.061814e-04 4.460480e-04 1.529702e-04
N 3.141275e+00 1.770862e+00 1.790129e+00 1.851710e-04 6.852344e-04 7.399531e-04
N 3.144411e+00 1.790676e+00 6.936727e+00 -1.368819e-04 -9.073187e-05 -2.811597e-04
N 3.133830e+00 1.733821e+00 -3.344145e+00 1.529004e-04 -3.235127e-04 -2.673327e-04
N 6.290003e+00 -3.689789e+00 1.853403e+00 4.156481e-03 1.517465e-03 -2.278751e-03
N 6.309939e+00 -3.735229e+00 6.870687e+00 -1.183796e-04 -3.078209e-04 -4.904722e-04
N 6.264441e+00 -3.675391e+00 -3.339214e+00 -2.900283e-04 2.388980e-04 -4.761158e-05
N 4.732380e+00 -9.506134e-01 1.851883e+00 1.787072e-04 -7.161806e-04 -1.703435e-03
N 4.685728e+00 -9.209521e-01 6.874696e+00 -3.072992e-04 3.173740e-04 -2.903175e-04
N 4.760570e+00 -9.223955e-01 -3.344399e+00 -1.127291e-04 -1.728290e-04 1.734077e-04
N -3.234551e+00 1.763229e+00 1.739024e+00 3.591029e-04 -3.235416e-05 -5.102109e-04
N -3.194706e+00 1.737854e+00 6.886461e+00 2.215213e-04 -5.154693e-04 -4.227759e-04
N -3.191369e+00 1.782574e+00 -3.320941e+00 2.558324e-04 -1.280259e-04 -5.881672e-05
N -5.898858e-02 -3.675617e+00 1.774787e+00 -7.973108e-04 9.930001e-05 -3.656098e-04
N -6.675440e-02 -3.661151e+00 6.947909e+00 -2.418697e-04 -8.777768e-05 -8.829801e-05
N 1.456442e-02 -3.711431e+00 -3.295509e+00 5.602347e-04 -1.748852e-04 2.070232e-04
N -1.614212e+00 -9.974129e-01 1.838259e+00 -1.161818e-03 -2.249517e-04 -4.869278e-04
N -1.561979e+00 -9.239549e-01 6.929966e+00 -8.932491e-05 2.456708e-05 -4.954715e-04
N -1.639374e+00 -9.201862e-01 -3.332877e+00 -1.849856e-04 -2.320015e-07 -1.096201e-05
