108
Energy=-1672602.220961 Lattice="9.540266 0.000000 0.000000 -4.774089 8.260963 0.000000 0.003235 -0.005806 15.405410" Stress="-0.000013 -0.000000 0.000001 -0.000000 -0.000015 -0.000001 0.000001 -0.000001 -0.000021" Properties=species:S:1:pos:R:3:forces:R:3
Al 1.569044 0.886360 2.397075 0.002132 -0.001325 0.002563
Al 1.569641 0.872978 7.545853 0.000121 0.000121 0.000555
Al 1.555539 0.880287 -2.691936 -0.000042 0.000028 0.000091
Al -0.023561 3.630938 2.416653 -0.001004 0.001093 0.001279
Al -0.033637 3.627693 7.556343 -0.000206 0.000183 0.000243
Ga -0.037797 3.617462 -2.716642 -0.000134 -0.000039 -0.000125
Al 3.147152 -1.877642 2.438429 0.002326 -0.000805 0.000948
Ga 3.151215 -1.895682 7.540618 0.000006 -0.000143 0.000563
Ga 3.147672 -1.882968 -2.724964 0.000037 0.000061 -0.000204
Al -4.807926 0.882967 2.420352 0.002566 0.002816 -0.000701
Ga -4.791452 0.892993 7.573126 0.000335 -0.000108 -0.000009
Ga -4.800332 0.887451 -2.727817 -0.000052 -0.000222 -0.000054
Al -6.364573 3.630206 2.391988 -0.003350 -0.000070 0.000503
Ga -6.390873 3.618154 7.568589 -0.000401 0.000020 0.000395
Ga -6.379162 3.625876 -2.705602 -0.000189 -0.000012 0.000157
Al -3.197662 -1.878682 2.435186 0.000318 0.000030 -0.000446
Ga -3.196298 -1.886848 7.560202 -0.000311 0.000289 0.000225
Ga -3.198165 -1.872483 -2.718831 -0.000357 0.000063 -0.000554
Ga -1.607829 0.885580 2.437108 -0.000947 -0.000113 -0.000178
Ga -1.621149 0.890874 7.536769 0.000406 -0.000213 0.000390
Al -1.608573 0.890223 -2.710030 0.000482 -0.000122 -0.000162
Al -3.208756 3.646130 2.426558 0.000527 -0.001290 0.000359
Al -3.184537 3.621129 7.542823 0.000296 -0.000344 0.000162
Al -3.204275 3.636250 -2.718595 -0.000042 0.000144 0.000417
Al -0.011433 -1.882339 2.427862 0.000053 -0.000359 -0.000175
Ga -0.009248 -1.868541 7.528810 0.000147 0.000091 0.000772
Al -0.015711 -1.872610 -2.695511 0.000102 -0.000034 0.000118
Ga -0.022629 1.791924 4.991084 0.000239 0.000123 0.000442
Ga -0.017603 1.806622 -5.291182 -0.000276 0.000128 0.000508
Al -0.013117 1.792446 -0.140806 -0.000298 0.000247 -0.000018
Al 3.151087 -3.723689 4.963682 -0.000780 0.000478 0.001656
Al 3.161636 -3.722158 -5.298195 0.000046 0.000214 0.000245
Ga 3.148366 -3.723155 -0.118006 -0.000427 0.000079 -0.000912
Al 1.567408 -0.959444 4.956566 -0.000513 -0.000043 -0.000843
Ga 1.584425 -0.945942 -5.264433 -0.000569 0.000342 0.000715
Ga 1.563416 -0.949310 -0.128565 -0.000586 0.000178 -0.002251
Ga 3.157841 1.784886 4.964138 -0.000009 -0.000085 0.000407
Al 3.149432 1.791183 -5.279579 -0.000009 -0.000095 0.000424
Al 3.144437 1.799770 -0.125105 0.000445 -0.000162 0.000101
Ga 6.333046 -3.713559 4.960268 0.000124 0.000035 0.000332
Al 6.322608 -3.714186 -5.289402 0.000037 -0.000038 0.000185
Ga 6.344153 -3.727789 -0.111224 0.000348 0.000209 0.001044
Ga 4.750358 -0.955764 4.956921 -0.000189 0.000012 0.000616
Al 4.748084 -0.954562 -5.291173 -0.000150 -0.000157 0.000038
Ga 4.742921 -0.951234 -0.102097 -0.000109 0.000491 0.000048
Al -3.204158 1.805797 4.965497 -0.000363 0.000139 0.000403
Al -3.211182 1.812188 -5.268813 0.000382 -0.000085 0.000315
Ga -3.210057 1.812479 -0.151611 0.000083 0.000287 0.003656
Ga -0.003437 -3.711750 4.967570 0.000285 -0.000011 0.000480
Ga -0.010522 -3.725187 -5.280580 0.000164 0.000054 0.000371
Al -0.016906 -3.714458 -0.134905 0.000818 0.000034 -0.000334
Al -1.605741 -0.958642 4.961809 0.000137 0.000007 -0.000165
Ga -1.624331 -0.950497 -5.255484 -0.000159 0.000243 0.000436
Ga -1.596727 -0.955437 -0.146196 -0.000070 0.000002 0.003426
N 1.563823 0.834324 4.312824 -0.000144 -0.000025 -0.001205
N 1.606647 0.897584 -5.947024 0.000402 -0.000264 -0.000577
N 1.568326 0.928246 -0.766486 0.000190 0.000007 -0.000113
N -0.072005 3.645665 4.330509 0.001412 -0.000255 -0.002368
N -0.029106 3.680288 -5.925503 -0.000105 0.000019 -0.000363
N -0.026964 3.588893 -0.740409 -0.000120 -0.000338 -0.000039
N 3.114457 -1.907848 4.357606 0.000186 0.000268 -0.000396
N 3.194290 -1.901662 -5.874185 -0.000070 -0.000010 -0.000567
N 3.162722 -1.879475 -0.756471 -0.000104 -0.000012 0.000140
N -4.753744 0.905629 4.325174 0.000259 -0.000074 -0.000331
N -4.792067 0.888233 -5.838375 0.000017 0.000188 -0.000370
N -4.842197 0.899381 -0.746913 0.000191 0.000261 -0.000193
N -6.377285 3.627496 4.301929 0.000189 0.000425 -0.000664
N -6.426591 3.608401 -5.855523 -0.000091 0.000065 -0.000437
N -6.342778 3.606913 -0.713408 -0.000297 0.000008 -0.000492
N -3.157626 -1.855736 4.335285 -0.000059 0.000239 -0.000202
N -3.236792 -1.896388 -5.864636 -0.000094 0.000139 -0.000352
N -3.208414 -1.879068 -0.752106 0.000130 0.000184 0.000384
N -1.651283 0.860005 4.411735 0.000391 -0.000438 -0.000292
N -1.665033 0.905670 -5.889201 0.000334 -0.000217 -0.000331
N -1.575886 0.909350 -0.787736 0.000412 -0.000267 0.000064
N -3.164199 3.609231 4.338318 -0.000068 -0.000081 -0.000284
N -3.161841 3.606457 -5.935411 -0.000063 -0.000257 -0.000498
N -3.244047 3.661994 -0.802365 -0.000177 -0.000174 -0.000623
N -0.018370 -1.834600 4.346425 0.000168 0.000388 -0.000052
N -0.021366 -1.866680 -5.905827 0.000282 -0.000192 -0.000592
N -0.017388 -1.925251 -0.782877 0.000167 -0.000073 -0.000167
N 0.018775 1.818154 1.783021 -0.001011 0.000575 -0.001077
N 0.023340 1.817562 6.974911 -0.000117 0.000136 -0.000510
N -0.020990 1.745727 -3.307574 0.000079 0.000015 -0.000634
N 3.154793 -3.709919 1.852552 0.000904 0.000348 0.002305
N 3.162055 -3.768803 6.898786 -0.000070 0.000340 -0.000638
N 3.116105 -3.741177 -3.380726 -0.000093 0.000060 -0.000240
N 1.573136 -0.955726 1.845288 -0.001792 -0.000081 0.002331
N 1.577618 -0.912015 6.876012 -0.000505 0.000452 -0.000052
N 1.525318 -0.926537 -3.283246 -0.000398 0.000232 -0.000134
N 3.155355 1.794256 1.796030 -0.000193 -0.000208 0.000186
N 3.119426 1.769107 6.937845 -0.000110 -0.000037 -0.000404
N 3.101211 1.770854 -3.364498 0.000016 -0.000095 -0.000356
N 6.337576 -3.708034 1.868223 0.001299 -0.001059 -0.000276
N 6.298615 -3.741448 6.939691 0.000193 -0.000262 -0.000418
N 6.334608 -3.716836 -3.378896 0.000278 -0.000185 -0.000052
N 4.748839 -0.954345 1.881534 -0.001319 -0.002001 0.000057
N 4.750880 -0.954469 6.929728 -0.000218 -0.000142 0.000036
N 4.746189 -0.956637 -3.387548 -0.000162 0.000065 -0.000200
N -3.237558 1.830065 1.838295 -0.001869 -0.001737 -0.002946
N -3.214194 1.842586 6.883065 0.000086 0.000340 -0.000116
N -3.164378 1.826625 -3.340621 0.000070 0.000003 -0.000184
N -0.010641 -3.707960 1.794996 0.000850 0.001719 0.001227
N 0.021582 -3.743276 6.949587 0.000143 -0.000009 -0.000385
N 0.019090 -3.685230 -3.298823 0.000202 -0.000134 -0.000657
N -1.601538 -1.000598 1.846991 -0.000785 -0.000033 -0.003889
N -1.612782 -0.960976 6.872990 -0.000144 -0.000073 -0.000565
N -1.567428 -0.928803 -3.277346 -0.000088 -0.000110 0.000055
