108
Energy=-1.169072e+06 Lattice="9.482362e+00 0.000000e+00 0.000000e+00 -4.741971e+00 8.213727e+00 0.000000e+00 -2.970651e-04 -2.958747e-03 1.527879e+01" Stress="1.076665e-04 -3.032400e-06 4.383188e-05 2.599110e-06 2.962485e-04 -6.094918e-05 4.326668e-05 -6.087730e-05 -1.732176e-04" Properties=species:S:1:pos:R:3:forces:R:3 Config_type=AlGaN_super3_16_2_33.xyz
Al 1.553665e+00 8.741090e-01 2.386635e+00 2.783100e-05 7.034130e-05 2.760879e-05
Al 1.564665e+00 8.675748e-01 7.479043e+00 4.092528e-05 1.366814e-04 -4.669924e-05
Al 1.551986e+00 8.608048e-01 -2.678238e+00 8.618664e-05 -7.201551e-05 2.410894e-05
Al -1.360727e-02 3.597363e+00 2.418821e+00 -5.226732e-05 2.494091e-05 -6.690937e-05
Al -3.226013e-02 3.615967e+00 7.457769e+00 -3.095726e-05 6.973099e-05 5.519333e-05
Al -3.076735e-02 3.605025e+00 -2.680272e+00 1.856990e-05 6.498151e-05 3.625518e-05
Al 3.136346e+00 -1.851015e+00 2.416508e+00 1.124134e-04 9.489936e-05 -1.303148e-05
Al 3.141528e+00 -1.869984e+00 7.487066e+00 1.013305e-04 -6.151394e-05 1.006383e-04
Al 3.130919e+00 -1.858994e+00 -2.717719e+00 -6.875707e-05 -4.527340e-05 4.140890e-05
Al -4.780328e+00 8.648072e-01 2.419619e+00 -4.505535e-05 4.757072e-05 1.109056e-05
Al -4.777131e+00 8.620407e-01 7.466437e+00 3.518692e-05 -3.471798e-05 8.042825e-05
Ga -4.781966e+00 8.588689e-01 -2.689327e+00 8.421345e-05 -2.684232e-05 1.169363e-04
Al -6.356845e+00 3.600126e+00 2.424712e+00 -3.634248e-06 -3.862809e-06 -3.363096e-05
Ga -6.346271e+00 3.601205e+00 7.459156e+00 -2.138505e-06 5.479895e-05 8.490377e-05
Ga -6.358835e+00 3.597716e+00 -2.683406e+00 4.213476e-06 9.877931e-05 2.216183e-05
Ga -3.185123e+00 -1.862484e+00 2.404326e+00 -9.632019e-05 3.420504e-05 -8.122791e-05
Al -3.188651e+00 -1.859058e+00 7.464738e+00 -1.277850e-06 -4.721900e-05 -5.257679e-05
Ga -3.184330e+00 -1.855442e+00 -2.676646e+00 1.611465e-05 3.353288e-05 1.873667e-04
Al -1.584058e+00 8.698002e-01 2.423509e+00 4.679599e-05 2.231586e-05 5.301578e-05
Ga -1.598640e+00 8.666701e-01 7.462193e+00 2.135122e-04 -8.010801e-05 4.525462e-05
Al -1.580650e+00 8.636256e-01 -2.686495e+00 -5.901047e-05 -1.929412e-05 5.248888e-06
Ga -3.182223e+00 3.613090e+00 2.440843e+00 1.177628e-04 4.681555e-05 -6.094227e-05
Al -3.174149e+00 3.621380e+00 7.452122e+00 4.563571e-05 1.382671e-05 3.627894e-05
Ga -3.162918e+00 3.622617e+00 -2.690844e+00 6.956134e-05 -2.628921e-05 -7.244431e-05
Al -1.888967e-02 -1.849387e+00 2.408032e+00 -2.114517e-07 6.439284e-05 -1.913026e-07
Al -1.992474e-02 -1.859894e+00 7.484238e+00 5.506646e-06 1.265742e-05 -2.723061e-05
Al -1.064722e-02 -1.833949e+00 -2.694577e+00 -2.529940e-05 1.875218e-05 1.245744e-05
Al -1.817410e-02 1.792986e+00 4.931886e+00 7.381659e-05 2.308211e-05 2.159261e-05
Ga -8.773592e-03 1.784455e+00 -5.235520e+00 -1.261972e-04 3.260224e-05 9.089671e-05
Al -1.150204e-02 1.778322e+00 -1.440486e-01 -1.604975e-06 9.805712e-06 -1.244033e-04
Al 3.151438e+00 -3.690125e+00 4.948665e+00 5.703770e-05 -3.211428e-05 4.498542e-05
Al 3.145669e+00 -3.673452e+00 -5.262986e+00 2.425199e-06 5.638351e-05 1.105628e-04
Ga 3.166399e+00 -3.669971e+00 -1.273401e-01 -7.662563e-05 1.367640e-04 -3.927864e-05
Ga 1.557298e+00 -9.496758e-01 4.947780e+00 -9.166057e-05 1.629719e-04 1.646551e-04
Al 1.566703e+00 -9.478473e-01 -5.259187e+00 2.739109e-05 -4.855194e-05 4.720323e-05
Al 1.562553e+00 -9.397490e-01 -1.438061e-01 1.025299e-05 5.629190e-05 1.539265e-04
Al 3.137147e+00 1.782646e+00 4.925211e+00 4.233037e-05 4.808189e-05 -5.389741e-06
Al 3.132217e+00 1.759911e+00 -5.258820e+00 -1.965462e-05 7.740155e-05 -1.766002e-05
Al 3.121397e+00 1.774527e+00 -1.106258e-01 -4.093432e-05 -3.766282e-05 1.656347e-04
Al 6.292778e+00 -3.692277e+00 4.943676e+00 4.026406e-05 5.809490e-06 -1.164154e-05
Ga 6.283515e+00 -3.676360e+00 -5.260834e+00 7.876539e-05 4.813897e-05 1.401914e-04
Al 6.293210e+00 -3.699537e+00 -1.233954e-01 9.063208e-06 -2.976196e-05 -5.893758e-05
Al 4.720163e+00 -9.502892e-01 4.956210e+00 -2.539178e-05 -5.013516e-06 -3.884902e-05
Al 4.709718e+00 -9.536228e-01 -5.277903e+00 3.163840e-05 -4.009269e-05 2.186679e-06
Al 4.705074e+00 -9.532285e-01 -1.285776e-01 -3.015802e-05 6.042858e-05 1.533986e-04
Al -3.190353e+00 1.777384e+00 4.942112e+00 -1.225637e-05 2.809296e-05 -2.851429e-05
Ga -3.192583e+00 1.780239e+00 -5.262824e+00 -8.072547e-06 -1.759878e-07 2.462343e-05
Ga -3.176764e+00 1.757268e+00 -1.168819e-01 1.994069e-05 1.929821e-05 7.151572e-06
Al -3.124205e-02 -3.686199e+00 4.945852e+00 7.233097e-05 5.569139e-05 -2.924611e-05
Ga -1.290530e-02 -3.671840e+00 -5.257776e+00 -4.399303e-05 6.793367e-05 3.620973e-05
Ga -4.251120e-02 -3.670177e+00 -1.224556e-01 9.141408e-05 -5.696536e-05 -7.827801e-05
Al -1.605124e+00 -9.564487e-01 4.939688e+00 -3.502122e-05 7.863453e-05 9.236617e-05
Al -1.600438e+00 -9.560246e-01 -5.247957e+00 -4.335069e-05 -6.599414e-05 1.488441e-04
Al -1.590270e+00 -9.434995e-01 -1.336674e-01 -1.870138e-04 -1.701953e-05 -2.659789e-04
N 1.554459e+00 9.166777e-01 4.299389e+00 -9.190805e-05 -8.652656e-05 -1.540497e-04
N 1.594279e+00 8.510186e-01 -5.885610e+00 2.775615e-05 -1.972993e-06 -2.711222e-05
N 1.562443e+00 8.712916e-01 -7.441132e-01 6.641956e-05 6.320274e-05 -2.652800e-05
N -2.193670e-02 3.608879e+00 4.335889e+00 -5.095162e-05 -2.164765e-05 -6.799048e-05
N -6.665827e-02 3.629246e+00 -5.910988e+00 1.828558e-05 -3.665187e-05 -1.205268e-04
N 1.687273e-02 3.586400e+00 -7.649332e-01 3.114512e-06 -7.701263e-05 2.210074e-06
N 3.179287e+00 -1.883536e+00 4.327178e+00 1.756183e-04 5.809244e-05 -2.115788e-05
N 3.136579e+00 -1.865214e+00 -5.867395e+00 -4.188914e-05 -7.461795e-06 2.457428e-05
N 3.136971e+00 -1.813757e+00 -7.903817e-01 2.989717e-05 -3.850338e-05 1.160159e-06
N -4.768132e+00 8.651182e-01 4.337331e+00 9.800878e-05 -7.405749e-05 -4.126176e-05
N -4.808413e+00 8.500179e-01 -5.893392e+00 -1.324580e-05 2.915061e-06 -8.451343e-05
N -4.812079e+00 8.497505e-01 -7.128048e-01 9.193088e-06 2.579680e-05 7.303233e-05
N -6.349411e+00 3.610030e+00 4.349191e+00 4.862705e-05 3.121296e-06 -2.792976e-05
N -6.344925e+00 3.561898e+00 -5.847917e+00 -4.335163e-05 -1.471193e-04 -1.019133e-04
N -6.387039e+00 3.578521e+00 -7.077431e-01 -5.933462e-05 2.927271e-05 1.206775e-04
N -3.186804e+00 -1.863688e+00 4.383738e+00 -1.275239e-04 6.414569e-05 1.175886e-05
N -3.178545e+00 -1.810577e+00 -5.890392e+00 -7.624132e-05 -1.475826e-05 -5.027937e-05
N -3.183157e+00 -1.862017e+00 -6.802531e-01 1.142010e-04 9.838301e-05 4.908779e-06
N -1.598390e+00 8.710762e-01 4.348454e+00 2.694894e-05 -6.360872e-05 -5.943488e-05
N -1.596680e+00 8.280578e-01 -5.851313e+00 9.130710e-05 2.393106e-04 -5.013337e-05
N -1.558670e+00 8.477385e-01 -7.690822e-01 4.349830e-05 -3.750972e-05 2.036043e-05
N -3.182317e+00 3.613187e+00 4.412200e+00 -9.839352e-05 -6.017869e-05 2.987932e-05
N -3.139484e+00 3.637634e+00 -5.905836e+00 1.927751e-05 -3.332157e-05 -8.543520e-05
N -3.179513e+00 3.612480e+00 -7.262792e-01 1.810536e-05 -4.459071e-05 2.275061e-04
N -6.128949e-02 -1.882134e+00 4.315672e+00 1.082790e-04 -1.850174e-04 -7.896708e-05
N -2.290878e-02 -1.808714e+00 -5.879860e+00 2.729341e-05 -8.782675e-05 -6.754738e-05
N -1.768675e-02 -1.809329e+00 -7.734516e-01 -1.462237e-05 2.079076e-05 1.460673e-04
N -2.673279e-02 1.787105e+00 1.787673e+00 -2.153721e-05 -9.718956e-05 1.482794e-04
N 2.524962e-02 1.807013e+00 6.846179e+00 -5.416139e-05 -7.233969e-05 -4.391563e-05
N -1.559353e-02 1.786997e+00 -3.247908e+00 2.788559e-06 -2.060664e-05 4.387899e-05
N 3.185409e+00 -3.662622e+00 1.844807e+00 -6.139473e-05 -5.382236e-05 -9.318265e-06
N 3.143521e+00 -3.682734e+00 6.862884e+00 -1.717994e-05 6.663475e-05 -3.597510e-06
N 3.186866e+00 -3.664946e+00 -3.335366e+00 -1.087164e-04 2.773035e-05 -1.151210e-04
N 1.560617e+00 -9.548319e-01 1.790321e+00 -7.151749e-05 -1.885275e-05 -2.285943e-04
N 1.560166e+00 -9.541887e-01 6.925192e+00 -6.899559e-05 -1.049622e-04 -5.301635e-05
N 1.559394e+00 -9.464843e-01 -3.321221e+00 -7.065735e-05 6.908404e-05 -1.458710e-04
N 3.137599e+00 1.785505e+00 1.810882e+00 1.350864e-05 -9.515421e-06 -1.249703e-04
N 3.133989e+00 1.730802e+00 6.834583e+00 -1.647585e-05 -5.140157e-05 -5.795786e-05
N 3.090163e+00 1.755019e+00 -3.347447e+00 -1.274599e-04 -7.654143e-05 4.453598e-06
N 6.296578e+00 -3.740658e+00 1.792186e+00 2.712011e-05 -8.484096e-05 1.401276e-04
N 6.256125e+00 -3.666384e+00 6.855741e+00 9.828355e-06 6.058694e-05 -3.542969e-05
N 6.252915e+00 -3.707054e+00 -3.290722e+00 -1.745319e-05 -3.025252e-05 -5.665262e-05
N 4.672205e+00 -9.287148e-01 1.782846e+00 -1.174401e-04 -1.975276e-04 -7.424325e-05
N 4.713294e+00 -9.544706e-01 6.875740e+00 -9.847812e-05 -7.230878e-05 -1.089958e-04
N 4.682683e+00 -9.776745e-01 -3.361339e+00 -1.080416e-04 3.520008e-05 -1.085100e-04
N -3.180725e+00 1.732333e+00 1.858955e+00 -1.303744e-05 -2.107292e-05 -3.856480e-05
N -3.229192e+00 1.802825e+00 6.857895e+00 -6.197995e-05 -1.249967e-05 1.339097e-06
N -3.145166e+00 1.758142e+00 -3.285823e+00 6.220899e-05 -2.319707e-05 -1.579089e-05
N -6.701897e-02 -3.664135e+00 1.850312e+00 -5.423455e-05 -1.360407e-05 5.568082e-06
N 1.460526e-02 -3.658775e+00 6.859225e+00 4.118499e-05 1.342415e-05 -3.089263e-05
N -2.418630e-02 -3.636968e+00 -3.281911e+00 1.323989e-05 -1.750725e-05 1.175548e-05
N -1.558983e+00 -9.229696e-01 1.780563e+00 1.401282e-04 -7.878997e-06 2.769137e-04
N -1.598481e+00 -1.003964e+00 6.845642e+00 -2.593742e-05 6.627039e-06 -4.704827e-05
N -1.564449e+00 -9.318748e-01 -3.325402e+00 4.075481e-05 -6.778525e-06 -1.229039e-04
