108
Energy=-2.450786e+06 Lattice="9.644492e+00 0.000000e+00 0.000000e+00 -4.820530e+00 8.349298e+00 0.000000e+00 4.195700e-03 -1.426864e-03 1.564670e+01" Stress="-8.229428e-05 1.992252e-04 3.788246e-04 1.949103e-04 -4.613000e-04 1.172960e-05 3.701105e-04 1.292166e-05 -8.684665e-05" Properties=species:S:1:pos:R:3:forces:R:3 Config_type=AlGaN_super3_44_2_11.xyz
Al 1.575587e+00 8.880371e-01 2.460960e+00 -3.771197e-04 -4.103184e-04 -6.672429e-05
Al 1.594849e+00 8.870215e-01 7.672824e+00 -4.726107e-05 5.520561e-05 5.632884e-05
Ga 1.576753e+00 8.959277e-01 -2.752267e+00 4.268112e-05 1.562452e-04 4.877096e-05
Al -1.060847e-02 3.661846e+00 2.475737e+00 -4.830624e-04 -2.364660e-04 -1.120029e-04
Ga -7.665365e-03 3.666815e+00 7.665580e+00 -8.589347e-05 7.763062e-05 -3.726032e-05
Al -2.429345e-02 3.667233e+00 -2.756608e+00 5.357829e-05 2.136138e-04 9.047333e-05
Ga 3.191575e+00 -1.892034e+00 2.453620e+00 -6.239660e-04 -3.007526e-04 -1.196743e-04
Ga 3.191292e+00 -1.881746e+00 7.670739e+00 -6.722931e-05 1.085179e-04 2.277460e-05
Ga 3.196405e+00 -1.900456e+00 -2.743210e+00 -9.462276e-05 2.302182e-04 4.272681e-04
Ga -4.854232e+00 8.792188e-01 2.458272e+00 -2.623538e-04 -4.858500e-04 -3.033771e-05
Al -4.848059e+00 8.912079e-01 7.684290e+00 -2.043962e-05 5.338692e-06 6.910914e-05
Ga -4.844573e+00 8.859443e-01 -2.755341e+00 2.213366e-05 2.117593e-04 -3.066725e-04
Ga -6.465320e+00 3.668987e+00 2.473768e+00 -4.362613e-04 -2.823154e-04 5.684724e-05
Ga -6.460283e+00 3.659755e+00 7.659395e+00 -9.854273e-06 8.113644e-05 1.589100e-05
Ga -6.463076e+00 3.666971e+00 -2.752609e+00 9.933459e-05 2.565017e-04 1.438285e-04
Ga -3.242466e+00 -1.906562e+00 2.460110e+00 -3.570494e-04 -7.865915e-05 6.733097e-05
Ga -3.233977e+00 -1.896955e+00 7.675704e+00 -7.039898e-05 1.181553e-04 -2.724080e-06
Ga -3.242308e+00 -1.896931e+00 -2.753142e+00 5.438197e-05 2.125772e-04 -2.092311e-05
Ga -1.610034e+00 8.899748e-01 2.464970e+00 -3.919016e-04 -3.609786e-04 4.978326e-06
Ga -1.630292e+00 8.852835e-01 7.691002e+00 8.499267e-05 1.404951e-04 7.922690e-06
Ga -1.632652e+00 8.916252e-01 -2.775494e+00 1.358436e-04 2.183500e-04 -7.762970e-05
Ga -3.230502e+00 3.675790e+00 2.463085e+00 -3.873331e-04 -2.895660e-04 -2.774820e-05
Ga -3.236616e+00 3.660018e+00 7.687034e+00 8.546509e-05 1.397557e-04 2.198222e-05
Ga -3.231860e+00 3.661901e+00 -2.763253e+00 1.749917e-04 3.238161e-04 4.812546e-05
Al -1.703735e-02 -1.888499e+00 2.464501e+00 -4.236939e-04 -3.075130e-04 1.521762e-05
Ga -1.958279e-02 -1.882088e+00 7.686653e+00 6.726834e-05 1.178129e-04 -1.437512e-05
Ga -3.231093e-02 -1.891763e+00 -2.763313e+00 1.612534e-04 3.577704e-04 6.683391e-05
Ga -4.837009e-03 1.822899e+00 5.063940e+00 -1.625903e-04 1.376216e-04 1.581869e-05
Ga -3.083547e-02 1.810137e+00 -5.369355e+00 -7.319025e-05 6.339338e-05 4.498508e-06
Ga -1.783480e-02 1.830309e+00 -1.344261e-01 -6.657289e-04 -6.578811e-04 2.234745e-04
Ga 3.209671e+00 -3.754097e+00 5.056893e+00 -1.181458e-04 -3.351665e-05 2.387276e-05
Ga 3.190547e+00 -3.759026e+00 -5.352010e+00 -1.346544e-04 2.298920e-05 8.040962e-05
Ga 3.211079e+00 -3.750364e+00 -1.423290e-01 -8.666691e-04 -3.372892e-04 1.673091e-04
Ga 1.580167e+00 -9.590756e-01 5.058508e+00 -1.567394e-04 1.788084e-04 -6.425274e-05
Ga 1.574911e+00 -9.601853e-01 -5.369326e+00 -1.171276e-04 1.454850e-04 4.630485e-05
Ga 1.588932e+00 -9.621860e-01 -1.263077e-01 -7.543869e-04 -7.111050e-04 9.131704e-05
Ga 3.184607e+00 1.811077e+00 5.077402e+00 1.340448e-04 1.152793e-04 9.924942e-05
Ga 3.198738e+00 1.809615e+00 -5.386049e+00 1.656107e-05 9.891482e-05 -5.765680e-05
Ga 3.197765e+00 1.808289e+00 -1.328236e-01 -8.365872e-04 -5.529467e-04 3.201444e-04
Al 6.400938e+00 -3.752506e+00 5.055133e+00 1.565661e-05 1.604829e-04 1.058193e-04
Ga 6.404843e+00 -3.743155e+00 -5.349411e+00 1.214017e-05 1.250237e-04 2.309262e-05
Ga 6.392693e+00 -3.746191e+00 -1.461562e-01 -7.830245e-04 -5.831318e-04 1.733632e-04
Ga 4.808771e+00 -9.707439e-01 5.086386e+00 4.633506e-05 3.057787e-04 1.565209e-05
Ga 4.811773e+00 -9.537614e-01 -5.378120e+00 5.122983e-05 1.890046e-04 -2.639469e-05
Al 4.802255e+00 -9.647087e-01 -1.469778e-01 -7.714727e-04 -6.810197e-04 2.416117e-04
Ga -3.238460e+00 1.812391e+00 5.083004e+00 -1.040477e-04 8.360552e-05 4.207435e-06
Al -3.242772e+00 1.803272e+00 -5.374621e+00 2.210266e-07 9.857308e-05 -2.539361e-05
Ga -3.240236e+00 1.808255e+00 -1.473589e-01 -4.929302e-04 -5.360838e-04 4.907692e-04
Ga -2.877772e-02 -3.742246e+00 5.064179e+00 5.181456e-05 1.134739e-04 9.086371e-05
Ga -2.731278e-02 -3.749595e+00 -5.368304e+00 3.242150e-05 8.669723e-05 7.586110e-05
Ga -2.231155e-02 -3.743073e+00 -1.335596e-01 -6.465980e-04 -6.091501e-04 3.154193e-04
Ga -1.627742e+00 -9.787379e-01 5.057745e+00 -1.037875e-04 2.195037e-04 -1.955832e-05
Al -1.639038e+00 -9.595888e-01 -5.364256e+00 1.143383e-05 1.633136e-04 4.771768e-05
Ga -1.635553e+00 -9.660728e-01 -1.332765e-01 -4.713776e-04 -4.697732e-04 3.152117e-04
N 1.588341e+00 8.905155e-01 4.377461e+00 -4.874946e-05 -4.003750e-04 -2.816319e-04
N 1.580493e+00 8.900519e-01 -6.054845e+00 1.823992e-05 -2.267793e-04 -3.147099e-04
N 1.582436e+00 8.899831e-01 -7.759257e-01 4.616728e-04 2.278536e-04 -7.666565e-05
N 2.433947e-02 3.691947e+00 4.400336e+00 8.931616e-05 -7.054981e-05 -1.810161e-04
N -1.911312e-02 3.674272e+00 -6.007219e+00 -1.206584e-05 -1.004541e-04 -2.003841e-05
N -2.195995e-02 3.667678e+00 -8.403847e-01 5.232235e-04 3.379074e-04 -3.102064e-04
N 3.198120e+00 -1.889418e+00 4.434493e+00 -1.348438e-04 -1.761448e-04 5.067661e-05
N 3.189451e+00 -1.896251e+00 -5.996720e+00 -4.642291e-05 -1.118555e-04 -1.177258e-04
N 3.229143e+00 -1.870845e+00 -7.509532e-01 7.896879e-04 4.965721e-04 -2.479881e-05
N -4.844676e+00 8.856035e-01 4.433929e+00 -4.967399e-05 -3.272080e-04 -7.917567e-05
N -4.805174e+00 9.145353e-01 -6.040676e+00 1.756918e-04 -8.036430e-05 -1.508937e-04
N -4.845976e+00 8.411755e-01 -7.689314e-01 4.076169e-04 1.853825e-04 1.055136e-04
N -6.491415e+00 3.691017e+00 4.461890e+00 -3.622776e-04 -1.020138e-04 1.801396e-05
N -6.460400e+00 3.675309e+00 -6.008312e+00 -1.045854e-05 -9.052365e-05 2.559313e-06
N -6.452853e+00 3.669987e+00 -7.697390e-01 5.812699e-04 3.707203e-04 -1.557322e-04
N -3.241165e+00 -1.941330e+00 4.446467e+00 -3.526661e-05 -4.342393e-04 6.249193e-05
N -3.195286e+00 -1.875893e+00 -5.985977e+00 1.641498e-04 1.939048e-05 1.046479e-04
N -3.277157e+00 -1.868651e+00 -7.637993e-01 2.044176e-04 3.349079e-04 4.838759e-05
N -1.625655e+00 8.925269e-01 4.442346e+00 9.599651e-05 -3.042681e-04 4.555951e-05
N -1.673401e+00 8.649471e-01 -5.961090e+00 -6.758783e-05 -3.116789e-04 1.714525e-04
N -1.627004e+00 8.883933e-01 -7.873440e-01 5.402931e-04 3.056609e-04 1.348521e-04
N -3.234651e+00 3.670169e+00 4.439526e+00 7.801152e-05 -1.327487e-04 3.955047e-05
N -3.236921e+00 3.623380e+00 -5.974132e+00 1.469348e-04 -2.403546e-04 8.835651e-05
N -3.236441e+00 3.670912e+00 -7.783827e-01 6.543744e-04 4.199686e-04 2.868813e-05
N -1.877114e-02 -1.893480e+00 4.380526e+00 1.252808e-04 -1.212219e-04 -2.319962e-04
N -6.930076e-02 -1.867279e+00 -5.977951e+00 -5.845485e-05 8.665932e-05 7.102029e-05
N -2.573909e-02 -1.890309e+00 -7.839402e-01 6.569428e-04 5.172937e-04 -6.202140e-05
N 1.895687e-02 1.842840e+00 1.861746e+00 6.260971e-04 5.801275e-04 -2.789916e-04
N 2.164132e-02 1.788661e+00 7.054993e+00 1.340027e-04 -2.470106e-04 9.941023e-05
N -2.283425e-02 1.862921e+00 -3.384117e+00 1.073367e-05 4.509535e-05 1.049480e-04
N 3.240371e+00 -3.781232e+00 1.847833e+00 7.345325e-04 1.673272e-04 -2.540301e-04
N 3.194319e+00 -3.752564e+00 7.037035e+00 -8.032602e-05 -1.431455e-04 2.131420e-05
N 3.231436e+00 -3.773495e+00 -3.366389e+00 1.198466e-04 -2.570289e-04 -7.220115e-06
N 1.540905e+00 -9.452193e-01 1.865014e+00 2.839417e-04 7.027202e-04 2.916606e-05
N 1.582328e+00 -9.176864e-01 7.046809e+00 -7.945815e-05 9.061088e-05 1.755900e-04
N 1.585364e+00 -9.653763e-01 -3.389679e+00 -4.533641e-05 -1.546536e-04 -9.411609e-05
N 3.147609e+00 1.789572e+00 1.849440e+00 4.548535e-04 2.992099e-04 6.837367e-05
N 3.193661e+00 1.762237e+00 7.073731e+00 -3.719010e-05 -2.890576e-04 1.097921e-04
N 3.190390e+00 1.811543e+00 -3.403560e+00 2.944626e-05 -1.754842e-04 9.927945e-05
N 6.359099e+00 -3.780610e+00 1.835986e+00 4.186668e-04 3.440390e-04 1.055863e-04
N 6.404737e+00 -3.747804e+00 6.975960e+00 2.647126e-05 -1.007889e-04 -3.596984e-04
N 6.361596e+00 -3.772937e+00 -3.365998e+00 -1.994521e-04 -2.857099e-04 1.010021e-04
N 4.799412e+00 -9.723155e-01 1.771666e+00 7.798979e-04 9.105313e-04 -4.247726e-04
N 4.804865e+00 -9.182543e-01 7.069894e+00 -1.280153e-05 1.369731e-04 5.180406e-05
N 4.796352e+00 -9.666267e-01 -3.400525e+00 2.919092e-05 -7.389922e-05 -1.517445e-05
N -3.238059e+00 1.810141e+00 1.828645e+00 5.318032e-04 4.031050e-04 -3.758824e-04
N -3.276368e+00 1.789072e+00 7.064630e+00 -1.122304e-04 -1.847988e-04 1.299842e-05
N -3.245909e+00 1.811463e+00 -3.450056e+00 6.422754e-05 -1.515903e-04 -2.239853e-04
N -2.873866e-02 -3.706688e+00 1.855088e+00 6.719104e-04 7.429118e-04 -3.209276e-04
N -2.001000e-02 -3.744964e+00 7.045601e+00 3.771737e-05 -5.406511e-05 -3.379552e-05
N -2.763481e-02 -3.753141e+00 -3.390023e+00 -1.155468e-05 -1.652908e-04 -9.382052e-05
N -1.592873e+00 -9.951021e-01 1.852294e+00 6.011805e-04 5.222699e-04 -2.381740e-04
N -1.627047e+00 -9.669105e-01 7.033042e+00 9.634120e-05 -6.046945e-05 -6.362603e-05
N -1.637356e+00 -9.686261e-01 -3.442809e+00 8.388527e-05 -8.199775e-05 -2.865501e-04
