108
Energy=-6.655404e+05 Lattice="9.460615e+00 0.000000e+00 0.000000e+00 -4.742070e+00 8.186627e+00 0.000000e+00 3.484411e-03 -4.728190e-03 1.520040e+01" Stress="1.113143e-02 2.380966e-03 1.952697e-04 2.374696e-03 1.421194e-02 -1.408083e-04 1.950027e-04 -1.368401e-04 1.149300e-02" Properties=species:S:1:pos:R:3:forces:R:3 Config_type=AlGaN_super3_5_0_4.xyz
Al 1.554267e+00 8.822930e-01 2.412399e+00 2.239006e-04 -7.435532e-03 -2.724949e-03
Al 1.550625e+00 8.791192e-01 7.453328e+00 1.531811e-03 -7.049458e-03 -1.785348e-03
Al 1.551412e+00 8.909511e-01 -2.699934e+00 -8.352209e-04 -7.383877e-03 5.788137e-05
Al -2.824191e-02 3.591962e+00 2.419057e+00 2.744471e-03 -3.411397e-03 3.441893e-04
Al -1.407642e-02 3.596174e+00 7.455269e+00 -6.024048e-04 -5.542244e-04 -4.895285e-04
Al -1.971450e-02 3.600157e+00 -2.723410e+00 -8.408579e-04 -1.682479e-03 4.474628e-03
Al 3.158458e+00 -1.872407e+00 2.419412e+00 -1.774855e-03 1.509637e-03 -2.590521e-03
Al 3.158824e+00 -1.871727e+00 7.454241e+00 -8.372185e-04 5.304547e-04 -4.776054e-04
Al 3.160437e+00 -1.862054e+00 -2.716419e+00 -1.105961e-03 -2.509543e-03 -1.049106e-03
Al -4.773410e+00 8.815658e-01 2.401382e+00 2.902197e-04 -7.083766e-03 -2.054802e-03
Al -4.766261e+00 8.827752e-01 7.460747e+00 -1.219422e-04 -6.836080e-03 -1.419217e-03
Al -4.770242e+00 8.872907e-01 -2.693015e+00 3.716335e-03 -5.867850e-03 -9.917469e-04
Al -6.330778e+00 3.597516e+00 2.410934e+00 -1.761576e-03 -4.564994e-04 3.310952e-04
Al -6.337485e+00 3.604550e+00 7.453223e+00 9.885054e-05 -1.029619e-03 -6.245427e-04
Al -6.335634e+00 3.598413e+00 -2.697852e+00 -2.455967e-04 2.162027e-03 -2.193331e-04
Al -3.167124e+00 -1.865019e+00 2.417538e+00 6.143328e-04 1.947363e-04 -1.600844e-03
Al -3.164252e+00 -1.867713e+00 7.454795e+00 3.853867e-05 7.737240e-04 -4.926152e-04
Al -3.172729e+00 -1.858702e+00 -2.704434e+00 2.599805e-05 -9.285948e-04 6.263081e-04
Al -1.627822e+00 8.839679e-01 2.404043e+00 9.738159e-03 -5.289594e-03 -3.208309e-03
Al -1.632059e+00 8.886083e-01 7.463322e+00 8.959394e-03 -5.058991e-03 -2.146837e-03
Al -1.639281e+00 8.969543e-01 -2.701077e+00 7.514507e-03 -3.178341e-03 -1.940296e-03
Al -3.189311e+00 3.613241e+00 2.409067e+00 1.663780e-03 1.349559e-04 4.672500e-03
Al -3.201828e+00 3.605312e+00 7.462574e+00 6.706263e-03 3.000735e-03 -1.218687e-03
Al -3.206295e+00 3.604222e+00 -2.713336e+00 7.747502e-03 1.771586e-03 -7.555918e-02
Al -2.753832e-02 -1.863257e+00 2.412362e+00 7.215705e-03 4.476064e-03 -3.605004e-03
Al -2.874821e-02 -1.864026e+00 7.457513e+00 6.923303e-03 3.098808e-03 -8.979782e-04
Ga -3.833630e-02 -1.863118e+00 -2.694519e+00 8.552496e-03 2.943679e-03 -2.301645e-03
Al -9.426695e-03 1.782026e+00 4.937965e+00 -6.768865e-03 -1.497631e-03 -8.360324e-04
Al -2.041825e-02 1.785031e+00 -5.229109e+00 -6.777972e-03 -2.090112e-03 -6.051532e-04
Al -1.803199e-02 1.780435e+00 -1.503139e-01 -4.881415e-03 -8.386556e-03 3.257860e-03
Al 3.161076e+00 -3.681267e+00 4.941895e+00 -5.752298e-03 -2.935090e-03 -1.217580e-03
Al 3.156237e+00 -3.679790e+00 -5.230974e+00 -6.439114e-03 -2.116650e-03 -3.038616e-04
Ga 3.110922e+00 -3.716898e+00 -2.183224e-01 9.096870e-04 1.340820e-03 1.309411e-02
Al 1.591948e+00 -9.687330e-01 4.938200e+00 -8.166379e-03 4.793913e-03 -2.945310e-03
Al 1.587219e+00 -9.648679e-01 -5.228722e+00 -8.420997e-03 3.829487e-03 -1.712151e-03
Al 1.585449e+00 -9.629690e-01 -1.940238e-01 -6.852499e-03 6.061372e-03 1.613930e-02
Al 3.120494e+00 1.786584e+00 4.937079e+00 -1.818012e-04 6.716043e-04 6.977419e-04
Ga 3.119596e+00 1.791753e+00 -5.224016e+00 2.228351e-06 -6.002443e-04 5.392798e-04
Al 3.128168e+00 1.785333e+00 -1.578813e-01 -2.331288e-03 -1.449745e-03 3.734801e-03
Al 6.296816e+00 -3.679741e+00 4.935927e+00 -3.620929e-04 -2.673707e-04 -2.443068e-03
Al 6.293787e+00 -3.672313e+00 -5.227357e+00 -7.442704e-04 -5.833583e-04 5.659518e-04
Ga 6.302176e+00 -3.684211e+00 -1.624576e-01 -1.543546e-03 4.254965e-04 1.602717e-02
Al 4.725646e+00 -9.653416e-01 4.939235e+00 -6.624103e-04 6.368601e-03 -2.870581e-04
Al 4.728265e+00 -9.630197e-01 -5.227353e+00 -2.298298e-03 6.777101e-03 -4.412816e-04
Al 4.722375e+00 -9.668075e-01 -1.536864e-01 -1.861088e-03 5.803194e-03 2.751266e-03
Ga -3.199436e+00 1.792090e+00 4.935306e+00 7.727619e-04 -1.258122e-06 2.737929e-04
Al -3.198579e+00 1.793985e+00 -5.226764e+00 4.453657e-04 1.471037e-04 2.045677e-03
Al -3.202086e+00 1.788135e+00 -1.596421e-01 1.573036e-04 1.404058e-03 -6.607717e-03
Al -2.618075e-02 -3.673039e+00 4.936774e+00 -2.031560e-04 -4.805598e-04 8.006918e-04
Al -3.006173e-02 -3.671393e+00 -5.230077e+00 1.031041e-03 1.115943e-03 1.438130e-03
Al 1.475780e-03 -3.683800e+00 -1.734725e-01 -4.363481e-03 5.083662e-04 -8.680033e-04
Al -1.591840e+00 -9.623622e-01 4.937798e+00 -1.575385e-03 6.835350e-03 -5.982156e-04
Al -1.601486e+00 -9.547699e-01 -5.227260e+00 2.692133e-04 6.964650e-03 -1.231729e-03
Al -1.597675e+00 -9.507577e-01 -1.571927e-01 -3.265006e-03 6.462223e-03 5.399192e-03
N 1.553953e+00 8.844214e-01 4.340381e+00 7.633406e-04 -7.880136e-03 -7.011010e-04
N 1.534205e+00 8.760640e-01 -5.831744e+00 -1.021136e-02 -1.362053e-02 -3.562534e-03
N 1.549772e+00 8.877040e-01 -7.719765e-01 1.510847e-03 -8.269584e-03 2.626085e-03
N -1.603933e-02 3.595484e+00 4.340931e+00 -2.024650e-03 -8.426029e-04 1.061043e-03
N -1.698522e-02 3.601494e+00 -5.825864e+00 -2.900124e-05 -5.259216e-04 3.470687e-04
N -1.548957e-02 3.554412e+00 -7.652597e-01 -2.659178e-03 -2.801209e-03 -1.569312e-02
N 3.161369e+00 -1.870513e+00 4.344268e+00 -1.078681e-03 2.622656e-04 -1.612719e-03
N 3.155523e+00 -1.866433e+00 -5.827011e+00 -6.769180e-04 9.153079e-04 1.978990e-05
N 3.152361e+00 -1.863614e+00 -7.917597e-01 -1.155249e-03 1.193446e-02 -7.458400e-04
N -4.786407e+00 8.752029e-01 4.328087e+00 -9.079406e-03 -1.361429e-02 -6.194031e-03
N -4.757054e+00 8.787961e-01 -5.827857e+00 1.222118e-02 -1.357938e-02 -3.352309e-03
N -4.770412e+00 8.801987e-01 -7.645168e-01 1.695016e-03 -7.001478e-03 3.684068e-03
N -6.334954e+00 3.600469e+00 4.336496e+00 1.893367e-03 -5.002694e-04 -4.254963e-05
N -6.341570e+00 3.623426e+00 -5.832622e+00 -4.221457e-04 1.236174e-02 -4.990835e-03
N -6.312045e+00 3.592907e+00 -7.756072e-01 1.035636e-02 -5.750264e-03 -7.809481e-04
N -3.165241e+00 -1.862226e+00 4.339199e+00 -4.438533e-06 1.350484e-03 -1.175868e-06
N -3.168649e+00 -1.863806e+00 -5.825944e+00 1.539057e-04 6.169101e-04 -2.158915e-04
N -3.168589e+00 -1.850253e+00 -7.764837e-01 -1.117138e-04 1.227665e-02 -3.032030e-03
N -1.615230e+00 8.788414e-01 4.328676e+00 1.853758e-02 -1.093230e-02 -4.609156e-03
N -1.635740e+00 8.931719e-01 -5.822350e+00 8.394563e-03 -5.087701e-03 1.996689e-03
N -1.635026e+00 8.938011e-01 -7.721553e-01 7.523355e-03 -4.947874e-03 5.697437e-03
N -3.200545e+00 3.625305e+00 4.332005e+00 6.433751e-03 1.465794e-02 -4.501486e-03
N -3.205114e+00 3.609933e+00 -5.823873e+00 6.868127e-03 1.910835e-03 1.537996e-03
N -3.228213e+00 3.587574e+00 -1.015022e+00 -5.051868e-03 -4.923798e-03 1.202304e-01
N -3.074670e-02 -1.865247e+00 4.339422e+00 6.846781e-03 3.057427e-03 -1.105525e-03
N -3.254775e-02 -1.859066e+00 -5.821728e+00 6.292489e-03 3.560841e-03 2.030232e-04
N -4.132147e-02 -1.857087e+00 -7.396675e-01 1.115070e-02 -3.282551e-05 1.218290e-02
N -1.208407e-02 1.783402e+00 1.793323e+00 -7.337736e-03 -3.594517e-03 -1.423665e-03
N -1.373124e-02 1.782916e+00 6.858715e+00 -7.225833e-03 -2.866490e-03 4.569109e-04
N -1.689457e-02 1.786908e+00 -3.308863e+00 -6.059924e-03 -3.966056e-03 1.631901e-03
N 3.154480e+00 -3.694590e+00 1.846395e+00 -1.030643e-02 -5.205832e-04 -1.116251e-02
N 3.159920e+00 -3.686060e+00 6.861618e+00 -7.087431e-03 -2.441808e-03 9.395972e-04
N 3.155304e+00 -3.679605e+00 -3.314455e+00 -3.956553e-03 -5.600841e-04 5.763132e-04
N 1.592239e+00 -9.675524e-01 1.837404e+00 -7.563768e-03 4.194708e-03 -1.504317e-02
N 1.591094e+00 -9.699115e-01 6.858496e+00 -8.164995e-03 4.406640e-03 1.611170e-03
N 1.603304e+00 -9.530734e-01 -3.307886e+00 6.066756e-04 1.054822e-02 -4.790898e-04
N 3.122399e+00 1.788193e+00 1.790986e+00 1.064865e-03 -2.302272e-04 -3.810911e-03
N 3.124476e+00 1.787807e+00 6.860425e+00 4.429387e-04 -7.405474e-04 -1.180928e-03
N 3.122109e+00 1.791297e+00 -3.281019e+00 1.400758e-04 -1.579396e-03 1.423514e-02
N 6.284694e+00 -3.689171e+00 1.876555e+00 3.663770e-03 2.247696e-03 -9.566871e-03
N 6.296635e+00 -3.680410e+00 6.855907e+00 -4.112031e-04 2.451806e-04 -4.629113e-04
N 6.295910e+00 -3.676825e+00 -3.304323e+00 3.774080e-04 1.443817e-04 1.963263e-03
N 4.726050e+00 -9.709044e-01 1.791724e+00 -1.324649e-03 7.544131e-03 -1.778001e-03
N 4.729206e+00 -9.644063e-01 6.858768e+00 -1.379752e-03 7.126236e-03 6.054263e-04
N 4.726303e+00 -9.582503e-01 -3.305741e+00 -1.595666e-03 7.656270e-03 1.642893e-03
N -3.196369e+00 1.792870e+00 1.800282e+00 -5.435859e-05 4.116673e-03 -1.092276e-02
N -3.198437e+00 1.791471e+00 6.878144e+00 1.011370e-03 -2.577857e-04 1.248012e-02
N -3.202946e+00 1.794217e+00 -3.303676e+00 1.416597e-04 -4.467106e-03 -5.073416e-03
N -2.177233e-02 -3.675131e+00 1.793275e+00 5.167069e-03 -3.935291e-03 -1.035076e-02
N -2.590827e-02 -3.676765e+00 6.858474e+00 1.129645e-03 2.332867e-04 -8.449891e-04
N -3.172390e-02 -3.693504e+00 -3.312556e+00 -2.098274e-03 -9.377283e-03 -8.731778e-03
N -1.594944e+00 -9.670670e-01 1.791650e+00 -2.180641e-03 8.231314e-03 -1.544427e-03
N -1.594474e+00 -9.605824e-01 6.860087e+00 -7.529914e-04 7.549698e-03 5.137846e-04
N -1.616970e+00 -9.464976e-01 -3.308277e+00 -1.069819e-02 1.375678e-02 -2.501927e-03
