108
Energy=-1443724.835642 Lattice="9.514092 0.000000 0.000000 -4.757198 8.238273 0.000000 0.004331 0.006085 15.362651" Stress="-0.000002 -0.000001 0.000000 -0.000001 -0.000004 0.000001 0.000000 0.000001 -0.000003" Properties=species:S:1:pos:R:3:forces:R:3
Al 1.566638 0.897947 2.427971 0.000036 0.000035 0.000053
Al 1.547134 0.887986 7.561919 0.000090 -0.000109 -0.000025
Al 1.549492 0.882723 -2.754550 -0.000153 -0.000355 0.000205
Al -0.018905 3.621745 2.408207 0.000087 0.000094 0.000108
Al -0.034012 3.598881 7.521953 0.000084 0.000097 -0.000040
Al -0.014376 3.603043 -2.693229 -0.000107 -0.000069 0.000219
Ga 3.168134 -1.877516 2.419301 -0.000101 0.000050 0.000052
Ga 3.151949 -1.864715 7.529848 -0.000020 0.000039 0.000029
Ga 3.141597 -1.868829 -2.704731 -0.000124 0.000035 0.000144
Al -4.778208 0.880254 2.398228 -0.000069 0.000244 0.000202
Al -4.774494 0.879194 7.555713 -0.000332 -0.000025 -0.000175
Ga -4.779974 0.884666 -2.714106 0.000141 0.000036 0.000066
Al -6.369672 3.621537 2.416689 0.000043 -0.000193 0.000038
Ga -6.346406 3.620726 7.543272 -0.000034 0.000014 0.000016
Al -6.375804 3.615471 -2.721122 0.000429 0.000239 -0.000032
Al -3.197238 -1.871504 2.384625 0.000238 0.000040 -0.000045
Ga -3.197115 -1.855269 7.544683 -0.000099 0.000011 0.000024
Ga -3.188116 -1.879179 -2.686910 -0.000024 0.000092 0.000134
Ga -1.610394 0.884767 2.410541 0.000047 -0.000136 0.000025
Al -1.592626 0.898823 7.538945 -0.000067 -0.000178 0.000168
Al -1.599689 0.883965 -2.713648 -0.000176 -0.000202 -0.000076
Al -3.191915 3.616733 2.410109 -0.000059 -0.000148 0.000015
Al -3.195089 3.623222 7.538762 -0.000028 -0.000048 -0.000082
Ga -3.195076 3.610576 -2.712634 -0.000005 -0.000048 -0.000047
Ga -0.033231 -1.875670 2.416611 -0.000015 -0.000150 -0.000072
Al -0.010825 -1.873323 7.547316 0.000036 -0.000177 0.000185
Al -0.024285 -1.865198 -2.720181 0.000030 0.000154 0.000252
Al -0.019602 1.805981 4.983555 0.000050 -0.000114 -0.000041
Al -0.026332 1.787737 -5.264095 -0.000134 -0.000008 -0.000098
Ga -0.030114 1.798057 -0.163627 0.000024 0.000014 -0.000018
Al 3.149416 -3.713486 4.975832 -0.000243 -0.000116 -0.000131
Ga 3.143461 -3.712314 -5.278694 -0.000020 0.000075 0.000038
Al 3.162158 -3.711276 -0.140405 0.000027 0.000162 -0.000078
Ga 1.565124 -0.948112 4.994338 -0.000176 0.000123 0.000010
Al 1.555575 -0.948287 -5.277326 -0.000083 -0.000223 0.000067
Ga 1.563883 -0.952242 -0.152470 -0.000162 0.000096 -0.000078
Ga 3.151069 1.785289 4.975157 0.000068 -0.000007 0.000090
Al 3.149074 1.777604 -5.275360 -0.000000 0.000116 0.000066
Ga 3.146890 1.792906 -0.138139 -0.000001 0.000058 -0.000144
Ga 6.308017 -3.698402 4.952413 0.000064 -0.000015 0.000024
Ga 6.312936 -3.720841 -5.257426 0.000030 0.000034 0.000037
Al 6.311383 -3.696382 -0.138571 0.000224 0.000049 -0.000044
Al 4.741770 -0.949566 4.959067 0.000149 0.000088 0.000261
Al 4.722539 -0.935841 -5.266111 -0.000052 -0.000043 0.000150
Al 4.750086 -0.958372 -0.130543 -0.000079 0.000011 -0.000085
Ga -3.199332 1.805100 4.987357 -0.000030 -0.000055 -0.000007
Al -3.200437 1.786560 -5.299138 0.000069 0.000105 -0.000165
Al -3.189669 1.784849 -0.134788 0.000128 -0.000230 -0.000030
Al -0.005364 -3.703645 4.972374 -0.000139 -0.000146 0.000030
Al -0.017694 -3.706519 -5.260636 0.000190 0.000078 0.000200
Ga -0.027932 -3.704832 -0.151978 -0.000010 0.000044 0.000059
Ga -1.610641 -0.954229 4.996476 -0.000116 -0.000076 0.000049
Ga -1.595515 -0.942351 -5.267956 0.000021 -0.000006 0.000060
Al -1.622260 -0.950717 -0.167036 -0.000015 -0.000279 0.000249
N 1.518985 0.904218 4.334502 0.000012 0.000045 -0.000048
N 1.552652 0.879445 -5.871720 0.000020 -0.000047 0.000024
N 1.564526 0.877786 -0.845247 0.000089 0.000079 -0.000080
N -0.067347 3.598136 4.330854 -0.000073 0.000008 -0.000012
N -0.025743 3.566894 -5.933078 -0.000026 -0.000251 0.000129
N -0.020307 3.669037 -0.777840 0.000083 0.000020 0.000049
N 3.192024 -1.896785 4.405495 -0.000058 -0.000076 -0.000095
N 3.147833 -1.825187 -5.853343 -0.000014 0.000028 -0.000027
N 3.193368 -1.893829 -0.720182 0.000003 -0.000150 0.000062
N -4.774875 0.834774 4.311655 0.000029 -0.000073 -0.000173
N -4.784685 0.871242 -5.884799 0.000028 0.000030 -0.000008
N -4.740261 0.853854 -0.731167 0.000108 -0.000029 0.000019
N -6.321335 3.646691 4.333363 0.000010 0.000173 0.000026
N -6.321769 3.597258 -5.845395 -0.000070 -0.000268 0.000043
N -6.410378 3.641985 -0.802100 -0.000216 0.000023 -0.000062
N -3.227376 -1.841409 4.307002 -0.000105 0.000043 -0.000120
N -3.238228 -1.849656 -5.852166 -0.000069 0.000054 -0.000090
N -3.197846 -1.874572 -0.705053 -0.000048 -0.000108 0.000039
N -1.569670 0.902642 4.384030 0.000104 0.000097 -0.000053
N -1.602624 0.926172 -5.907298 0.000054 0.000247 -0.000109
N -1.653974 0.858102 -0.786969 -0.000128 0.000433 -0.000233
N -3.189681 3.668932 4.334640 0.000139 0.000117 0.000029
N -3.241841 3.600849 -5.904779 -0.000044 -0.000093 0.000044
N -3.152324 3.593699 -0.734195 0.000005 0.000059 0.000041
N -0.024135 -1.911881 4.381763 0.000124 -0.000047 -0.000032
N 0.017101 -1.905838 -5.896863 0.000150 0.000354 -0.000211
N -0.060958 -1.848456 -0.803521 0.000108 -0.000072 -0.000233
N 0.021316 1.815635 1.811059 -0.000021 0.000013 -0.000042
N -0.014702 1.792179 6.908329 -0.000013 -0.000038 0.000010
N -0.031053 1.795834 -3.332579 -0.000037 0.000011 -0.000004
N 3.151590 -3.751907 1.779874 -0.000049 -0.000077 -0.000149
N 3.147820 -3.750836 6.902697 -0.000020 -0.000061 0.000078
N 3.193992 -3.730907 -3.310760 -0.000080 0.000094 -0.000119
N 1.566105 -0.902518 1.822032 -0.000089 0.000091 0.000026
N 1.522992 -0.919090 6.968856 -0.000009 0.000126 0.000009
N 1.519901 -0.936780 -3.353390 0.000036 0.000238 -0.000086
N 3.145268 1.795578 1.849117 0.000079 -0.000187 -0.000085
N 3.147803 1.740833 6.960581 0.000170 -0.000130 0.000044
N 3.110520 1.810858 -3.354170 0.000143 0.000102 -0.000311
N 6.320107 -3.705838 1.799411 -0.000011 0.000062 -0.000021
N 6.281869 -3.722251 6.929802 0.000017 -0.000023 -0.000078
N 6.311706 -3.751220 -3.286421 0.000135 0.000040 -0.000058
N 4.773970 -0.927417 1.778967 0.000041 -0.000175 0.000012
N 4.740524 -0.897156 6.872246 0.000045 0.000109 -0.000114
N 4.735562 -0.954842 -3.366782 -0.000067 -0.000019 -0.000046
N -3.232261 1.816528 1.782886 0.000060 0.000198 -0.000057
N -3.197432 1.794321 6.978044 0.000071 0.000164 0.000080
N -3.153723 1.764398 -3.383977 0.000236 -0.000150 0.000356
N -0.023263 -3.749698 1.821568 -0.000117 0.000084 0.000007
N 0.024446 -3.675846 6.894004 0.000067 0.000050 -0.000078
N -0.062042 -3.678350 -3.336675 -0.000269 -0.000416 -0.000055
N -1.643344 -0.971297 1.748965 -0.000191 -0.000066 -0.000021
N -1.562968 -0.927258 6.975335 0.000032 0.000115 -0.000101
N -1.570279 -0.928683 -3.290026 -0.000002 0.000178 0.000077
