108
Energy=-1.718377e+06 Lattice="9.554942e+00 0.000000e+00 0.000000e+00 -4.804761e+00 8.272396e+00 0.000000e+00 -5.973940e-02 -1.160417e-01 1.538936e+01" Stress="-1.379290e-03 -1.377242e-03 -2.021617e-03 -1.383300e-03 -1.693273e-04 -4.302703e-03 -2.008106e-03 -4.302979e-03 -8.302706e-03" Properties=species:S:1:pos:R:3:forces:R:3 Config_type=AlGaN_super3_28_0_5.xyz
Al 1.527253e+00 8.071379e-01 2.430612e+00 9.437446e-04 3.395679e-03 2.797795e-03
Al 1.515459e+00 8.073596e-01 7.536126e+00 2.410936e-03 7.509613e-04 -2.039559e-03
Al 1.587856e+00 9.144959e-01 -2.721087e+00 2.077116e-03 3.354328e-03 1.484469e-03
Al -5.779266e-02 3.591060e+00 2.406391e+00 1.308977e-03 -2.562889e-04 4.932638e-03
Al -6.851351e-02 3.565218e+00 7.536967e+00 3.597599e-05 6.297314e-04 2.030275e-03
Ga -3.454441e-03 3.668789e+00 -2.717269e+00 3.937443e-04 1.018691e-03 1.606097e-03
Al 3.135746e+00 -1.932805e+00 2.455389e+00 6.968813e-04 -4.500303e-04 2.338080e-03
Ga 3.131422e+00 -1.927062e+00 7.515589e+00 -1.911144e-03 -9.061353e-04 3.784964e-04
Al 3.192731e+00 -1.825602e+00 -2.732683e+00 2.902855e-03 -1.927539e-03 2.393293e-03
Ga -4.851391e+00 8.176416e-01 2.392888e+00 2.926972e-03 3.466418e-03 5.812146e-03
Al -4.836155e+00 7.997947e-01 7.567593e+00 -1.287481e-03 4.063053e-03 1.888007e-03
Ga -4.770830e+00 9.333218e-01 -2.739154e+00 2.198066e-03 6.616877e-04 4.954446e-05
Ga -6.458174e+00 3.581955e+00 2.427040e+00 1.123601e-03 3.250675e-04 3.996946e-03
Ga -6.447412e+00 3.579696e+00 7.544964e+00 2.147327e-03 -1.174475e-04 -1.008348e-03
Al -6.381489e+00 3.682561e+00 -2.737990e+00 1.051202e-03 5.742654e-04 2.971756e-03
Ga -3.245547e+00 -1.939218e+00 2.444410e+00 1.788725e-03 9.576929e-04 2.221022e-03
Ga -3.232607e+00 -1.922706e+00 7.546504e+00 -1.217114e-03 -2.527619e-03 6.782382e-04
Ga -3.169071e+00 -1.835799e+00 -2.741590e+00 -3.676167e-04 -3.960339e-04 3.880209e-03
Ga -1.651861e+00 8.384373e-01 2.416287e+00 6.215226e-04 1.229982e-03 4.575726e-03
Al -1.656396e+00 8.106513e-01 7.557291e+00 1.576839e-03 2.915269e-03 -2.994780e-03
Al -1.591450e+00 9.346269e-01 -2.741030e+00 -3.167916e-03 4.530388e-04 4.237152e-03
Ga -3.241289e+00 3.597778e+00 2.429533e+00 1.397786e-04 -7.474274e-04 2.330253e-03
Ga -3.258076e+00 3.566179e+00 7.554888e+00 -1.018188e-03 3.599481e-03 -9.672215e-04
Al -3.191255e+00 3.679950e+00 -2.744972e+00 -2.104313e-03 -3.421813e-03 2.539233e-03
Ga -3.728284e-02 -1.916144e+00 2.446414e+00 -2.117523e-04 -1.011321e-03 2.284258e-03
Al -7.427436e-02 -1.898764e+00 7.628974e+00 9.307857e-03 -9.144503e-03 -3.811371e-02
Ga 2.240552e-02 -1.818184e+00 -2.736603e+00 -1.102114e-03 -3.091214e-03 2.990401e-03
Ga -6.413888e-02 1.734607e+00 4.992567e+00 1.190795e-03 3.705569e-03 1.295248e-03
Ga -1.544812e-02 1.832124e+00 -5.298914e+00 1.929307e-03 3.348772e-03 2.827214e-03
Ga -5.332094e-03 1.829736e+00 -1.330765e-01 -1.637707e-03 -1.398653e-03 -7.341733e-03
Al 3.149887e+00 -3.768522e+00 4.978668e+00 1.481886e-03 1.498162e-03 1.228898e-03
Ga 3.203384e+00 -3.669067e+00 -5.275581e+00 -6.421691e-04 3.601730e-04 3.222168e-04
Ga 3.205928e+00 -3.677550e+00 -1.360081e-01 -3.425896e-03 -1.076191e-03 -7.420579e-03
Al 1.538855e+00 -1.026837e+00 4.983914e+00 -4.082994e-04 -1.903886e-03 4.557156e-03
Ga 1.603494e+00 -9.165141e-01 -5.292498e+00 1.433185e-03 1.420582e-03 3.458351e-03
Ga 1.624619e+00 -9.144520e-01 -1.271681e-01 -1.632675e-03 -2.440995e-03 -6.104087e-03
Ga 3.117985e+00 1.724270e+00 5.001140e+00 -2.425028e-04 2.305504e-03 9.197069e-04
Ga 3.191822e+00 1.848927e+00 -5.289069e+00 1.449505e-03 1.077871e-05 1.288472e-03
Ga 3.177333e+00 1.849911e+00 -1.502654e-01 -2.199833e-03 -1.752292e-03 -8.011304e-03
Al 6.313283e+00 -3.762129e+00 4.988512e+00 1.449396e-04 -1.402638e-03 1.033609e-03
Al 6.393703e+00 -3.657025e+00 -5.289336e+00 -1.910162e-03 -8.062916e-04 8.272364e-04
Al 6.379730e+00 -3.692348e+00 -1.420382e-01 2.779293e-03 1.785827e-03 -3.516311e-03
Al 4.727903e+00 -1.019547e+00 4.991697e+00 -1.549181e-03 -3.438508e-03 1.454369e-04
Al 4.801644e+00 -9.075415e-01 -5.284797e+00 -1.201677e-03 1.456101e-04 1.181401e-03
Ga 4.794828e+00 -9.265485e-01 -1.343605e-01 -2.546872e-03 -3.760259e-03 -8.171859e-03
Ga -3.252185e+00 1.730638e+00 5.007762e+00 -1.576407e-03 2.248129e-03 1.583039e-03
Al -3.145785e+00 1.819160e+00 -5.321835e+00 -1.782924e-02 7.937537e-03 1.133960e-02
Al -3.188579e+00 1.832621e+00 -1.749964e-01 9.482143e-05 3.245684e-03 -3.003553e-03
Al -4.184856e-02 -3.748670e+00 5.002999e+00 -1.097351e-03 2.511957e-04 1.781123e-03
Al 1.939537e-03 -3.659784e+00 -5.279113e+00 1.074760e-03 -4.725799e-03 2.666060e-03
Ga 1.301365e-02 -3.682093e+00 -1.592531e-01 -1.768681e-03 -2.837176e-03 -7.527497e-03
Al -1.630044e+00 -1.021655e+00 5.021738e+00 -1.267495e-03 -3.229232e-03 1.801191e-04
Al -1.591825e+00 -9.045979e-01 -5.302686e+00 -3.324503e-03 -1.979253e-03 5.053634e-03
Ga -1.585510e+00 -9.063880e-01 -1.469140e-01 -3.976801e-03 -3.850937e-03 -7.418702e-03
N 1.523164e+00 7.668009e-01 4.347763e+00 1.171473e-03 1.864329e-03 -2.889132e-03
N 1.586148e+00 9.202138e-01 -5.954695e+00 3.442924e-04 8.911268e-04 8.834889e-05
N 1.586970e+00 9.148489e-01 -8.131432e-01 -1.232944e-04 6.486351e-05 -1.480977e-03
N -6.932954e-02 3.619314e+00 4.345006e+00 9.041385e-04 5.596233e-04 -2.876556e-03
N 2.462270e-02 3.706197e+00 -5.925653e+00 1.629716e-03 -2.191484e-04 -1.999637e-03
N 2.965371e-02 3.693285e+00 -7.399178e-01 -1.393535e-03 -1.571892e-03 -2.230732e-03
N 3.132742e+00 -1.933964e+00 4.389506e+00 1.308374e-03 -2.911964e-04 -1.244038e-03
N 3.233703e+00 -1.803575e+00 -5.899681e+00 1.452072e-03 -1.336415e-03 -2.660360e-04
N 3.200849e+00 -1.833045e+00 -8.205505e-01 -1.874604e-04 -2.305941e-03 -1.441765e-03
N -4.841532e+00 7.719835e-01 4.377781e+00 1.286740e-03 2.279276e-03 -3.714744e-03
N -4.731850e+00 8.986276e-01 -5.896724e+00 4.656234e-04 7.933944e-04 -2.753227e-03
N -4.741360e+00 9.389154e-01 -7.567336e-01 -1.257134e-03 -8.841243e-04 -4.410354e-04
N -6.443459e+00 3.623560e+00 4.418159e+00 7.038324e-04 8.483591e-04 -1.332591e-03
N -6.381196e+00 3.734682e+00 -5.868362e+00 -2.794072e-04 1.209855e-03 -6.615161e-04
N -6.424196e+00 3.703589e+00 -8.037031e-01 -1.014825e-03 -1.120120e-04 -3.779145e-03
N -3.231055e+00 -1.931191e+00 4.437976e+00 1.540156e-03 7.363222e-04 -1.061664e-04
N -3.178769e+00 -1.825258e+00 -5.851390e+00 2.516079e-03 -1.208155e-03 -6.652012e-04
N -3.173165e+00 -1.886678e+00 -7.479136e-01 3.554471e-04 -2.240426e-03 -4.606291e-03
N -1.661528e+00 7.749637e-01 4.397181e+00 4.905132e-04 -7.042768e-04 -2.415685e-03
N -1.645278e+00 9.004720e-01 -5.921691e+00 1.051517e-02 -4.227713e-03 -4.182824e-03
N -1.638142e+00 9.466314e-01 -8.085721e-01 1.068036e-03 -1.217508e-03 -2.431499e-03
N -3.254502e+00 3.625121e+00 4.418657e+00 -1.350548e-03 -1.001115e-03 -1.857033e-03
N -3.244197e+00 3.661571e+00 -5.853297e+00 2.223292e-03 6.723098e-04 -2.544943e-03
N -3.194907e+00 3.636414e+00 -8.053174e-01 8.438765e-05 -2.351375e-03 -3.648028e-03
N -4.853376e-02 -1.924584e+00 4.430855e+00 -1.765656e-03 -1.566059e-03 -3.284172e-03
N -3.141982e-02 -1.848282e+00 -5.928416e+00 -1.582678e-03 1.653843e-05 2.109948e-02
N 1.964382e-02 -1.821266e+00 -7.653894e-01 -1.039436e-03 -2.887401e-03 -1.548404e-03
N -1.577970e-02 1.757463e+00 1.830948e+00 1.706915e-03 5.574741e-03 6.030120e-03
N -6.774290e-02 1.732683e+00 6.984263e+00 -1.012848e-03 1.313840e-03 3.793720e-04
N -2.227241e-03 1.786815e+00 -3.310903e+00 2.081927e-03 1.638080e-03 -2.739683e-03
N 3.185699e+00 -3.741210e+00 1.832195e+00 2.397282e-03 3.778825e-03 5.618477e-03
N 3.182756e+00 -3.805789e+00 6.900919e+00 3.103126e-04 -1.185502e-04 -1.944633e-03
N 3.168990e+00 -3.652231e+00 -3.298599e+00 7.055447e-04 2.360172e-03 -6.672215e-04
N 1.592792e+00 -9.947565e-01 1.838965e+00 2.053314e-03 1.385515e-03 4.855901e-03
N 1.496727e+00 -9.909089e-01 6.903618e+00 -3.760085e-03 -3.077165e-03 5.446307e-03
N 1.649498e+00 -8.853310e-01 -3.313252e+00 -8.584091e-04 -1.132835e-03 -4.304096e-03
N 3.068131e+00 1.717620e+00 1.801585e+00 2.819609e-03 4.197412e-03 6.205060e-03
N 3.122751e+00 1.684841e+00 6.982933e+00 1.346360e-04 -1.198786e-04 -4.856517e-05
N 3.142923e+00 1.863788e+00 -3.308256e+00 -1.387971e-03 7.758010e-05 -1.225275e-04
N 6.300476e+00 -3.775832e+00 1.763332e+00 -1.523125e-03 -1.618662e-03 3.117486e-03
N 6.280694e+00 -3.795118e+00 6.901944e+00 -6.037207e-04 3.940755e-04 -8.119402e-04
N 6.424863e+00 -3.695637e+00 -3.378737e+00 -3.061094e-04 -6.655813e-04 -2.165902e-03
N 4.683591e+00 -1.046649e+00 1.814425e+00 1.300950e-03 2.345980e-03 5.677254e-03
N 4.729487e+00 -9.650498e-01 6.903403e+00 3.147501e-04 -2.623323e-03 -3.356137e-03
N 4.754424e+00 -9.330952e-01 -3.373016e+00 -1.847872e-03 -9.405457e-04 -1.115943e-03
N -3.237737e+00 1.764211e+00 1.732549e+00 -1.636468e-03 -5.856519e-04 4.029426e-03
N -3.251495e+00 1.684577e+00 6.981583e+00 1.798512e-04 -6.338526e-04 1.061440e-03
N -3.132211e+00 1.864719e+00 -3.382149e+00 -8.484453e-04 6.904976e-04 -7.979719e-04
N -4.310465e-02 -3.764616e+00 1.790106e+00 7.845374e-04 1.823005e-03 7.160501e-03
N -4.161521e-02 -3.726574e+00 6.908224e+00 -1.649710e-03 6.353731e-03 5.582871e-03
N 1.835440e-02 -3.705727e+00 -3.352894e+00 -5.506474e-04 -2.213600e-04 -1.471535e-03
N -1.641880e+00 -1.007962e+00 1.798799e+00 4.096127e-04 1.545283e-03 6.038793e-03
N -1.601093e+00 -9.844612e-01 6.944458e+00 -1.238095e-03 -2.407773e-03 -5.576497e-04
N -1.573821e+00 -8.554102e-01 -3.377553e+00 -6.466217e-04 -2.204187e-03 -4.350965e-03
