108
Energy=-1993028.151250 Lattice="9.519921 0.000000 0.000000 -4.770261 8.232962 0.000000 -0.017989 -0.008561 15.391202" Stress="-0.000194 0.000023 -0.000005 0.000023 -0.000180 -0.000003 -0.000005 -0.000003 -0.000149" Properties=species:S:1:pos:R:3:forces:R:3
Al 1.561279 0.893074 2.480479 -0.001022 -0.009310 -0.007318
Al 1.560026 0.890074 7.555029 -0.000951 -0.009585 -0.001621
Ga 1.574540 0.896557 -2.754245 0.000943 -0.011306 -0.002130
Al -0.043873 3.619773 2.492742 0.007400 0.004496 -0.012385
Al -0.020872 3.616156 7.547053 -0.002084 -0.000789 -0.000463
Ga -0.002391 3.625656 -2.750297 -0.001067 -0.001009 0.001274
Al 3.173043 -1.888116 2.472465 -0.002377 -0.000184 -0.004998
Ga 3.176961 -1.887854 7.544821 -0.001397 -0.000076 -0.001390
Ga 3.188650 -1.881403 -2.748633 -0.000977 0.002556 0.000065
Ga -4.810480 0.891594 2.468690 0.001829 -0.010025 -0.005558
Al -4.814246 0.887735 7.546484 0.002114 -0.009166 -0.001279
Al -4.793503 0.899693 -2.757680 -0.000785 -0.009541 -0.000500
Ga -6.386774 3.616785 2.462863 -0.001694 0.001717 -0.003844
Ga -6.393277 3.612495 7.556062 -0.000887 0.000520 -0.000405
Al -6.371678 3.628594 -2.758031 -0.000237 -0.001823 0.000199
Ga -3.199990 -1.885413 2.457613 0.001933 0.000168 -0.003544
Al -3.201051 -1.885738 7.548729 -0.000681 0.001258 -0.000764
Al -3.174852 -1.879089 -2.754735 -0.001884 0.001746 0.000225
Ga -1.655111 0.907215 2.474961 0.011971 -0.007497 -0.008046
Ga -1.664101 0.893080 7.552426 0.011264 -0.005719 -0.005002
Ga -1.648693 0.895978 -2.748669 0.011764 -0.005694 -0.003459
Al -3.229886 3.623923 2.469333 0.008843 0.003268 -0.004248
Ga -3.236515 3.616817 7.546837 0.011108 0.004705 -0.001877
Ga -3.225753 3.627316 -2.746703 0.009650 0.005093 -0.000979
Ga -0.037157 -1.881000 2.464310 0.009154 0.006259 -0.006328
Ga -0.047154 -1.882719 7.553745 0.010295 0.006798 -0.002901
Al -0.033658 -1.878161 -2.751020 0.009586 0.004832 -0.000811
Ga -0.021036 1.799513 5.015686 -0.009748 -0.007540 -0.002370
Ga 0.000956 1.804834 -5.303004 -0.009620 -0.006650 -0.001647
Ga -0.005130 1.804392 -0.192854 -0.009805 -0.004630 0.027330
Al 3.175986 -3.711322 5.002855 -0.010503 -0.001898 -0.001130
Ga 3.191243 -3.702280 -5.299958 -0.009867 -0.005047 -0.000653
Al 3.188411 -3.704620 -0.208911 -0.008504 -0.003513 0.025319
Ga 1.601666 -0.980721 5.011695 -0.010579 0.005306 -0.004246
Ga 1.614070 -0.973545 -5.295526 -0.010590 0.007163 -0.003049
Ga 1.609237 -0.977265 -0.193227 -0.010470 0.006248 0.023100
Ga 3.135844 1.793435 5.014307 0.000923 -0.000975 -0.000152
Al 3.151276 1.804764 -5.302687 -0.000128 -0.002593 0.000998
Ga 3.151072 1.809227 -0.209108 0.000139 -0.002319 0.028322
Ga 6.314853 -3.703505 5.012022 0.001366 -0.000054 0.000639
Ga 6.342244 -3.699757 -5.300022 -0.000481 0.000146 0.001480
Al 6.339480 -3.697124 -0.229986 -0.000548 -0.000716 0.028371
Al 4.751494 -0.978865 5.011796 -0.002667 0.009056 -0.000718
Ga 4.765634 -0.968667 -5.298644 -0.000811 0.011216 -0.000334
Ga 4.770929 -0.974972 -0.200197 -0.002486 0.010899 0.023234
Al -3.236180 1.799967 5.008848 0.000851 0.000655 -0.000954
Ga -3.224632 1.807639 -5.299303 0.001388 -0.001317 0.000332
Al -3.219803 1.808808 -0.221374 0.000751 -0.000636 0.025796
Ga -0.038598 -3.705320 5.008800 0.002271 -0.000064 -0.000783
Ga -0.027222 -3.697902 -5.290931 0.001787 0.000375 0.001291
Ga -0.031749 -3.693388 -0.202054 0.002251 -0.000146 0.025708
Ga -1.627298 -0.976032 5.013711 0.001122 0.011664 -0.002655
Ga -1.603806 -0.972139 -5.295540 -0.000198 0.012265 -0.000887
Al -1.608356 -0.969581 -0.226497 0.000107 0.009287 0.025048
N 1.558002 0.890070 4.396826 -0.001329 -0.010810 -0.013223
N 1.584562 0.902611 -5.910821 0.012973 -0.003704 -0.008444
N 1.572247 0.896295 -0.814084 -0.001438 -0.011465 0.004647
N -0.034970 3.620184 4.396726 -0.013581 0.008148 -0.007712
N -0.004863 3.624578 -5.918430 -0.001172 0.000202 -0.017069
N -0.007147 3.633318 -0.807141 -0.002080 0.014622 0.011970
N 3.184504 -1.892938 4.403406 0.012166 -0.006769 -0.005905
N 3.189616 -1.881853 -5.904832 -0.001807 0.001146 -0.001214
N 3.187040 -1.893903 -0.804884 -0.001730 -0.014370 0.006336
N -4.799754 0.883050 4.412949 0.014427 -0.016961 0.012417
N -4.805582 0.904545 -5.916515 -0.012629 -0.003531 -0.008687
N -4.786270 0.904995 -0.829392 0.013838 -0.003712 -0.006121
N -6.390829 3.618770 4.406084 -0.001043 0.000217 0.000323
N -6.371325 3.612861 -5.896913 -0.000015 -0.015039 0.006116
N -6.382743 3.631151 -0.830191 -0.013404 0.007665 -0.009292
N -3.209298 -1.880328 4.405438 -0.013667 0.008648 0.003965
N -3.179780 -1.878604 -5.917609 -0.000709 0.000905 -0.016521
N -3.171112 -1.885024 -0.826921 0.012406 -0.006315 -0.004571
N -1.672658 0.900843 4.416176 -0.000893 0.001010 0.010272
N -1.645483 0.901005 -5.901891 0.011506 -0.006310 0.005360
N -1.655062 0.895406 -0.807643 -0.000774 -0.011515 0.016856
N -3.226570 3.614772 4.400479 0.021493 -0.004367 -0.004110
N -3.220488 3.628293 -5.903370 0.010008 0.005562 0.001688
N -3.212663 3.624309 -0.805481 0.021817 -0.003602 0.014141
N -0.044967 -1.882159 4.405077 0.009539 0.006522 0.002170
N -0.028102 -1.877236 -5.901270 0.010399 0.005686 0.002565
N -0.039677 -1.870128 -0.824384 -0.003143 0.013542 -0.006597
N 0.004305 1.824683 1.901845 0.000708 -0.004556 -0.018455
N -0.007113 1.801945 6.957190 0.003585 0.001100 0.012918
N -0.002847 1.803766 -3.360885 -0.011255 -0.006154 0.001608
N 3.171107 -3.704598 1.880805 -0.008514 -0.002943 -0.021631
N 3.184381 -3.716300 6.931931 0.002766 -0.012150 -0.008929
N 3.190181 -3.702376 -3.359636 -0.010957 -0.005589 0.001798
N 1.611315 -0.968083 1.873057 0.001910 0.011799 -0.010437
N 1.597394 -0.967923 6.951243 -0.011852 0.019419 0.009474
N 1.601047 -0.981721 -3.354625 -0.023324 -0.000687 0.009149
N 3.122501 1.791221 1.865204 -0.010452 -0.008579 -0.021956
N 3.131677 1.784223 6.954901 0.000744 -0.016056 0.010716
N 3.159864 1.810928 -3.369169 0.013705 0.007084 -0.005832
N 6.323634 -3.708697 1.846486 -0.017608 -0.009211 -0.031219
N 6.312170 -3.701452 6.955554 -0.011815 0.007629 0.010498
N 6.350923 -3.691767 -3.354724 0.013509 0.007723 0.010831
N 4.734464 -0.984949 1.850342 -0.012885 0.004770 -0.015247
N 4.758844 -0.972870 6.940871 0.012324 0.016938 -0.004513
N 4.776338 -0.964947 -3.352541 0.012433 0.016212 0.012248
N -3.230758 1.817968 1.863127 0.000417 0.013341 -0.035578
N -3.247524 1.794340 6.936268 -0.011989 -0.008871 -0.011791
N -3.230786 1.801659 -3.356483 -0.010434 -0.007921 0.004561
N -0.024379 -3.710282 1.856187 0.013542 -0.006916 -0.018573
N -0.043484 -3.705434 6.947197 0.000473 0.000136 -0.000387
N -0.036993 -3.689898 -3.347521 -0.011535 0.007912 0.010196
N -1.614789 -0.970683 1.854641 -0.000198 0.012261 -0.038013
N -1.632502 -0.984754 6.952094 -0.012686 0.003531 0.007218
N -1.603734 -0.983511 -3.351386 0.000466 -0.003502 0.012683
