108
Energy=-1.581051e+06 Lattice="9.534347e+00 0.000000e+00 0.000000e+00 -4.771508e+00 8.249560e+00 0.000000e+00 2.173706e-04 1.763277e-02 1.539482e+01" Stress="-8.978806e-04 3.051939e-04 2.128838e-04 3.001523e-04 -1.737797e-03 6.137709e-04 2.218296e-04 5.978039e-04 -1.260714e-03" Properties=species:S:1:pos:R:3:forces:R:3 Config_type=AlGaN_super3_25_1_28.xyz
Al 1.567875e+00 8.946438e-01 2.394081e+00 -3.949870e-03 -2.247930e-03 3.033664e-03
Al 1.561100e+00 9.003392e-01 7.556590e+00 7.243513e-04 4.432168e-04 1.309197e-03
Al 1.547923e+00 8.681880e-01 -2.694627e+00 4.024924e-03 1.705621e-03 -5.752523e-03
Al -4.268444e-02 3.608939e+00 2.425755e+00 4.382347e-03 2.827068e-04 -1.630376e-03
Al -2.690011e-02 3.615841e+00 7.550268e+00 -1.932363e-04 1.996432e-03 -5.792130e-04
Ga -4.281383e-02 3.608954e+00 -2.718980e+00 7.422232e-05 1.078013e-04 5.938699e-04
Al 3.166087e+00 -1.871692e+00 2.425236e+00 2.856843e-04 -7.796618e-05 -1.365021e-04
Ga 3.158270e+00 -1.869917e+00 7.559190e+00 4.860236e-04 -8.379605e-04 3.701126e-05
Al 3.153802e+00 -1.889979e+00 -2.728481e+00 1.265474e-04 -3.842203e-04 -6.275199e-04
Al -4.783306e+00 8.833465e-01 2.407745e+00 -3.886263e-04 -1.137400e-03 2.006161e-04
Al -4.794936e+00 9.041161e-01 7.557049e+00 2.009056e-03 7.664174e-04 1.176528e-03
Ga -4.795583e+00 8.764980e-01 -2.717058e+00 5.193151e-04 3.226460e-04 3.095769e-04
Ga -6.375251e+00 3.625885e+00 2.418655e+00 -6.604089e-04 9.501860e-04 1.019921e-03
Ga -6.382528e+00 3.621466e+00 7.539947e+00 1.501307e-05 1.301357e-03 4.398298e-04
Ga -6.372632e+00 3.617018e+00 -2.700155e+00 -1.082552e-04 -9.074850e-04 -9.857402e-05
Al -3.214061e+00 -1.865560e+00 2.433047e+00 -3.333132e-04 -9.322536e-04 -9.217872e-05
Ga -3.202325e+00 -1.862320e+00 7.550009e+00 1.802295e-04 -7.909547e-04 1.013052e-03
Al -3.189040e+00 -1.864306e+00 -2.718827e+00 3.344109e-04 2.579366e-04 -3.632991e-04
Al -1.604796e+00 8.859427e-01 2.426264e+00 -1.896275e-03 5.731789e-03 -3.333393e-04
Ga -1.620353e+00 9.177975e-01 7.551287e+00 4.739814e-04 -7.189213e-04 1.147813e-03
Al -1.604989e+00 8.727974e-01 -2.737769e+00 -1.503227e-04 5.464414e-04 -9.028857e-04
Al -3.200866e+00 3.627708e+00 2.429183e+00 -1.667127e-03 -2.990096e-03 1.050632e-03
Al -3.201402e+00 3.622122e+00 7.549248e+00 5.670650e-04 -5.539209e-05 -1.204781e-03
Al -3.194858e+00 3.627656e+00 -2.723607e+00 7.215507e-04 -2.781087e-05 -3.547172e-04
Ga -1.374792e-02 -1.875423e+00 2.410075e+00 1.022052e-03 -5.709058e-05 6.038315e-04
Ga -1.738399e-02 -1.857059e+00 7.557254e+00 4.074832e-04 -1.144287e-03 1.021328e-03
Al -2.141983e-02 -1.867302e+00 -2.710051e+00 -1.502740e-05 -7.247347e-04 -5.841031e-04
Al -1.223167e-02 1.808469e+00 4.980160e+00 -6.825994e-03 7.236172e-04 -1.404075e-03
Al -2.344958e-02 1.779470e+00 -5.285264e+00 -1.653879e-03 1.970861e-03 1.830562e-03
Al -2.417461e-02 1.780956e+00 -1.502280e-01 9.434084e-04 5.277407e-04 2.069414e-03
Ga 3.160847e+00 -3.732900e+00 4.967046e+00 -8.778284e-04 1.174791e-03 1.461911e-03
Al 3.153773e+00 -3.742097e+00 -5.289931e+00 3.303093e-04 1.099238e-03 1.442753e-03
Ga 3.144519e+00 -3.719938e+00 -1.272458e-01 2.913931e-04 6.060852e-04 1.069245e-03
Ga 1.563286e+00 -9.355530e-01 4.978684e+00 4.131474e-05 5.138405e-04 2.944350e-04
Ga 1.564021e+00 -9.456100e-01 -5.251038e+00 -8.365809e-05 1.188374e-03 4.364572e-04
Ga 1.578726e+00 -9.500377e-01 -1.626737e-01 -1.608750e-03 -1.326067e-06 -1.917384e-05
Ga 3.149321e+00 1.802535e+00 4.975386e+00 8.788205e-04 -8.247127e-04 1.345829e-03
Al 3.143314e+00 1.780740e+00 -5.293048e+00 3.823377e-04 -6.865445e-04 1.963181e-03
Al 3.143039e+00 1.790966e+00 -1.318288e-01 8.238630e-05 3.380805e-04 -3.941592e-04
Al 6.329743e+00 -3.710741e+00 4.973489e+00 -4.214534e-04 8.629025e-04 -2.868891e-04
Ga 6.325981e+00 -3.720126e+00 -5.272502e+00 -4.108652e-05 -2.213193e-04 8.801704e-04
Ga 6.340894e+00 -3.715543e+00 -1.362303e-01 -7.488625e-04 -1.954227e-05 1.073382e-03
Ga 4.754655e+00 -9.404392e-01 4.972979e+00 -4.703935e-04 5.579176e-04 1.303058e-03
Ga 4.755523e+00 -9.506733e-01 -5.267450e+00 -1.298346e-03 1.036061e-03 -2.687489e-04
Ga 4.747887e+00 -9.630635e-01 -1.308900e-01 -6.261063e-04 5.499359e-04 -1.882837e-03
Al -3.205107e+00 1.819497e+00 4.964222e+00 -1.151139e-03 -3.694503e-03 1.706298e-03
Al -3.194283e+00 1.795771e+00 -5.279648e+00 -1.737743e-03 2.009154e-04 6.443290e-04
Ga -3.197477e+00 1.805853e+00 -1.399183e-01 -4.823420e-04 -3.076198e-04 -3.815514e-04
Al -1.596169e-02 -3.710704e+00 4.994678e+00 2.833233e-04 -2.396952e-04 7.126066e-04
Ga -5.293451e-03 -3.720905e+00 -5.270433e+00 -3.068596e-04 7.899323e-05 1.129581e-03
Al -1.140513e-02 -3.716492e+00 -1.643662e-01 -3.221289e-04 5.120579e-04 -5.493123e-04
Ga -1.613910e+00 -9.410263e-01 4.958946e+00 -9.254640e-04 1.511693e-03 3.251576e-04
Al -1.610863e+00 -9.413489e-01 -5.249465e+00 -1.370792e-04 2.126651e-04 7.366483e-04
Ga -1.602474e+00 -9.498298e-01 -1.475381e-01 -1.234474e-03 6.023591e-04 -1.247918e-03
N 1.510765e+00 9.225643e-01 4.320088e+00 4.834987e-03 -4.072221e-03 -4.087065e-03
N 1.552701e+00 9.196117e-01 -5.916414e+00 2.310186e-03 -8.847899e-04 -2.054058e-03
N 1.563812e+00 9.283228e-01 -7.856404e-01 -1.750257e-04 8.577559e-04 2.532019e-03
N 2.044613e-02 3.598308e+00 4.338815e+00 -6.463601e-04 6.281138e-04 6.994302e-04
N -6.068870e-02 3.591791e+00 -5.917220e+00 -1.087269e-03 -1.376221e-03 -2.621891e-04
N -3.261138e-02 3.575175e+00 -7.423125e-01 3.660159e-04 -4.500946e-04 -4.497106e-05
N 3.155486e+00 -1.869922e+00 4.330493e+00 6.139403e-05 -5.666586e-04 -9.154292e-04
N 3.154782e+00 -1.925880e+00 -5.864998e+00 1.286180e-04 -1.013531e-03 6.111389e-04
N 3.164647e+00 -1.887356e+00 -8.199993e-01 3.127360e-04 -4.108192e-04 1.322314e-03
N -4.754901e+00 9.112784e-01 4.321307e+00 2.727850e-04 7.775842e-04 -1.166570e-03
N -4.790259e+00 9.246439e-01 -5.907699e+00 9.432149e-04 2.541426e-04 -4.368846e-04
N -4.832543e+00 8.984259e-01 -7.394672e-01 -2.052748e-04 9.486354e-04 -9.887584e-05
N -6.376123e+00 3.679350e+00 4.406803e+00 -1.278117e-06 1.125790e-03 -9.151399e-04
N -6.380281e+00 3.579668e+00 -5.879046e+00 2.250074e-04 -3.209242e-04 -1.325893e-03
N -6.341424e+00 3.595226e+00 -7.186562e-01 7.693238e-04 -2.713601e-04 5.033635e-04
N -3.203216e+00 -1.913136e+00 4.339864e+00 5.172342e-04 -1.378343e-03 -8.789072e-04
N -3.153890e+00 -1.854478e+00 -5.873865e+00 1.194837e-03 2.005663e-04 -3.725935e-04
N -3.194769e+00 -1.872749e+00 -8.152034e-01 5.356610e-04 -2.101670e-04 1.202027e-03
N -1.619043e+00 9.464840e-01 4.344937e+00 4.059713e-03 -6.129961e-05 2.130507e-03
N -1.618846e+00 8.783364e-01 -5.846781e+00 1.295181e-03 -9.453225e-04 -1.503104e-04
N -1.576566e+00 9.041025e-01 -8.143681e-01 1.106832e-03 -3.472034e-04 -1.455741e-04
N -3.255112e+00 3.606795e+00 4.350004e+00 6.943775e-04 3.497471e-03 -2.931465e-03
N -3.165753e+00 3.594717e+00 -5.927060e+00 4.207503e-04 -7.894976e-04 -6.254454e-05
N -3.235246e+00 3.647168e+00 -8.122859e-01 -4.666906e-04 -3.707059e-04 1.520116e-04
N -1.992619e-02 -1.915487e+00 4.381510e+00 3.875792e-04 -1.474344e-03 -6.927953e-04
N -6.366393e-02 -1.849325e+00 -5.862918e+00 -2.949091e-04 -5.065693e-04 -3.642602e-04
N -2.312191e-02 -1.913640e+00 -7.934961e-01 6.949305e-04 -1.356968e-03 6.525962e-04
N -2.587320e-02 1.786994e+00 1.781474e+00 -5.584643e-04 -5.924904e-05 -1.601129e-04
N 1.915215e-02 1.823052e+00 6.903635e+00 -2.864457e-04 -2.485950e-04 6.455282e-04
N -1.437420e-02 1.739007e+00 -3.363424e+00 -1.623034e-03 -8.378737e-04 -8.172281e-05
N 3.149512e+00 -3.712789e+00 1.872417e+00 9.896507e-04 2.036472e-03 -2.316937e-03
N 3.158668e+00 -3.752341e+00 6.953664e+00 3.547862e-04 -5.137013e-04 2.099485e-04
N 3.119597e+00 -3.699345e+00 -3.363921e+00 -9.794703e-04 9.005202e-04 -1.168374e-03
N 1.614326e+00 -9.320672e-01 1.820995e+00 4.691459e-04 1.434776e-03 -4.101659e-05
N 1.574252e+00 -8.957169e-01 6.955038e+00 -9.714929e-04 9.499354e-04 -1.209591e-03
N 1.570814e+00 -9.557056e-01 -3.266386e+00 -1.003306e-03 3.304727e-06 1.390198e-03
N 3.150923e+00 1.749521e+00 1.787549e+00 1.885765e-03 1.912921e-04 -2.316325e-04
N 3.151729e+00 1.749532e+00 6.957358e+00 -7.070641e-04 -1.175488e-03 -4.677718e-04
N 3.109440e+00 1.763555e+00 -3.373093e+00 -2.609812e-03 -1.463334e-03 -3.248940e-04
N 6.290151e+00 -3.680121e+00 1.846973e+00 -9.195951e-04 -5.332326e-04 -1.936926e-03
N 6.289783e+00 -3.719809e+00 6.898997e+00 -9.379401e-04 -6.914262e-04 -1.111798e-03
N 6.333448e+00 -3.670263e+00 -3.302665e+00 -1.306780e-04 6.515510e-04 1.056972e-04
N 4.746660e+00 -9.553117e-01 1.847471e+00 -1.371035e-04 -9.272001e-05 1.808661e-03
N 4.747072e+00 -8.934388e-01 6.952870e+00 -9.702429e-04 2.937625e-04 -1.073396e-03
N 4.749261e+00 -1.002422e+00 -3.296563e+00 -6.223622e-04 -9.502098e-04 2.741975e-04
N -3.198112e+00 1.800386e+00 1.841646e+00 2.165221e-03 -3.829960e-04 1.167851e-03
N -3.247070e+00 1.827298e+00 6.900956e+00 -1.034867e-03 1.341367e-05 -7.768372e-04
N -3.165595e+00 1.816062e+00 -3.352780e+00 8.469834e-04 -1.277150e-04 -3.217730e-04
N 2.740326e-02 -3.730156e+00 1.748669e+00 -1.095936e-04 -1.160338e-04 2.222361e-04
N 2.340236e-02 -3.718144e+00 6.912455e+00 4.639265e-04 6.377845e-05 -1.077524e-03
N 2.143351e-02 -3.689124e+00 -3.294772e+00 4.203778e-04 1.298253e-03 -2.760755e-05
N -1.651760e+00 -9.243617e-01 1.837266e+00 -8.135638e-04 -1.971112e-03 4.935366e-04
N -1.609880e+00 -9.338020e-01 6.921999e+00 -3.290061e-04 5.258498e-04 -7.961313e-04
N -1.606458e+00 -9.562278e-01 -3.322592e+00 -3.778731e-04 -3.331554e-04 -3.809020e-04
