108
Energy=-8.486435e+05 Lattice="9.445347e+00 0.000000e+00 0.000000e+00 -4.724184e+00 8.177053e+00 0.000000e+00 -8.364613e-03 -5.150654e-03 1.518943e+01" Stress="4.238592e-04 -8.101397e-05 -3.899254e-04 -8.344768e-05 -2.284369e-04 -2.521030e-04 -4.052430e-04 -2.555129e-04 8.267302e-04" Properties=species:S:1:pos:R:3:forces:R:3 Config_type=AlGaN_super3_9_1_40.xyz
Al 1.551604e+00 8.693709e-01 2.422197e+00 -2.330434e-04 -4.336457e-05 9.779177e-06
Al 1.552514e+00 8.748200e-01 7.443284e+00 -5.304940e-05 1.145441e-04 2.079270e-05
Al 1.552843e+00 8.723817e-01 -2.718821e+00 1.469086e-05 -1.955937e-05 -1.900363e-04
Al -9.201258e-03 3.597809e+00 2.418527e+00 2.557349e-05 2.146003e-04 2.816776e-05
Al -2.794668e-02 3.591792e+00 7.442116e+00 -3.346133e-05 4.945279e-06 -6.583997e-05
Al -2.009661e-02 3.589692e+00 -2.714745e+00 3.949676e-05 -2.549794e-05 1.281836e-04
Al 3.134354e+00 -1.846252e+00 2.413805e+00 6.205954e-05 2.591279e-05 1.638647e-05
Al 3.130367e+00 -1.859098e+00 7.444474e+00 1.056282e-05 -2.613495e-05 -5.123867e-05
Al 3.126843e+00 -1.850422e+00 -2.710073e+00 -3.299347e-05 8.396917e-05 -2.737574e-05
Al -4.744305e+00 8.598052e-01 2.402895e+00 1.097176e-04 3.024182e-06 -5.251562e-05
Al -4.755641e+00 8.650032e-01 7.432259e+00 8.328731e-05 -1.289766e-05 4.920397e-05
Al -4.750760e+00 8.688429e-01 -2.689146e+00 -2.321365e-04 3.974345e-05 2.166188e-04
Al -6.335753e+00 3.597639e+00 2.390191e+00 -5.264482e-05 2.480887e-04 -8.781047e-05
Al -6.335263e+00 3.580098e+00 7.458627e+00 6.975283e-06 1.366105e-05 -3.093965e-05
Al -6.316888e+00 3.593170e+00 -2.699912e+00 -8.695409e-07 -5.571458e-05 -9.873525e-05
Al -3.173094e+00 -1.859353e+00 2.379971e+00 -5.922876e-06 -8.064471e-05 -7.722190e-05
Al -3.182127e+00 -1.857666e+00 7.443463e+00 1.123809e-04 7.510975e-05 -6.693565e-05
Ga -3.173244e+00 -1.854924e+00 -2.677933e+00 2.121864e-05 -3.575137e-05 4.396009e-05
Al -1.601113e+00 8.607679e-01 2.399632e+00 -6.037169e-05 -2.593553e-05 1.202067e-05
Al -1.600334e+00 8.699271e-01 7.434994e+00 -6.536440e-06 -8.500475e-05 4.021120e-05
Al -1.587254e+00 8.727618e-01 -2.685069e+00 -4.261192e-06 5.048467e-05 3.164178e-04
Ga -3.173935e+00 3.586714e+00 2.388324e+00 -6.613600e-05 1.030798e-05 -1.064888e-04
Al -3.164342e+00 3.586895e+00 7.450563e+00 6.424037e-05 -5.331879e-05 -1.447913e-04
Al -3.174256e+00 3.600478e+00 -2.685350e+00 -3.274051e-05 7.263056e-05 1.103448e-05
Al -3.210788e-02 -1.848128e+00 2.392278e+00 1.179108e-04 1.554765e-04 -3.543376e-05
Ga -2.790089e-02 -1.848919e+00 7.463637e+00 -4.671603e-05 -6.406054e-06 -2.905719e-05
Al -1.682148e-02 -1.856456e+00 -2.702863e+00 1.265358e-04 -3.960993e-05 5.923448e-05
Al -2.666921e-02 1.776386e+00 4.920544e+00 -3.172037e-05 3.611169e-06 -6.044600e-05
Al -1.380782e-02 1.778694e+00 -5.226968e+00 -5.848634e-05 -8.146660e-06 3.161317e-06
Ga -2.849883e-02 1.781077e+00 -1.381757e-01 -4.875929e-05 1.125151e-04 -7.268937e-05
Al 3.138096e+00 -3.670675e+00 4.932591e+00 1.686252e-04 7.156923e-05 9.673214e-06
Al 3.133707e+00 -3.664859e+00 -5.219441e+00 -1.337085e-05 6.338299e-06 -6.396003e-05
Ga 3.137437e+00 -3.667842e+00 -1.566454e-01 -3.550376e-05 -1.916998e-05 -1.497905e-05
Al 1.556916e+00 -9.406273e-01 4.916989e+00 -9.346755e-06 1.383205e-05 -1.262763e-04
Al 1.561604e+00 -9.431647e-01 -5.211070e+00 -6.714060e-05 -1.620892e-05 -1.364143e-05
Ga 1.550369e+00 -9.544987e-01 -1.477657e-01 5.814473e-06 -1.195708e-04 -3.720976e-05
Al 3.118710e+00 1.772194e+00 4.919409e+00 -3.206976e-06 1.032051e-04 -6.096951e-05
Al 3.122302e+00 1.778915e+00 -5.219414e+00 -8.327877e-05 3.288273e-05 6.321376e-05
Ga 3.138847e+00 1.784633e+00 -1.457100e-01 2.191820e-05 8.362624e-05 -4.633806e-05
Al 6.265797e+00 -3.671767e+00 4.926184e+00 -3.917251e-05 2.228400e-05 -7.353968e-05
Al 6.277620e+00 -3.673839e+00 -5.234273e+00 5.567299e-06 -1.312850e-05 -3.875227e-05
Al 6.281796e+00 -3.667176e+00 -1.401521e-01 2.213676e-04 -1.184674e-06 7.507319e-06
Al 4.701238e+00 -9.514958e-01 4.919973e+00 -3.792328e-05 -2.330376e-05 -7.381893e-05
Al 4.696856e+00 -9.506982e-01 -5.236137e+00 4.283828e-05 1.789888e-05 -7.372445e-05
Al 4.709273e+00 -9.433867e-01 -1.315770e-01 1.555145e-04 -2.733646e-04 1.290490e-04
Al -3.169935e+00 1.762115e+00 4.937884e+00 3.248208e-05 -1.251817e-04 4.470937e-05
Ga -3.167922e+00 1.776567e+00 -5.214915e+00 -1.645781e-05 -9.390200e-06 -7.561451e-05
Al -3.175707e+00 1.762479e+00 -1.638951e-01 1.351052e-04 1.954627e-04 -2.521357e-04
Ga -3.316176e-02 -3.675797e+00 4.929457e+00 -7.344253e-05 9.009971e-06 -3.550216e-05
Al -2.291213e-02 -3.673160e+00 -5.210551e+00 -6.117310e-05 -3.324680e-05 5.997594e-05
Al -3.613826e-02 -3.668465e+00 -1.603198e-01 -1.665065e-04 2.338451e-04 2.004770e-04
Al -1.610941e+00 -9.421151e-01 4.906976e+00 -7.340162e-05 8.248618e-05 -5.437497e-05
Al -1.594973e+00 -9.465731e-01 -5.212421e+00 1.280581e-04 -2.357656e-05 -8.433429e-05
Al -1.601472e+00 -9.501575e-01 -1.383318e-01 2.354449e-05 -3.575157e-04 -3.744036e-05
N 1.548124e+00 8.701737e-01 4.331652e+00 3.549543e-05 2.046917e-05 2.807604e-05
N 1.555670e+00 8.707459e-01 -5.821691e+00 2.737665e-05 -1.674938e-05 -2.530712e-05
N 1.552123e+00 8.723069e-01 -8.151539e-01 5.186118e-05 1.160099e-05 2.139740e-04
N -2.267563e-02 3.596005e+00 4.333979e+00 4.575861e-05 3.719328e-05 7.623126e-05
N -2.318731e-02 3.596107e+00 -5.826404e+00 8.784402e-06 -1.640292e-05 5.643470e-05
N 2.441237e-02 3.617694e+00 -8.037065e-01 -1.322150e-04 -1.747548e-04 -1.907704e-04
N 3.127412e+00 -1.857279e+00 4.328162e+00 2.422878e-05 -8.305058e-06 7.760519e-05
N 3.126617e+00 -1.855967e+00 -5.826025e+00 3.014138e-05 -4.077762e-06 3.570580e-05
N 3.172963e+00 -1.826187e+00 -8.007193e-01 -1.719655e-04 -1.485288e-05 8.702841e-05
N -4.744383e+00 8.677465e-01 4.326290e+00 1.891353e-05 1.330367e-05 2.019323e-05
N -4.785223e+00 8.497615e-01 -5.846523e+00 3.140846e-05 3.388566e-05 -2.106949e-04
N -4.709862e+00 8.385091e-01 -7.751975e-01 3.484728e-05 2.428404e-04 -1.399607e-04
N -6.369099e+00 3.573241e+00 4.299174e+00 3.006211e-05 -2.125611e-04 2.085693e-04
N -6.317920e+00 3.592985e+00 -5.816559e+00 3.071732e-05 -2.649314e-05 2.656888e-05
N -6.324373e+00 3.641890e+00 -7.815843e-01 -1.028690e-04 9.720599e-05 2.360836e-04
N -3.175903e+00 -1.861128e+00 4.305829e+00 1.400316e-05 2.608258e-06 6.444233e-05
N -3.166398e+00 -1.852823e+00 -5.824702e+00 3.595931e-05 -5.316357e-06 -2.633328e-06
N -3.172289e+00 -1.855252e+00 -6.926421e-01 3.499488e-05 4.259342e-05 3.526612e-05
N -1.603603e+00 8.704195e-01 4.318345e+00 -1.229479e-05 3.585916e-07 2.059460e-05
N -1.552450e+00 8.463299e-01 -5.844525e+00 1.656886e-05 -3.151407e-05 -1.714858e-04
N -1.629650e+00 8.425014e-01 -7.696486e-01 -9.433308e-05 2.583395e-04 -2.247438e-04
N -3.132291e+00 3.566457e+00 4.358636e+00 -1.267289e-04 1.734592e-05 -5.969154e-05
N -3.165749e+00 3.643243e+00 -5.829581e+00 6.107310e-05 -1.550983e-05 1.008579e-04
N -3.212628e+00 3.575230e+00 -7.630313e-01 8.399294e-05 -9.764592e-05 1.343693e-04
N -2.667373e-02 -1.809992e+00 4.305509e+00 1.671751e-05 -7.087242e-05 -2.967853e-05
N -1.845389e-02 -1.852045e+00 -5.755325e+00 -4.907671e-05 1.023756e-04 3.606982e-05
N -6.443545e-02 -1.874860e+00 -7.800824e-01 6.855303e-05 -1.336498e-04 -2.003597e-07
N -2.307486e-02 1.779342e+00 1.847998e+00 7.820714e-05 -1.733097e-04 -1.321696e-04
N -2.510222e-02 1.775647e+00 6.841019e+00 -5.700037e-06 4.915218e-05 6.917500e-05
N -2.554709e-02 1.777456e+00 -3.307874e+00 -6.294090e-05 1.891929e-05 2.819427e-05
N 3.173109e+00 -3.647509e+00 1.818911e+00 -2.663937e-05 -8.464143e-05 1.719196e-05
N 3.126330e+00 -3.673666e+00 6.848681e+00 -4.307278e-06 5.217473e-05 4.204133e-05
N 3.126010e+00 -3.673232e+00 -3.295515e+00 3.531616e-05 4.212703e-06 2.076967e-05
N 1.554407e+00 -9.469792e-01 1.838603e+00 -1.552587e-04 -3.261862e-05 -6.663167e-05
N 1.589559e+00 -9.258968e-01 6.829411e+00 2.779112e-05 -1.723394e-04 4.108554e-05
N 1.555453e+00 -9.473997e-01 -3.296304e+00 -1.423552e-05 3.394378e-06 -4.609052e-06
N 3.125292e+00 1.774558e+00 1.838651e+00 6.336465e-05 -1.539878e-04 -8.413851e-06
N 3.119886e+00 1.778040e+00 6.837651e+00 1.853644e-05 4.348574e-05 3.999539e-05
N 3.131972e+00 1.780372e+00 -3.298846e+00 -5.219791e-05 1.514250e-05 3.734254e-06
N 6.270036e+00 -3.678535e+00 1.781462e+00 1.846824e-06 4.067996e-05 5.291797e-05
N 6.272501e+00 -3.675037e+00 6.848948e+00 5.519861e-06 2.904641e-05 3.553473e-05
N 6.278735e+00 -3.714750e+00 -3.325150e+00 -1.123650e-05 3.602774e-05 1.494300e-05
N 4.694803e+00 -9.461490e-01 1.791951e+00 2.788886e-05 7.087829e-05 4.977707e-05
N 4.697598e+00 -9.531077e-01 6.838713e+00 6.733916e-06 6.883371e-05 7.698199e-05
N 4.666086e+00 -9.217617e-01 -3.327126e+00 -7.790605e-06 -1.929522e-04 1.747038e-05
N -3.173492e+00 1.724282e+00 1.755382e+00 -3.923859e-06 -1.500436e-04 2.143919e-04
N -3.175381e+00 1.772683e+00 6.854219e+00 -1.141070e-05 1.634271e-05 4.001017e-05
N -3.169601e+00 1.778563e+00 -3.237711e+00 3.292371e-04 -1.815926e-04 -2.133985e-04
N -6.717327e-02 -3.648786e+00 1.764336e+00 9.375971e-05 -1.076967e-04 -1.068803e-04
N -3.045111e-02 -3.722196e+00 6.892159e+00 -3.825083e-05 4.152881e-05 4.876035e-05
N -1.991177e-02 -3.676365e+00 -3.292857e+00 -3.583191e-06 3.044688e-05 2.841122e-05
N -1.596302e+00 -9.455696e-01 1.785251e+00 -5.136880e-06 3.898963e-05 6.351518e-05
N -1.643395e+00 -9.290737e-01 6.817878e+00 -1.491229e-04 -6.753147e-05 2.143951e-04
N -1.560583e+00 -9.216955e-01 -3.305207e+00 -2.041528e-04 1.378065e-04 -9.970843e-05
