108
Energy=-1214847.402967 Lattice="9.488198 0.000000 0.000000 -4.743938 8.216111 0.000000 -0.003447 0.000624 15.295967" Stress="0.000001 -0.000000 -0.000000 -0.000000 0.000001 -0.000001 -0.000001 -0.000001 0.000000" Properties=species:S:1:pos:R:3:forces:R:3
Al 1.564155 0.884897 2.398848 -0.000041 0.000048 0.000137
Al 1.563113 0.883223 7.472255 0.000153 -0.000165 0.000074
Al 1.550303 0.877990 -2.678699 0.000004 0.000055 0.000081
Al -0.027563 3.602876 2.386988 -0.000063 -0.000080 0.000127
Al -0.029409 3.600395 7.483937 0.000078 0.000067 0.000028
Al -0.024964 3.596435 -2.670723 0.000136 -0.000117 0.000130
Al 3.145641 -1.860542 2.397185 -0.000045 0.000018 -0.000096
Al 3.140139 -1.856999 7.486478 -0.000015 -0.000045 0.000020
Ga 3.149066 -1.855830 -2.685317 -0.000056 -0.000019 0.000079
Al -4.789851 0.869625 2.400668 0.000027 -0.000092 0.000082
Al -4.784590 0.874327 7.495116 0.000119 0.000124 -0.000194
Al -4.757016 0.868131 -2.695034 -0.000034 0.000154 0.000114
Al -6.352518 3.590374 2.385072 0.000104 0.000101 0.000118
Al -6.340769 3.592649 7.490767 -0.000190 -0.000022 0.000138
Ga -6.346342 3.605156 -2.673215 0.000004 0.000033 0.000039
Ga -3.204573 -1.862505 2.406288 0.000032 -0.000043 0.000045
Ga -3.206850 -1.862870 7.483905 -0.000027 -0.000001 0.000052
Al -3.204932 -1.859597 -2.676176 0.000019 0.000054 -0.000010
Al -1.589135 0.885635 2.412091 -0.000017 0.000006 0.000087
Ga -1.595925 0.897036 7.511855 0.000027 -0.000030 0.000095
Al -1.601665 0.898357 -2.710271 0.000016 -0.000142 -0.000069
Ga -3.175329 3.618259 2.410565 0.000017 0.000020 0.000119
Al -3.191486 3.614937 7.486760 0.000192 -0.000168 0.000123
Al -3.182157 3.598096 -2.689787 -0.000038 0.000002 0.000108
Ga -0.012006 -1.861088 2.417197 0.000066 -0.000079 0.000060
Ga -0.004942 -1.873841 7.488141 -0.000004 0.000048 0.000047
Ga -0.007734 -1.865060 -2.688994 -0.000009 -0.000048 0.000017
Al -0.014069 1.783036 4.929780 -0.000051 -0.000008 -0.000154
Al -0.012739 1.782967 -5.234629 -0.000016 0.000118 0.000085
Al -0.009582 1.792859 -0.142755 0.000084 0.000046 0.000096
Al 3.143038 -3.676902 4.957766 -0.000190 -0.000088 -0.000025
Ga 3.132918 -3.696881 -5.256008 -0.000066 0.000002 0.000013
Al 3.147221 -3.685436 -0.152508 0.000003 -0.000051 0.000037
Al 1.571521 -0.945738 4.938869 -0.000149 -0.000048 -0.000013
Al 1.566986 -0.940041 -5.263579 -0.000008 -0.000100 0.000083
Al 1.573746 -0.941152 -0.124814 -0.000037 -0.000042 0.000183
Al 3.134515 1.778866 4.944960 -0.000136 0.000126 0.000040
Ga 3.140089 1.768933 -5.254417 0.000001 0.000087 0.000122
Al 3.131611 1.777495 -0.142072 -0.000018 0.000019 -0.000015
Ga 6.301645 -3.707562 4.942478 0.000002 -0.000051 0.000028
Ga 6.298271 -3.698971 -5.244038 -0.000028 -0.000012 -0.000006
Al 6.291640 -3.700385 -0.138279 0.000022 -0.000090 0.000109
Al 4.695693 -0.946724 4.943371 -0.000056 0.000198 0.000013
Al 4.714987 -0.939213 -5.245259 0.000042 0.000013 -0.000010
Al 4.705970 -0.952801 -0.139116 -0.000021 0.000196 -0.000027
Ga -3.191828 1.779270 4.945906 -0.000062 0.000005 0.000124
Al -3.195179 1.792479 -5.241766 0.000111 0.000076 -0.000039
Ga -3.189674 1.789182 -0.146067 -0.000063 0.000012 0.000060
Al -0.027324 -3.692638 4.956239 -0.000032 -0.000129 -0.000189
Al -0.008154 -3.702805 -5.256419 0.000035 -0.000042 0.000079
Al -0.018596 -3.695582 -0.136445 0.000091 -0.000076 -0.000106
Al -1.594215 -0.943335 4.943495 0.000014 0.000007 0.000022
Ga -1.601752 -0.947481 -5.217617 -0.000022 -0.000012 0.000089
Ga -1.603115 -0.948796 -0.158388 -0.000043 0.000006 0.000036
N 1.560858 0.876653 4.325650 -0.000013 0.000010 -0.000073
N 1.512896 0.853600 -5.901043 0.000036 0.000038 -0.000160
N 1.555166 0.872419 -0.751898 0.000059 -0.000052 -0.000047
N -0.072877 3.589603 4.307609 0.000144 -0.000011 -0.000082
N -0.024561 3.557587 -5.901369 -0.000018 -0.000078 -0.000059
N -0.022634 3.606651 -0.748848 0.000022 0.000004 -0.000007
N 3.139000 -1.870123 4.324813 0.000015 0.000020 -0.000046
N 3.144313 -1.817807 -5.882905 -0.000050 -0.000005 0.000011
N 3.136898 -1.860791 -0.707421 0.000029 0.000084 -0.000094
N -4.816933 0.849396 4.313898 0.000091 -0.000159 -0.000185
N -4.724988 0.848709 -5.881695 -0.000064 -0.000072 0.000020
N -4.807998 0.848858 -0.776724 0.000047 -0.000247 -0.000081
N -6.305137 3.582412 4.307181 0.000044 -0.000038 -0.000017
N -6.305885 3.629609 -5.890413 0.000011 -0.000042 -0.000160
N -6.347023 3.611194 -0.693829 -0.000012 0.000059 0.000044
N -3.193070 -1.818432 4.381826 0.000061 -0.000035 -0.000052
N -3.225866 -1.840557 -5.844340 0.000009 0.000030 -0.000054
N -3.236628 -1.890267 -0.757287 0.000008 0.000024 -0.000033
N -1.560482 0.855393 4.322231 0.000086 -0.000022 -0.000103
N -1.599968 0.924459 -5.804346 -0.000133 0.000002 -0.000064
N -1.558898 0.910371 -0.801066 -0.000102 -0.000065 -0.000091
N -3.181856 3.664881 4.379916 0.000053 0.000062 -0.000053
N -3.223310 3.586556 -5.890440 -0.000007 -0.000077 0.000015
N -3.185598 3.658818 -0.770820 -0.000059 0.000033 -0.000054
N -0.017275 -1.868028 4.398784 0.000090 0.000147 -0.000036
N 0.019572 -1.889874 -5.824429 -0.000008 0.000083 -0.000081
N 0.030800 -1.888417 -0.714130 -0.000003 0.000006 -0.000014
N -0.020466 1.784760 1.783824 0.000023 -0.000006 -0.000043
N 0.017644 1.809261 6.842918 -0.000086 0.000126 0.000116
N -0.009431 1.791765 -3.308362 0.000014 0.000015 -0.000048
N 3.182415 -3.665689 1.764440 -0.000084 0.000123 0.000001
N 3.140935 -3.685654 6.890430 0.000013 0.000006 -0.000027
N 3.143721 -3.739255 -3.271507 -0.000167 0.000106 -0.000105
N 1.601583 -0.922165 1.790925 0.000047 -0.000144 -0.000158
N 1.603997 -0.924454 6.856352 0.000030 0.000051 -0.000032
N 1.565966 -0.897154 -3.349918 0.000021 -0.000005 -0.000082
N 3.137044 1.780390 1.779753 0.000020 0.000055 0.000005
N 3.139192 1.784865 6.876540 -0.000010 0.000013 -0.000013
N 3.138143 1.735296 -3.273188 -0.000017 -0.000046 -0.000050
N 6.298811 -3.738622 1.783663 0.000065 0.000047 -0.000204
N 6.303299 -3.745333 6.917207 -0.000041 -0.000033 -0.000017
N 6.259441 -3.671745 -3.262142 0.000070 -0.000021 -0.000036
N 4.677609 -0.925282 1.771003 0.000040 0.000103 0.000094
N 4.670728 -0.922726 6.854745 -0.000008 -0.000009 0.000039
N 4.760190 -0.926733 -3.329429 0.000006 -0.000022 0.000080
N -3.187579 1.737535 1.835041 0.000031 -0.000003 -0.000048
N -3.229710 1.804586 6.917673 -0.000078 0.000013 -0.000016
N -3.192254 1.790489 -3.307980 0.000037 0.000011 -0.000038
N -0.059815 -3.714097 1.765328 -0.000083 -0.000045 0.000013
N -0.028779 -3.741336 6.865012 -0.000069 0.000068 0.000025
N 0.018923 -3.720758 -3.344039 0.000062 -0.000023 0.000007
N -1.605813 -0.903551 1.809328 0.000027 -0.000002 -0.000081
N -1.601949 -0.942848 6.846730 -0.000059 0.000004 -0.000080
N -1.645652 -0.931243 -3.241819 -0.000003 0.000080 0.000069
