108
Energy=-2267683.765907 Lattice="9.624871 0.000000 0.000000 -4.826535 8.318909 0.000000 -0.093388 -0.016104 15.584615" Stress="-0.000009 -0.000002 -0.000019 -0.000002 -0.000009 -0.000001 -0.000019 -0.000001 -0.000008" Properties=species:S:1:pos:R:3:forces:R:3
Al 1.533260 0.849251 2.464119 0.001273 -0.000011 0.000657
Al 1.528928 0.867402 7.634806 0.001192 -0.000711 0.000977
Ga 1.610553 0.902607 -2.755099 0.000275 -0.001739 0.000034
Al -0.066813 3.633525 2.441010 0.001630 0.000152 0.003327
Ga -0.080173 3.632844 7.632011 -0.000463 0.000187 0.001153
Ga 0.008314 3.676967 -2.741060 -0.000279 -0.001093 -0.000042
Ga 3.151989 -1.930599 2.485549 0.000832 0.000756 0.000374
Ga 3.145232 -1.889441 7.594132 0.000580 -0.001231 0.001197
Al 3.230109 -1.869211 -2.743389 0.000288 -0.001031 0.000691
Ga -4.877803 0.858606 2.439150 0.001400 -0.000889 0.003247
Al -4.900716 0.864484 7.623888 0.000808 -0.000509 0.000285
Ga -4.809546 0.903841 -2.730119 0.000475 -0.001905 -0.001044
Ga -6.501798 3.628517 2.448313 0.000598 0.000102 0.000688
Ga -6.492801 3.634704 7.640364 -0.000227 -0.000441 -0.000116
Ga -6.411570 3.683159 -2.733412 0.000692 -0.000328 0.000918
Al -3.279203 -1.929528 2.460795 0.001180 0.000643 -0.000660
Ga -3.286780 -1.888669 7.631330 -0.000276 -0.000610 0.001008
Ga -3.200693 -1.873580 -2.726321 0.000542 -0.000126 0.001366
Ga -1.682261 0.874413 2.446301 0.002630 -0.001986 0.000520
Ga -1.683097 0.882998 7.646307 0.002139 -0.000761 -0.000979
Ga -1.603205 0.919444 -2.732786 0.002958 -0.001588 0.000032
Al -3.264797 3.624885 2.460360 0.000016 0.000662 -0.000613
Ga -3.295977 3.648715 7.641239 0.003032 -0.000001 0.000725
Ga -3.210704 3.686513 -2.737145 0.001364 0.000039 0.000987
Ga -0.057810 -1.913885 2.467390 0.001436 0.000404 -0.000264
Ga -0.063805 -1.892078 7.639632 0.002420 -0.000015 0.000209
Ga 0.025600 -1.869866 -2.742360 0.001312 -0.000734 -0.000074
Ga -0.060715 1.785730 5.026459 -0.000675 0.001127 0.000703
Al 0.017443 1.815418 -5.358805 0.000094 0.000462 0.001019
Ga 0.010138 1.847536 -0.115300 -0.004028 -0.003577 -0.001522
Al 3.149361 -3.757912 5.021304 0.000335 0.000056 0.000121
Ga 3.233597 -3.729428 -5.336929 -0.000937 -0.000266 0.000057
Ga 3.235233 -3.710991 -0.131216 -0.005986 -0.002197 -0.000082
Al 1.553814 -0.982692 5.047653 -0.000817 0.000863 0.000110
Ga 1.633202 -0.959773 -5.350997 -0.002128 0.002211 -0.000419
Ga 1.635644 -0.933757 -0.137198 -0.003883 -0.001692 -0.000678
Ga 3.128533 1.762377 5.051023 -0.000080 0.000824 0.000532
Ga 3.216188 1.820098 -5.368012 -0.000029 -0.000210 0.000676
Ga 3.209765 1.844507 -0.129936 -0.002422 -0.001527 -0.001009
Ga 6.334465 -3.748704 5.026353 0.000180 -0.000658 0.001383
Ga 6.443795 -3.733625 -5.347997 -0.000151 -0.000018 0.000018
Al 6.414267 -3.715727 -0.121380 0.001859 0.001913 0.000725
Al 4.744909 -0.988706 5.035635 -0.000485 0.000007 0.000053
Ga 4.829773 -0.954589 -5.345124 -0.000289 0.002010 0.000933
Ga 4.829552 -0.941476 -0.133472 -0.001638 -0.002243 -0.001142
Ga -3.289016 1.794950 5.046200 -0.000797 0.000424 0.001349
Ga -3.202085 1.827265 -5.359551 -0.000520 -0.000393 0.000651
Al -3.219942 1.839871 -0.133499 0.001013 0.001955 0.000414
Ga -0.043282 -3.752376 5.030110 -0.000712 -0.000403 0.000191
Al 0.022046 -3.723728 -5.343253 -0.000411 0.000095 0.000854
Ga 0.010508 -3.709310 -0.115921 -0.000950 -0.002541 -0.001363
Ga -1.674294 -0.987112 5.038495 -0.000760 0.000695 -0.000172
Ga -1.573884 -0.952901 -5.337865 -0.001055 0.001883 -0.000394
Ga -1.598308 -0.937098 -0.122083 -0.003871 -0.001330 -0.001916
N 1.532759 0.817664 4.382899 0.000708 -0.002933 -0.001675
N 1.578355 0.913365 -6.015162 -0.001381 -0.000625 -0.001448
N 1.604875 0.920333 -0.781817 -0.000235 -0.001527 -0.000497
N -0.109072 3.654957 4.373090 -0.002095 0.000981 -0.002469
N 0.007582 3.626507 -5.966546 -0.000014 -0.001967 0.000302
N 0.038841 3.702871 -0.756721 0.000646 0.000222 0.001028
N 3.144001 -1.909881 4.472956 0.000647 -0.000058 0.002971
N 3.234868 -1.881472 -6.006413 0.000148 -0.000707 -0.000878
N 3.226903 -1.860086 -0.818821 -0.000527 -0.001572 -0.001229
N -4.885981 0.824049 4.421932 0.000969 -0.002260 0.000183
N -4.802864 0.892532 -6.034595 0.000639 -0.001306 -0.002337
N -4.777331 0.938767 -0.750859 0.000723 -0.001441 0.002079
N -6.495584 3.631981 4.420717 0.000283 -0.000014 0.000221
N -6.367737 3.691675 -5.965554 0.001813 0.001227 0.000177
N -6.455701 3.712596 -0.740349 -0.002680 0.000995 -0.000364
N -3.310759 -1.888650 4.383467 -0.001901 0.001491 -0.001818
N -3.188658 -1.873447 -5.977323 0.000469 -0.000303 -0.000525
N -3.197165 -1.905677 -0.743057 -0.000073 -0.003372 -0.002018
N -1.687102 0.873539 4.415138 0.001764 -0.001122 -0.000357
N -1.558366 0.926128 -5.960889 0.002339 -0.001164 0.000528
N -1.642772 0.945141 -0.741410 0.000097 -0.000540 0.000619
N -3.246128 3.654639 4.382384 0.002596 0.000788 -0.002017
N -3.237171 3.698495 -5.961191 -0.000476 0.001228 0.000151
N -3.216033 3.651605 -0.750044 0.001464 -0.002714 -0.001594
N -0.025592 -1.879621 4.437863 0.002753 0.000959 0.001032
N 0.020974 -1.916325 -5.962116 0.001415 -0.002318 0.000450
N 0.013763 -1.855279 -0.764997 0.000428 -0.000836 0.000562
N -0.020711 1.792665 1.864437 0.002174 0.004929 0.002324
N -0.031444 1.769656 7.007517 0.000062 -0.001028 0.000478
N 0.013279 1.824632 -3.426857 -0.002262 0.000376 -0.002192
N 3.150544 -3.812785 1.861541 0.004198 0.001547 -0.000808
N 3.148433 -3.761453 6.948918 -0.001817 -0.000057 -0.002260
N 3.234759 -3.680707 -3.352885 -0.001641 0.002363 0.000792
N 1.558275 -0.962551 1.841596 0.000566 0.004502 0.000936
N 1.541214 -0.933999 6.974582 -0.002638 0.002623 -0.001426
N 1.670136 -0.972887 -3.368354 -0.000295 0.000381 0.000617
N 3.096308 1.750420 1.841930 0.001626 0.001565 0.000606
N 3.127180 1.748176 7.041198 -0.000343 -0.001704 0.001265
N 3.218703 1.827119 -3.382805 -0.000026 0.000637 -0.000588
N 6.331345 -3.736209 1.814887 -0.003506 -0.000839 -0.001260
N 6.348696 -3.751083 7.004806 0.000517 0.000329 -0.000509
N 6.437997 -3.720563 -3.376388 -0.000271 0.000292 -0.000816
N 4.786531 -1.030894 1.840995 0.001688 0.004257 0.001351
N 4.752153 -0.936361 6.961768 -0.000579 0.002858 -0.002433
N 4.796606 -0.968563 -3.356567 -0.002500 0.000709 0.000007
N -3.271882 1.834445 1.792007 -0.001542 0.000839 -0.001279
N -3.324495 1.778419 7.028397 -0.002387 -0.000819 0.000665
N -3.206880 1.827842 -3.381703 -0.000645 0.000754 -0.000495
N -0.014773 -3.793047 1.860128 0.002495 0.001720 0.000944
N -0.064121 -3.749333 6.998530 -0.000850 0.000551 -0.000332
N 0.016820 -3.718552 -3.414854 -0.000461 0.000244 -0.003067
N -1.706034 -1.024622 1.853727 0.001188 0.004088 0.001063
N -1.672081 -0.977969 7.010612 -0.000776 0.001504 -0.000385
N -1.586688 -0.946147 -3.360782 -0.001183 0.001563 0.000031
