108
Energy=-2.450784e+06 Lattice="9.569725e+00 0.000000e+00 0.000000e+00 -4.795926e+00 8.265188e+00 0.000000e+00 1.213324e-01 8.953164e-02 1.547725e+01" Stress="-3.633190e-02 3.914769e-03 4.372607e-03 3.904548e-03 -3.679941e-02 3.076715e-03 4.368535e-03 3.088644e-03 -3.303531e-02" Properties=species:S:1:pos:R:3:forces:R:3 Config_type=AlGaN_super3_44_0_3.xyz
Al 1.644889e+00 9.412246e-01 2.459355e+00 -1.168471e-03 -7.678567e-03 -3.616199e-03
Al 1.641606e+00 9.416078e-01 7.590712e+00 -1.995820e-04 -7.573813e-03 6.561742e-04
Ga 1.516997e+00 8.518006e-01 -2.749155e+00 1.289168e-03 -8.755805e-03 -4.068437e-04
Al 4.417686e-02 3.680793e+00 2.452565e+00 -3.163904e-03 -1.348013e-04 -9.103567e-04
Ga 5.291896e-02 3.678781e+00 7.589954e+00 -1.847055e-03 -7.772956e-04 7.634956e-04
Ga -6.963104e-02 3.595214e+00 -2.745154e+00 -3.184017e-04 -9.371707e-04 9.556816e-04
Al 3.254948e+00 -1.840586e+00 2.448443e+00 -1.360920e-03 -2.184151e-03 -7.788104e-04
Ga 3.257103e+00 -1.835093e+00 7.590319e+00 -1.563654e-03 -5.911783e-05 5.771195e-04
Ga 3.134793e+00 -1.929003e+00 -2.747302e+00 -8.600321e-04 2.189353e-03 -1.876204e-04
Al -4.765718e+00 9.381588e-01 2.465151e+00 7.814067e-04 -6.951436e-03 -3.226576e-03
Ga -4.766149e+00 9.457301e-01 7.597491e+00 1.348692e-03 -8.370248e-03 -3.463435e-05
Ga -4.880903e+00 8.597137e-01 -2.748629e+00 6.211997e-04 -7.955668e-03 -9.741624e-05
Ga -6.348285e+00 3.681367e+00 2.463784e+00 -1.851517e-03 -7.818808e-04 -1.828962e-03
Ga -6.346203e+00 3.679963e+00 7.591858e+00 6.569522e-04 5.369130e-04 1.739455e-03
Ga -6.463108e+00 3.597547e+00 -2.749240e+00 7.077848e-04 -6.593908e-04 1.108593e-03
Ga -3.147231e+00 -1.836142e+00 2.455820e+00 -8.368027e-04 5.343288e-04 -2.260581e-03
Ga -3.135466e+00 -1.834440e+00 7.597336e+00 -8.916512e-04 8.159880e-04 1.419206e-03
Ga -3.250129e+00 -1.923584e+00 -2.751624e+00 5.759200e-04 2.173095e-03 6.753184e-04
Ga -1.585457e+00 9.507879e-01 2.461120e+00 8.107504e-03 -4.728555e-03 -5.270386e-03
Ga -1.582461e+00 9.437655e-01 7.598644e+00 8.898495e-03 -3.638452e-03 -2.065384e-03
Ga -1.703073e+00 8.555475e-01 -2.748512e+00 8.770458e-03 -5.446816e-03 -1.985172e-03
Ga -3.182349e+00 3.686024e+00 2.470780e+00 7.840565e-03 2.548540e-03 -5.638040e-03
Ga -3.175350e+00 3.690199e+00 7.588443e+00 7.701192e-03 3.894069e-03 -6.109015e-06
Ga -3.290613e+00 3.606561e+00 -2.735049e+00 6.828281e-03 2.874244e-03 1.208427e-03
Ga 3.911724e-02 -1.833681e+00 2.463595e+00 7.305617e-03 4.603374e-03 -3.170432e-03
Ga 3.370219e-02 -1.829714e+00 7.590882e+00 9.112701e-03 3.487916e-03 -3.074861e-04
Al -8.500802e-02 -1.920036e+00 -2.759591e+00 6.226589e-03 3.889767e-03 -2.554932e-05
Ga 5.757426e-02 1.851609e+00 5.019433e+00 -7.868422e-03 -4.106090e-03 -1.055948e-04
Ga -6.147092e-02 1.759311e+00 -5.320332e+00 -7.744569e-03 -4.975613e-03 -9.078114e-04
Ga -6.805492e-02 1.769839e+00 -1.634294e-01 -3.671975e-03 -2.263382e-03 1.314842e-02
Ga 3.258139e+00 -3.668244e+00 5.013638e+00 -7.000821e-03 -3.523661e-03 -8.598571e-04
Ga 3.140528e+00 -3.758851e+00 -5.316136e+00 -7.831850e-03 -3.626890e-03 -1.421088e-04
Al 3.164497e+00 -3.740896e+00 -1.860989e-01 -8.630691e-03 -4.045764e-03 1.952290e-02
Ga 1.674142e+00 -9.289001e-01 5.021462e+00 -8.538351e-03 4.807441e-03 -1.945694e-03
Ga 1.550022e+00 -1.013758e+00 -5.316758e+00 -8.522561e-03 5.515674e-03 -2.226200e-03
Ga 1.553722e+00 -1.023281e+00 -1.712480e-01 -5.524791e-03 8.331378e-03 1.257028e-02
Ga 3.224290e+00 1.854959e+00 5.018400e+00 -7.354409e-05 -1.332361e-03 1.013609e-03
Al 3.102559e+00 1.765834e+00 -5.323687e+00 -6.325109e-04 -1.441368e-03 1.334168e-03
Ga 3.104426e+00 1.765441e+00 -1.657432e-01 3.504278e-03 1.067304e-03 1.703918e-02
Ga 6.434635e+00 -3.667015e+00 5.022271e+00 -8.365220e-04 -1.100591e-03 9.817033e-04
Ga 6.317225e+00 -3.756762e+00 -5.315356e+00 -9.372262e-05 3.068152e-04 6.903200e-04
Ga 6.311743e+00 -3.755032e+00 -1.704939e-01 4.095851e-03 1.788507e-03 1.591852e-02
Ga 4.843528e+00 -9.266613e-01 5.018942e+00 -1.825178e-03 8.359311e-03 -1.447845e-05
Ga 4.726692e+00 -1.011322e+00 -5.313318e+00 -6.058941e-04 8.073204e-03 -1.076738e-03
Ga 4.725168e+00 -1.014810e+00 -1.680221e-01 2.747137e-03 1.210903e-02 1.437645e-02
Ga -3.176068e+00 1.860007e+00 5.024174e+00 7.761634e-04 -1.300903e-03 1.771710e-04
Ga -3.294285e+00 1.767705e+00 -5.315233e+00 1.433110e-03 -7.286318e-04 1.961325e-04
Ga -3.287146e+00 1.773045e+00 -1.636237e-01 3.183858e-03 3.037607e-03 1.401032e-02
Al 3.600475e-02 -3.663111e+00 5.027662e+00 4.675738e-04 4.499514e-04 7.234343e-04
Ga -8.657486e-02 -3.750486e+00 -5.312797e+00 1.014234e-03 3.068327e-04 1.177966e-03
Ga -7.803836e-02 -3.744213e+00 -1.765897e-01 5.038047e-03 1.388031e-03 1.403841e-02
Ga -1.548930e+00 -9.273038e-01 5.025452e+00 8.848456e-05 9.242881e-03 -1.319774e-03
Al -1.667998e+00 -1.011808e+00 -5.316289e+00 -8.592456e-04 7.506429e-03 5.501546e-04
Ga -1.665128e+00 -1.013911e+00 -1.788593e-01 3.990706e-03 1.164695e-02 1.378781e-02
N 1.637913e+00 9.417442e-01 4.382905e+00 8.917431e-05 -9.027741e-03 -1.134541e-02
N 1.534249e+00 8.625184e-01 -5.950430e+00 1.085119e-02 -2.637084e-03 -8.338382e-03
N 1.517360e+00 8.544424e-01 -7.942367e-01 5.120998e-04 -8.314344e-03 2.172623e-03
N 5.009877e-02 3.681908e+00 4.385842e+00 -5.675398e-04 2.286850e-04 -1.366792e-02
N -6.950609e-02 3.593915e+00 -5.935394e+00 -7.128626e-04 1.136636e-04 -1.220326e-03
N -7.933348e-02 3.606806e+00 -7.912561e-01 -1.073237e-02 5.836683e-03 4.804720e-03
N 3.256402e+00 -1.838849e+00 4.383305e+00 -1.006605e-03 9.522121e-04 -1.443744e-02
N 3.137329e+00 -1.927805e+00 -5.933886e+00 -9.891869e-04 1.003725e-03 -1.490623e-03
N 3.142998e+00 -1.940110e+00 -7.940342e-01 -6.163636e-04 -1.032551e-02 5.488233e-03
N -4.760096e+00 9.433682e-01 4.390117e+00 1.054296e-03 -8.423563e-03 -1.176990e-02
N -4.897046e+00 8.661177e-01 -5.925989e+00 -9.332677e-03 -2.492171e-03 4.736334e-03
N -4.879141e+00 8.596411e-01 -7.945335e-01 2.338666e-03 -8.105050e-03 2.097520e-03
N -6.329048e+00 3.696142e+00 4.417047e+00 1.048823e-02 6.355239e-03 3.914240e-03
N -6.464261e+00 3.578239e+00 -5.927827e+00 1.050495e-04 -1.192241e-02 2.671620e-03
N -6.464030e+00 3.595528e+00 -7.946646e-01 7.313444e-04 1.218380e-03 9.686174e-04
N -3.138644e+00 -1.836659e+00 4.405665e+00 -2.279070e-04 9.373440e-04 -1.046171e-03
N -3.240931e+00 -1.915573e+00 -5.924460e+00 9.967924e-03 6.792317e-03 3.266210e-03
N -3.255881e+00 -1.923712e+00 -7.976881e-01 -8.787620e-05 1.531309e-03 6.648152e-04
N -1.586301e+00 9.478508e-01 4.409574e+00 8.377276e-03 -5.282638e-03 3.475475e-03
N -1.707152e+00 8.365713e-01 -5.924607e+00 8.708693e-03 -1.495040e-02 6.510319e-03
N -1.705154e+00 8.595076e-01 -7.950315e-01 9.822284e-03 -4.094773e-03 4.219166e-03
N -3.194340e+00 3.698444e+00 4.419833e+00 -2.962289e-03 9.587128e-03 5.504399e-03
N -3.295617e+00 3.601549e+00 -5.934734e+00 7.695215e-03 3.628478e-03 3.700688e-04
N -3.267478e+00 3.615974e+00 -7.733796e-01 1.880705e-02 9.443637e-03 3.243561e-03
N 3.398227e-02 -1.853361e+00 4.416746e+00 7.551452e-03 -8.088800e-03 5.178138e-03
N -1.038905e-01 -1.913521e+00 -5.931425e+00 -2.295214e-03 1.002945e-02 5.083499e-03
N -8.545848e-02 -1.920427e+00 -8.282375e-01 9.022064e-03 5.286756e-03 -9.977773e-03
N 7.430500e-02 1.862133e+00 1.852682e+00 -1.210492e-03 -1.453210e-03 -4.451417e-03
N 7.252759e-02 1.841375e+00 6.979560e+00 2.144435e-03 -1.066665e-02 4.499346e-03
N -6.506520e-02 1.764278e+00 -3.367324e+00 -8.067705e-03 -3.818935e-03 5.002043e-04
N 3.256377e+00 -3.675057e+00 1.852855e+00 4.497608e-03 4.006365e-03 -2.020027e-02
N 3.262382e+00 -3.668881e+00 6.968466e+00 -7.655841e-03 -3.693180e-03 5.982575e-04
N 3.142008e+00 -3.758461e+00 -3.364946e+00 -7.779657e-03 -3.791244e-03 6.689156e-04
N 1.690397e+00 -9.159287e-01 1.852619e+00 -3.052184e-03 6.101400e-03 -4.437207e-03
N 1.675388e+00 -9.059411e-01 6.979722e+00 -9.587586e-03 1.533465e-02 5.813813e-03
N 1.536070e+00 -1.027307e+00 -3.361785e+00 -1.751528e-02 -2.029406e-04 6.416472e-03
N 3.227881e+00 1.835833e+00 1.862169e+00 -3.456090e-03 -1.449355e-02 -7.683854e-03
N 3.208019e+00 1.844164e+00 6.975516e+00 -1.023829e-02 -6.680574e-03 2.568259e-03
N 3.103274e+00 1.766482e+00 -3.389422e+00 9.479709e-05 -6.672535e-04 -1.449912e-02
N 6.413128e+00 -3.677718e+00 1.845727e+00 -1.294308e-02 -8.597097e-03 -9.671557e-03
N 6.432997e+00 -3.666884e+00 6.976652e+00 4.643849e-04 3.597411e-04 -1.377595e-03
N 6.313520e+00 -3.755995e+00 -3.364489e+00 -1.757279e-04 -3.956155e-04 -7.898564e-04
N 4.826024e+00 -9.144154e-01 1.852449e+00 -1.480549e-02 9.182263e-03 -5.296520e-03
N 4.845619e+00 -9.250989e-01 6.975042e+00 -1.418448e-04 8.596780e-03 -1.492106e-05
N 4.726021e+00 -1.014296e+00 -3.364143e+00 -9.949606e-04 8.124223e-03 1.734161e-03
N -3.193161e+00 1.847161e+00 1.852016e+00 -1.227207e-02 -1.009350e-02 -9.461861e-03
N -3.172891e+00 1.855681e+00 6.977909e+00 1.469860e-03 -1.354191e-03 -1.170302e-03
N -3.290135e+00 1.772469e+00 -3.361697e+00 1.432382e-03 3.994711e-05 -1.249858e-03
N 3.365461e-02 -3.664434e+00 1.831600e+00 -3.587281e-03 -1.519840e-03 -1.330919e-02
N 3.499122e-02 -3.663736e+00 6.957583e+00 5.001198e-04 5.478148e-04 -1.386934e-02
N -8.092696e-02 -3.734201e+00 -3.356266e+00 1.134206e-03 1.165080e-02 3.249801e-03
N -1.549272e+00 -9.247750e-01 1.834413e+00 -3.527970e-03 5.885479e-03 -1.235736e-02
N -1.550956e+00 -9.234957e-01 6.973642e+00 -3.498966e-04 8.963603e-03 4.171500e-04
N -1.652699e+00 -1.021332e+00 -3.382701e+00 1.024322e-02 2.947705e-03 -7.647368e-03
