108
Energy=-1260622.787369 Lattice="9.487466 0.000000 0.000000 -4.747388 8.210907 0.000000 -0.000832 0.003164 15.307122" Stress="-0.000014 0.000003 -0.000000 0.000003 -0.000021 0.000000 -0.000000 0.000000 -0.000006" Properties=species:S:1:pos:R:3:forces:R:3
Al 1.570965 0.863827 2.419551 -0.005871 0.004107 -0.004584
Al 1.557138 0.884169 7.513200 -0.001200 -0.003035 -0.006667
Al 1.557730 0.879767 -2.698388 0.001051 0.000542 0.002014
Al -0.016855 3.592757 2.440733 0.008246 0.006209 -0.002670
Al -0.015640 3.606489 7.495976 -0.001009 0.001170 0.001000
Al -0.024542 3.601178 -2.727490 -0.000100 0.000223 0.003139
Al 3.137463 -1.860000 2.419326 0.007536 -0.001210 0.000338
Al 3.151260 -1.857440 7.509512 0.001061 -0.002227 -0.000489
Ga 3.159660 -1.868068 -2.714680 0.000695 -0.000300 0.001509
Al -4.774856 0.875081 2.410949 0.001328 -0.004546 -0.000105
Al -4.778436 0.873876 7.513102 0.000809 -0.000033 0.001761
Al -4.768596 0.876794 -2.725188 0.001243 0.000056 0.003067
Al -6.344471 3.596691 2.359251 -0.003042 0.004400 0.010226
Al -6.366725 3.605154 7.522471 -0.000341 0.000308 0.000373
Ga -6.357754 3.592374 -2.703960 -0.000170 0.001040 0.002131
Al -3.192779 -1.873411 2.445550 0.004225 0.001926 -0.003318
Ga -3.186093 -1.865006 7.512627 -0.000093 -0.000302 0.000534
Al -3.186429 -1.857692 -2.742556 0.000098 -0.000038 0.000659
Ga -1.604057 0.887834 2.399614 0.000220 -0.000845 0.002344
Al -1.611860 0.882315 7.504526 0.001537 0.000183 0.000178
Al -1.620240 0.887450 -2.714542 0.000382 -0.000617 0.003931
Ga -3.202282 3.606653 2.417996 0.001318 -0.000835 0.001080
Ga -3.181076 3.611102 7.505055 0.001388 0.000008 -0.000024
Al -3.177156 3.596557 -2.719132 0.000259 -0.000502 0.002560
Al -0.005501 -1.863190 2.389625 -0.003425 -0.000982 0.000023
Al -0.022451 -1.850821 7.519734 0.000219 0.000648 0.000918
Ga -0.024330 -1.846208 -2.699916 -0.000440 -0.000755 0.002311
Al -0.018695 1.803481 4.984490 -0.007933 -0.000167 0.000466
Ga -0.032664 1.787282 -5.264176 0.000077 0.000483 0.001357
Al -0.013924 1.775780 -0.164679 -0.002596 0.001751 -0.000064
Al 3.172948 -3.694109 4.960100 -0.003624 -0.000467 -0.000163
Al 3.162287 -3.694170 -5.263917 -0.000775 0.000423 0.001417
Ga 3.141136 -3.709844 -0.139611 0.000413 0.000244 0.000264
Ga 1.574741 -0.961562 4.967313 -0.001032 0.000961 0.002247
Ga 1.576760 -0.949910 -5.277650 -0.001215 0.000000 0.001661
Al 1.567659 -0.939446 -0.129756 -0.001359 -0.001262 -0.000318
Ga 3.127370 1.793803 4.962280 0.001331 -0.000210 0.000914
Al 3.148207 1.783445 -5.266789 -0.004074 -0.002680 -0.001379
Al 3.120056 1.770892 -0.130476 0.006474 -0.000090 -0.005264
Al 6.293890 -3.695825 4.956434 -0.001405 0.001437 0.000618
Al 6.296056 -3.688051 -5.259464 -0.000139 -0.000025 0.000874
Ga 6.304947 -3.697452 -0.133267 -0.000998 0.001462 -0.003197
Al 4.724283 -0.953300 4.956192 -0.000741 0.000879 0.000703
Al 4.735867 -0.946648 -5.263170 -0.001529 0.000228 0.001765
Ga 4.729990 -0.933732 -0.134051 0.000321 0.000312 -0.001762
Al -3.203453 1.784179 4.982527 0.004895 -0.003740 -0.002235
Al -3.190751 1.768913 -5.250532 -0.002558 0.003057 0.000695
Al -3.204819 1.794534 -0.176245 -0.000230 0.000114 -0.000916
Ga -0.038491 -3.690201 4.970417 0.000049 -0.000161 0.000619
Ga -0.028847 -3.692273 -5.267346 0.000674 0.000608 0.001198
Al -0.013703 -3.693012 -0.148016 0.000850 -0.000300 -0.001563
Ga -1.608894 -0.943406 4.959846 -0.000249 0.001170 0.000562
Al -1.623590 -0.932736 -5.255250 0.002242 -0.003189 -0.000115
Ga -1.602064 -0.943351 -0.140694 -0.000986 0.000529 -0.003467
N 1.494865 0.900327 4.331924 0.006995 -0.003355 -0.003537
N 1.577971 0.893022 -5.922711 0.006606 0.003974 0.008323
N 1.557466 0.866367 -0.762376 0.000761 0.000201 0.001073
N -0.013651 3.601481 4.362076 -0.001716 -0.000160 -0.001603
N -0.019825 3.650861 -5.892664 0.000130 0.000428 -0.001309
N -0.017669 3.562065 -0.808937 -0.000129 -0.000034 -0.001150
N 3.185300 -1.887871 4.338686 -0.000464 -0.000045 -0.001780
N 3.192960 -1.890773 -5.880328 0.001188 -0.000465 -0.000655
N 3.113892 -1.845626 -0.743247 -0.002049 0.000108 0.001720
N -4.740936 0.856572 4.335486 0.000997 -0.000183 -0.002327
N -4.767195 0.871701 -5.867337 0.000153 0.000448 -0.000680
N -4.776825 0.917396 -0.794000 -0.002882 0.001759 -0.001419
N -6.400844 3.636797 4.313648 0.003617 -0.002559 -0.009159
N -6.395209 3.587814 -5.872122 -0.001122 -0.001106 -0.000561
N -6.311643 3.582783 -0.721376 -0.000199 -0.002502 0.000592
N -3.223352 -1.888106 4.357545 -0.000747 0.000045 -0.000529
N -3.182967 -1.867791 -5.816243 0.000035 0.000374 0.000037
N -3.184725 -1.866578 -0.831881 0.000421 -0.000059 -0.000780
N -1.603122 0.925923 4.380183 -0.002445 0.004489 0.001278
N -1.658792 0.858921 -5.885548 0.001925 -0.000685 -0.000482
N -1.615635 0.924072 -0.778709 0.001748 0.000255 -0.002248
N -3.162013 3.583026 4.402054 0.003806 0.002282 -0.000286
N -3.141409 3.586572 -5.834641 0.000433 -0.001884 0.000545
N -3.223763 3.596744 -0.789512 -0.000325 -0.001505 -0.000618
N -0.018900 -1.862248 4.298244 0.001066 -0.000917 -0.003475
N -0.063431 -1.833666 -5.888130 -0.002095 0.000619 0.001050
N 0.018337 -1.877614 -0.721357 0.002428 -0.000561 0.000968
N 0.014979 1.817705 1.767630 0.005385 -0.003844 -0.001451
N -0.024028 1.786396 6.909660 -0.000872 0.000217 -0.001482
N -0.023533 1.776066 -3.278656 0.000288 0.000095 0.000077
N 3.187224 -3.681557 1.851950 -0.000515 0.001917 -0.002195
N 3.187197 -3.661733 6.878010 0.001228 0.000049 -0.001815
N 3.145225 -3.738409 -3.343688 0.000627 0.000056 0.000026
N 1.576954 -0.955290 1.812362 -0.001723 0.002608 -0.003642
N 1.566824 -0.962730 6.952280 -0.000786 0.004079 -0.000370
N 1.570042 -0.905858 -3.310332 -0.000815 0.001566 -0.001026
N 3.141334 1.767461 1.792533 -0.001554 0.000697 0.001890
N 3.138138 1.791509 6.946001 0.000047 -0.000946 -0.001321
N 3.134295 1.738764 -3.347917 -0.001302 -0.002110 -0.000752
N 6.326765 -3.669998 1.831236 -0.010541 -0.007220 0.006895
N 6.306784 -3.732669 6.878026 -0.000151 -0.000429 -0.002052
N 6.267248 -3.672788 -3.344730 -0.000817 -0.000053 0.000222
N 4.734823 -0.953192 1.843664 -0.003105 0.000359 0.004151
N 4.687397 -0.921867 6.881333 -0.001352 0.000118 -0.002101
N 4.763869 -0.922735 -3.347007 -0.000824 0.000421 -0.000906
N -3.237508 1.759687 1.741484 0.000371 0.001821 -0.000049
N -3.200684 1.740725 6.889676 0.000344 -0.001139 -0.000993
N -3.192776 1.786765 -3.326456 0.000201 -0.000929 -0.000130
N -0.055066 -3.665833 1.768875 0.001430 -0.001026 0.000702
N -0.070238 -3.662220 6.947790 -0.000586 0.000077 -0.000279
N 0.013935 -3.707141 -3.303487 0.000377 -0.000029 0.000647
N -1.595307 -0.987755 1.820300 -0.004643 -0.002297 0.007322
N -1.563530 -0.924654 6.930857 -0.000290 -0.000002 -0.001005
N -1.637337 -0.919049 -3.336915 -0.000365 0.001023 -0.000505
