108
Energy=-1.169072e+06 Lattice="9.481792e+00 0.000000e+00 0.000000e+00 -4.742918e+00 8.210381e+00 0.000000e+00 -1.109194e-03 -9.552937e-04 1.528430e+01" Stress="-4.243497e-05 -1.277015e-04 8.934386e-05 -1.216948e-04 -2.796671e-04 1.700632e-05 6.441082e-05 1.819100e-05 8.397961e-05" Properties=species:S:1:pos:R:3:forces:R:3 Config_type=AlGaN_super3_16_1_30.xyz
Al 1.569245e+00 8.639898e-01 2.407561e+00 -1.273809e-04 1.085804e-05 1.302488e-05
Al 1.564670e+00 8.598482e-01 7.490742e+00 -5.041631e-05 3.012890e-05 5.723019e-05
Al 1.565057e+00 8.692365e-01 -2.706369e+00 1.609288e-04 -1.011320e-05 7.254606e-05
Al -1.916651e-02 3.613768e+00 2.388700e+00 -1.603024e-04 -8.817393e-05 -1.761280e-04
Al -2.543883e-02 3.610014e+00 7.522771e+00 6.024020e-05 1.445536e-04 2.291132e-05
Al -3.048414e-02 3.622444e+00 -2.714508e+00 1.123576e-05 1.485234e-05 8.877210e-06
Al 3.126520e+00 -1.858985e+00 2.407019e+00 2.877417e-05 -5.460825e-05 -6.560028e-05
Al 3.129108e+00 -1.855161e+00 7.504653e+00 -9.903224e-05 -1.525950e-04 3.065875e-05
Al 3.134856e+00 -1.874599e+00 -2.721813e+00 9.871253e-06 2.845774e-05 3.334083e-05
Al -4.779752e+00 8.766934e-01 2.425674e+00 9.587240e-05 -1.380492e-04 -7.778332e-05
Al -4.775677e+00 8.683634e-01 7.491501e+00 9.991866e-05 4.631375e-05 -3.578985e-05
Ga -4.775989e+00 8.694221e-01 -2.716468e+00 1.340400e-05 3.703895e-05 -3.467382e-06
Al -6.357691e+00 3.596939e+00 2.416657e+00 1.564941e-04 8.948363e-05 2.736586e-06
Ga -6.342798e+00 3.603155e+00 7.494529e+00 -3.268064e-05 3.986804e-05 -3.001415e-05
Ga -6.356484e+00 3.603932e+00 -2.712419e+00 8.408456e-06 -2.222573e-05 -1.039071e-05
Ga -3.178105e+00 -1.869936e+00 2.421122e+00 -1.354252e-05 1.455636e-04 -6.264523e-07
Ga -3.201216e+00 -1.867944e+00 7.474583e+00 2.506084e-05 -1.183829e-05 1.289064e-05
Al -3.198361e+00 -1.877284e+00 -2.692062e+00 -2.629211e-05 -8.171605e-05 9.948754e-05
Al -1.599037e+00 8.649555e-01 2.422199e+00 3.401921e-06 -1.785604e-04 -2.756170e-04
Ga -1.602751e+00 8.842725e-01 7.500432e+00 3.411294e-05 -2.356529e-05 2.908187e-05
Ga -1.598235e+00 8.860887e-01 -2.711387e+00 1.437499e-04 -5.747318e-06 1.592227e-05
Ga -3.176374e+00 3.613647e+00 2.427255e+00 6.139231e-05 -1.694936e-05 -8.860652e-05
Al -3.188746e+00 3.613735e+00 7.491554e+00 -6.003871e-06 1.436020e-04 -6.586364e-05
Al -3.166382e+00 3.621700e+00 -2.716831e+00 -6.984712e-05 -1.863133e-05 1.031966e-04
Al -1.314439e-02 -1.846304e+00 2.411024e+00 -1.882910e-05 -6.489641e-05 -3.282739e-05
Al 2.643332e-03 -1.866384e+00 7.484210e+00 -6.858915e-05 -4.221381e-05 -9.876659e-05
Ga -1.833462e-03 -1.859734e+00 -2.691567e+00 8.601797e-05 1.616654e-05 -1.749151e-05
Ga -1.131231e-02 1.784303e+00 4.938873e+00 -2.176964e-06 3.641519e-05 -3.024582e-05
Al -1.180211e-03 1.797262e+00 -5.245557e+00 -2.718014e-05 -1.588376e-05 -1.747268e-05
Ga -6.544961e-03 1.788611e+00 -1.361701e-01 -3.455773e-05 1.008399e-04 2.080940e-05
Ga 3.146194e+00 -3.675276e+00 4.976829e+00 -5.785885e-05 4.436563e-05 2.370179e-05
Al 3.137428e+00 -3.688024e+00 -5.262724e+00 8.331850e-06 -1.430829e-05 -2.266357e-05
Al 3.145226e+00 -3.675413e+00 -1.631009e-01 1.171195e-05 -1.371939e-04 -2.798591e-05
Al 1.559675e+00 -9.518704e-01 4.950879e+00 6.695568e-05 -1.195233e-04 -1.013329e-05
Al 1.571112e+00 -9.461809e-01 -5.263187e+00 4.780386e-05 1.032932e-04 5.946770e-05
Al 1.567497e+00 -9.493800e-01 -1.393760e-01 1.652829e-04 9.834291e-05 1.608113e-05
Al 3.145560e+00 1.779940e+00 4.946320e+00 7.754631e-05 5.661086e-05 1.234961e-04
Al 3.131930e+00 1.775659e+00 -5.269902e+00 -7.268591e-07 6.178765e-05 1.704253e-04
Al 3.123112e+00 1.782400e+00 -1.237938e-01 -2.161129e-04 -7.923232e-05 -1.185627e-04
Al 6.305422e+00 -3.693589e+00 4.943573e+00 2.905628e-05 4.369868e-05 1.548404e-04
Al 6.287300e+00 -3.692819e+00 -5.235366e+00 -6.995545e-05 -3.323380e-05 1.708896e-04
Al 6.294922e+00 -3.691481e+00 -1.494959e-01 3.014623e-05 1.132044e-05 -8.975316e-05
Al 4.707371e+00 -9.376677e-01 4.945240e+00 3.522164e-05 -4.491656e-05 -2.490571e-04
Al 4.706415e+00 -9.542814e-01 -5.246572e+00 -7.717636e-05 4.321146e-05 5.101219e-05
Ga 4.707702e+00 -9.651233e-01 -1.444258e-01 -1.141220e-04 3.280325e-06 2.366575e-06
Al -3.202794e+00 1.772200e+00 4.955077e+00 1.304188e-05 -1.119454e-04 7.616836e-05
Al -3.197461e+00 1.802800e+00 -5.261265e+00 1.347178e-04 -1.365358e-04 -1.488550e-04
Ga -3.185783e+00 1.789287e+00 -1.301325e-01 9.450518e-06 -4.595252e-05 -4.027620e-05
Al -3.391061e-02 -3.679423e+00 4.944181e+00 -2.546220e-05 1.168782e-05 -4.990971e-07
Al -6.509823e-03 -3.692755e+00 -5.257555e+00 -1.148157e-04 -3.935937e-05 -2.250661e-05
Ga -2.563244e-02 -3.683897e+00 -1.286113e-01 3.496642e-05 -3.440068e-05 -8.789927e-05
Al -1.594427e+00 -9.585185e-01 4.948838e+00 2.719655e-05 1.188812e-04 -1.873866e-05
Ga -1.600963e+00 -9.628284e-01 -5.251352e+00 3.020886e-05 4.462394e-05 3.108606e-05
Al -1.599276e+00 -9.601029e-01 -1.321341e-01 -1.396056e-04 -2.372701e-05 1.025996e-05
N 1.605180e+00 8.439882e-01 4.320809e+00 -6.670412e-05 5.251050e-06 -1.613564e-04
N 1.556824e+00 8.696133e-01 -5.875945e+00 3.509624e-05 4.959362e-06 9.167172e-06
N 1.601419e+00 8.470551e-01 -7.783855e-01 1.984705e-04 9.973098e-05 9.383366e-05
N 1.137581e-02 3.640341e+00 4.291790e+00 3.263214e-05 9.637426e-06 2.218596e-05
N -2.008530e-02 3.611121e+00 -5.846849e+00 -9.505844e-06 -3.781691e-06 -4.489370e-06
N -2.536790e-02 3.656903e+00 -7.878012e-01 -3.219922e-05 -7.263052e-06 1.111362e-04
N 3.132647e+00 -1.820930e+00 4.321915e+00 -6.676563e-05 6.647197e-05 6.562886e-05
N 3.139134e+00 -1.860599e+00 -5.859501e+00 2.606622e-05 8.722139e-06 -5.601956e-06
N 3.092377e+00 -1.886489e+00 -7.968907e-01 -1.052221e-04 1.670721e-04 -2.079081e-05
N -4.768246e+00 8.751787e-01 4.340709e+00 -1.544237e-05 5.844030e-06 1.675482e-05
N -4.763864e+00 8.677871e-01 -5.864616e+00 2.976364e-05 -8.296150e-06 -1.798440e-05
N -4.809502e+00 8.978617e-01 -7.464516e-01 4.662199e-05 2.094955e-05 1.968974e-06
N -6.347716e+00 3.605280e+00 4.344489e+00 1.848448e-06 -3.268784e-05 -4.019140e-07
N -6.346180e+00 3.614718e+00 -5.805347e+00 3.538301e-05 -1.259064e-04 -5.268047e-05
N -6.385261e+00 3.580866e+00 -7.304154e-01 6.381752e-06 -7.118118e-05 6.253588e-05
N -3.183420e+00 -1.863689e+00 4.403812e+00 -6.170719e-05 -3.398664e-05 3.277878e-05
N -3.229384e+00 -1.889874e+00 -5.839429e+00 5.477205e-05 3.864182e-06 -3.138775e-05
N -3.142574e+00 -1.889040e+00 -7.657727e-01 1.000155e-05 5.059911e-05 -2.707194e-05
N -1.645765e+00 8.483916e-01 4.338649e+00 3.801670e-05 -6.688878e-05 1.410484e-04
N -1.600032e+00 9.238142e-01 -5.810951e+00 -1.041130e-04 4.667643e-05 1.004322e-05
N -1.601479e+00 8.302446e-01 -7.409926e-01 1.319719e-04 -6.022170e-05 -1.282365e-05
N -3.218144e+00 3.589287e+00 4.394608e+00 4.376438e-05 1.996485e-05 -5.044271e-05
N -3.185032e+00 3.611672e+00 -5.873770e+00 -1.397496e-05 -1.586547e-05 1.591599e-05
N -3.144700e+00 3.634975e+00 -7.950673e-01 8.303860e-06 -2.182808e-05 -7.012839e-05
N -1.672732e-02 -1.857062e+00 4.335422e+00 7.390115e-06 -2.810056e-05 -8.882872e-06
N 2.579297e-02 -1.886903e+00 -5.882907e+00 -2.706154e-05 -1.124088e-04 -1.493743e-05
N -1.511676e-02 -1.814964e+00 -7.177625e-01 -7.240638e-05 -7.131262e-05 -5.334133e-05
N -1.971480e-02 1.781874e+00 1.853464e+00 1.510243e-04 3.387306e-06 1.037149e-04
N 2.203546e-02 1.812507e+00 6.915201e+00 7.215771e-06 -8.651070e-05 -8.250546e-05
N 2.910830e-02 1.812607e+00 -3.322992e+00 -8.412941e-05 5.610368e-05 -2.145082e-05
N 3.177596e+00 -3.661269e+00 1.762286e+00 1.225460e-04 1.846999e-04 1.360805e-04
N 3.143918e+00 -3.686294e+00 6.956920e+00 1.190658e-04 1.150628e-04 2.613151e-05
N 3.139444e+00 -3.688260e+00 -3.334008e+00 -5.677932e-05 3.221333e-05 -4.992067e-05
N 1.562150e+00 -9.508583e-01 1.786151e+00 -6.300618e-06 2.421686e-05 1.979868e-05
N 1.561559e+00 -9.521549e-01 6.875944e+00 -3.882760e-05 1.861372e-05 1.119555e-05
N 1.601207e+00 -9.242442e-01 -3.345160e+00 -4.803035e-05 -8.236548e-05 -2.156161e-05
N 3.136215e+00 1.784629e+00 1.800872e+00 -1.204259e-05 -2.840098e-05 2.353381e-05
N 3.135813e+00 1.736731e+00 6.865546e+00 5.855004e-05 1.454898e-05 -1.458916e-04
N 3.093266e+00 1.758949e+00 -3.367408e+00 2.486576e-06 -1.308299e-05 -1.425270e-04
N 6.302124e+00 -3.734543e+00 1.768655e+00 -1.406583e-04 1.129715e-06 -7.984730e-05
N 6.254125e+00 -3.723228e+00 6.846883e+00 -6.701861e-05 -5.149390e-06 -7.100145e-05
N 6.255507e+00 -3.664019e+00 -3.325349e+00 7.464257e-06 2.759287e-05 -9.310601e-05
N 4.677642e+00 -9.304635e-01 1.832978e+00 -3.396617e-05 1.087699e-04 1.040967e-04
N 4.665711e+00 -9.260771e-01 6.860104e+00 1.021058e-05 1.141632e-04 2.052985e-04
N 4.717549e+00 -1.001531e+00 -3.325337e+00 1.686531e-05 -1.504049e-05 -7.252987e-05
N -3.185581e+00 1.738728e+00 1.842010e+00 -7.235132e-05 -2.006457e-05 6.864085e-05
N -3.230579e+00 1.804804e+00 6.872946e+00 -1.557573e-04 -2.342132e-04 -1.116509e-05
N -3.189847e+00 1.836567e+00 -3.352692e+00 -1.756153e-05 8.143479e-05 8.781918e-05
N -6.407133e-02 -3.664569e+00 1.847160e+00 -7.705151e-06 -5.119420e-05 5.617788e-05
N 1.419126e-02 -3.663682e+00 6.861235e+00 9.878746e-06 3.841795e-05 1.471379e-04
N 2.050406e-02 -3.708397e+00 -3.343956e+00 8.397307e-05 -3.073480e-05 1.837408e-05
N -1.563607e+00 -9.308325e-01 1.786048e+00 2.247129e-05 2.009993e-04 9.224438e-05
N -1.556733e+00 -9.745042e-01 6.859560e+00 1.080348e-05 -3.978347e-05 7.028949e-05
N -1.641872e+00 -9.820348e-01 -3.289859e+00 -1.806645e-04 -4.397823e-05 2.140915e-05
