108
Energy=-1.626827e+06 Lattice="9.516314e+00 0.000000e+00 0.000000e+00 -4.764821e+00 8.238487e+00 0.000000e+00 -8.147388e-04 -3.327299e-04 1.536573e+01" Stress="-8.887057e-03 -3.483797e-04 7.718844e-05 -3.537640e-04 -9.844079e-03 -4.785950e-05 5.872139e-05 -5.679071e-05 -1.055352e-02" Properties=species:S:1:pos:R:3:forces:R:3 Config_type=AlGaN_super3_26_1_11.xyz
Al 1.565553e+00 8.657545e-01 2.420209e+00 2.616001e-05 1.208108e-03 4.248879e-04
Al 1.571911e+00 8.806780e-01 7.526518e+00 5.084435e-04 6.559146e-05 -7.446517e-06
Al 1.566855e+00 8.691080e-01 -2.713537e+00 3.975755e-04 5.529812e-04 7.424601e-04
Al -3.045795e-02 3.618625e+00 2.438578e+00 1.373544e-03 3.839610e-04 6.205273e-04
Al -2.235057e-03 3.633145e+00 7.517346e+00 -4.117126e-03 1.083203e-03 -5.803278e-03
Al -6.220094e-03 3.618207e+00 -2.707765e+00 2.208247e-04 3.779010e-05 5.527509e-04
Al 3.148724e+00 -1.868677e+00 2.424251e+00 1.471581e-03 1.563223e-03 1.471787e-03
Al 3.150289e+00 -1.881037e+00 7.515528e+00 4.317731e-03 2.312818e-03 -5.264330e-03
Ga 3.145590e+00 -1.865055e+00 -2.697284e+00 -2.437816e-04 3.506037e-04 3.210686e-04
Al -4.786747e+00 8.757728e-01 2.439087e+00 -1.413525e-04 -1.031274e-04 -1.663376e-04
Ga -4.813760e+00 8.688200e-01 7.513000e+00 1.377643e-04 -9.202383e-04 -2.818999e-04
Al -4.797629e+00 8.827364e-01 -2.708092e+00 9.566085e-05 5.424939e-04 6.573204e-04
Ga -6.371624e+00 3.616598e+00 2.429622e+00 -5.110996e-04 -1.770762e-04 -4.581477e-05
Al -6.387522e+00 3.622278e+00 7.513921e+00 1.608981e-04 -4.006947e-04 3.700828e-04
Ga -6.385762e+00 3.615869e+00 -2.712124e+00 -1.577175e-04 -8.452098e-05 5.158953e-04
Ga -3.207738e+00 -1.876569e+00 2.438705e+00 -8.084721e-04 -2.043847e-04 -5.569725e-04
Al -3.187735e+00 -1.892232e+00 7.527181e+00 -2.835783e-03 1.364624e-03 -1.122633e-03
Ga -3.184198e+00 -1.883569e+00 -2.720025e+00 -9.711738e-05 2.119356e-05 7.777591e-05
Al -1.617587e+00 8.953323e-01 2.408199e+00 7.994920e-04 3.249587e-04 -1.954519e-04
Ga -1.599005e+00 8.670375e-01 7.546439e+00 3.596485e-04 -3.665567e-05 4.561101e-04
Ga -1.609898e+00 8.771663e-01 -2.706738e+00 3.848033e-04 -4.097216e-04 1.584989e-04
Al -3.196558e+00 3.621571e+00 2.422377e+00 -2.438624e-05 4.260970e-04 -2.091213e-03
Ga -3.194932e+00 3.651572e+00 7.509666e+00 6.181279e-04 -3.051368e-04 -2.927890e-04
Ga -3.202673e+00 3.623468e+00 -2.683700e+00 -2.636968e-04 -6.065183e-04 5.230658e-04
Ga 6.145115e-04 -1.867041e+00 2.420114e+00 3.106632e-04 -1.722295e-04 1.048699e-04
Al -2.375093e-02 -1.870938e+00 7.521703e+00 1.308030e-05 -1.085129e-04 8.186746e-05
Al -1.361179e-02 -1.856661e+00 -2.700357e+00 -4.362155e-04 -4.386998e-04 1.029423e-03
Ga -1.270389e-02 1.801694e+00 4.968284e+00 3.338927e-04 1.243969e-03 -7.788043e-05
Ga -2.791038e-03 1.801102e+00 -5.274583e+00 -1.939183e-04 -5.050252e-04 6.090847e-04
Ga -1.503320e-02 1.794169e+00 -1.340380e-01 8.956243e-05 3.094426e-04 1.401438e-03
Al 3.160643e+00 -3.693806e+00 4.948414e+00 1.487645e-03 1.801426e-03 3.698554e-04
Ga 3.177862e+00 -3.703178e+00 -5.277842e+00 -9.286048e-04 1.200370e-04 7.430514e-04
Ga 3.156316e+00 -3.709486e+00 -1.144359e-01 -1.475147e-05 -9.163395e-05 3.436107e-04
Ga 1.586763e+00 -9.610408e-01 4.987579e+00 1.159690e-03 1.492868e-04 2.529337e-04
Ga 1.563126e+00 -9.497726e-01 -5.293727e+00 -1.187080e-03 5.716632e-04 6.903779e-04
Al 1.562725e+00 -9.577525e-01 -1.373994e-01 -7.999335e-04 1.563095e-04 -2.014413e-04
Al 3.145066e+00 1.798951e+00 4.967418e+00 -1.315899e-03 -1.306061e-03 -3.770479e-04
Al 3.134626e+00 1.799068e+00 -5.276351e+00 2.368619e-04 4.119726e-05 7.718235e-04
Ga 3.149089e+00 1.789783e+00 -1.351158e-01 3.175071e-04 5.227771e-05 -4.243733e-04
Al 6.323806e+00 -3.701769e+00 4.999314e+00 -1.151409e-03 -1.743335e-03 3.576851e-04
Al 6.327390e+00 -3.709010e+00 -5.309853e+00 1.448112e-03 8.376110e-04 -1.686357e-04
Al 6.324840e+00 -3.708866e+00 -1.343064e-01 3.328262e-04 -1.124067e-04 4.748290e-04
Al 4.731684e+00 -9.644082e-01 4.973028e+00 -1.750499e-03 -9.824591e-04 5.638893e-04
Ga 4.749452e+00 -9.581384e-01 -5.285972e+00 3.149983e-04 3.251482e-04 1.253987e-04
Ga 4.737212e+00 -9.444186e-01 -1.327199e-01 3.729437e-04 3.291851e-04 2.028146e-03
Ga -3.214763e+00 1.803616e+00 4.949165e+00 2.529418e-04 -5.853320e-04 7.634146e-04
Ga -3.213193e+00 1.788196e+00 -5.269841e+00 5.375548e-05 -1.356121e-04 4.113873e-04
Al -3.216725e+00 1.798030e+00 -1.141511e-01 -1.651751e-05 -3.057405e-04 -1.339441e-04
Al -2.608969e-02 -3.707629e+00 4.988047e+00 1.115285e-05 -8.160303e-06 5.866060e-04
Ga -4.696107e-02 -3.689153e+00 -5.286280e+00 -1.345052e-04 -1.422601e-04 8.362120e-04
Al -1.995977e-02 -3.694074e+00 -1.423926e-01 9.408064e-05 4.560596e-05 -1.189154e-03
Ga -1.616866e+00 -9.658582e-01 4.985198e+00 -4.729068e-04 4.454146e-04 7.139909e-06
Al -1.603892e+00 -9.722190e-01 -5.283852e+00 -4.606845e-04 -6.947745e-04 8.125581e-04
Ga -1.596332e+00 -9.630756e-01 -1.362056e-01 -1.484498e-04 -2.872060e-04 -1.893435e-04
N 1.598751e+00 8.883852e-01 4.325440e+00 1.728126e-03 9.977954e-04 -1.786388e-04
N 1.606254e+00 9.012161e-01 -5.931516e+00 2.892159e-04 3.901387e-05 -3.679677e-04
N 1.562770e+00 8.257778e-01 -7.972887e-01 4.264724e-04 2.683353e-04 1.379445e-04
N -1.568264e-02 3.670754e+00 4.349234e+00 1.408062e-04 -3.456729e-05 1.446761e-04
N 1.438560e-02 3.643754e+00 -5.954059e+00 2.273296e-04 2.035946e-04 2.269238e-03
N 1.923982e-02 3.645221e+00 -7.957390e-01 -3.043967e-04 1.826755e-04 1.647095e-04
N 3.191897e+00 -1.890560e+00 4.340272e+00 -4.926968e-04 1.477709e-04 -1.041764e-03
N 3.157646e+00 -1.874301e+00 -5.953240e+00 -2.807649e-04 -3.012616e-04 1.805100e-03
N 3.113513e+00 -1.853147e+00 -7.321815e-01 -1.516769e-04 1.462716e-05 7.096866e-04
N -4.830411e+00 8.483366e-01 4.353723e+00 2.606863e-04 9.744226e-04 -5.415540e-04
N -4.835967e+00 8.993789e-01 -5.888294e+00 4.154426e-04 1.321556e-04 -1.360362e-04
N -4.745416e+00 9.034106e-01 -7.959932e-01 1.186561e-04 2.503012e-04 1.022504e-04
N -6.372187e+00 3.628835e+00 4.415681e+00 2.019576e-05 1.256747e-04 -7.091876e-04
N -6.410760e+00 3.591400e+00 -5.922418e+00 -3.473404e-04 1.796347e-04 -4.522638e-04
N -6.373323e+00 3.668768e+00 -7.284133e-01 -1.881598e-04 -1.690695e-04 -1.398224e-04
N -3.235620e+00 -1.904481e+00 4.407261e+00 7.954112e-04 1.125782e-03 -9.514883e-04
N -3.149636e+00 -1.897466e+00 -5.915422e+00 -7.409655e-05 -7.770655e-06 7.139235e-07
N -3.191023e+00 -1.921114e+00 -7.459592e-01 -7.489382e-05 1.056315e-04 -7.950920e-06
N -1.612848e+00 8.790635e-01 4.310558e+00 -2.032663e-05 -8.235994e-04 -3.327393e-04
N -1.609869e+00 8.327890e-01 -5.850278e+00 3.793537e-04 2.364560e-04 -1.986100e-04
N -1.658401e+00 9.058202e-01 -7.304666e-01 4.065245e-04 -2.883675e-04 3.023323e-04
N -3.204424e+00 3.680494e+00 4.342335e+00 -9.168266e-04 -5.523408e-04 -9.157717e-04
N -3.198506e+00 3.633864e+00 -5.893176e+00 2.047337e-04 -2.689793e-04 -3.705428e-04
N -3.236767e+00 3.599073e+00 -7.069854e-01 5.215053e-05 -5.712629e-05 2.261966e-04
N -1.420997e-02 -1.914985e+00 4.385411e+00 -3.517318e-04 -7.850225e-04 -7.382427e-04
N -5.877468e-02 -1.843501e+00 -5.939724e+00 3.421993e-04 -4.211474e-04 -5.482824e-04
N 2.368988e-02 -1.889440e+00 -7.753825e-01 8.362871e-05 -1.558788e-04 -3.573194e-05
N -1.777292e-02 1.793765e+00 1.862086e+00 -4.049638e-04 1.052884e-04 -2.249707e-03
N 1.745645e-02 1.808324e+00 6.943901e+00 -2.874337e-04 1.911304e-03 6.654777e-04
N 2.149767e-02 1.814328e+00 -3.292458e+00 5.959249e-05 3.539080e-04 7.897912e-05
N 3.161929e+00 -3.701256e+00 1.871080e+00 -2.259436e-03 -1.436620e-03 -9.520307e-04
N 3.193968e+00 -3.673173e+00 6.865705e+00 2.651810e-03 -2.877496e-03 2.267204e-03
N 3.197926e+00 -3.729631e+00 -3.303634e+00 2.181857e-04 3.344440e-04 -3.623719e-04
N 1.609131e+00 -9.289999e-01 1.781109e+00 -1.865135e-04 -8.248913e-04 -1.707413e-04
N 1.566952e+00 -9.522467e-01 6.966936e+00 -1.920810e-04 -3.943428e-04 9.026465e-04
N 1.526892e+00 -9.345084e-01 -3.311727e+00 -1.590867e-04 6.569157e-05 -9.670541e-04
N 3.147874e+00 1.743571e+00 1.836325e+00 2.545651e-04 -1.442711e-04 4.776056e-04
N 3.099741e+00 1.818135e+00 6.878156e+00 -1.545445e-04 -8.728012e-05 -6.384182e-04
N 3.141579e+00 1.746164e+00 -3.348156e+00 -5.271370e-05 -2.348084e-04 -1.007634e-04
N 6.281362e+00 -3.730380e+00 1.772425e+00 -3.782489e-04 1.141001e-04 9.340137e-05
N 6.328448e+00 -3.701541e+00 6.914927e+00 -1.498347e-04 -3.252676e-04 5.768021e-05
N 6.283820e+00 -3.727305e+00 -3.396103e+00 -4.636068e-04 -4.497611e-04 -1.935276e-04
N 4.700896e+00 -9.236457e-01 1.848067e+00 -1.401232e-03 -1.256201e-03 -2.350487e-03
N 4.744854e+00 -1.000412e+00 6.888248e+00 -1.973085e-03 -2.221107e-03 2.882659e-03
N 4.740124e+00 -9.092584e-01 -3.312596e+00 -3.853147e-04 -7.135855e-04 -3.270873e-04
N -3.210013e+00 1.789740e+00 1.816277e+00 3.500392e-05 1.760118e-03 8.836026e-04
N -3.199367e+00 1.792569e+00 6.910340e+00 5.086748e-04 3.130800e-04 -6.446811e-04
N -3.244319e+00 1.772735e+00 -3.307600e+00 3.681757e-04 1.769121e-04 -2.374247e-04
N 1.243725e-02 -3.719309e+00 1.761590e+00 1.996346e-03 -1.107956e-03 2.218132e-03
N -6.739328e-02 -3.677955e+00 6.903173e+00 4.270526e-05 1.598631e-04 -6.686439e-04
N -2.589952e-02 -3.649325e+00 -3.310217e+00 4.420601e-04 9.568354e-05 -4.759767e-05
N -1.606053e+00 -9.114888e-01 1.830536e+00 -3.112732e-04 -2.464182e-04 -8.070422e-05
N -1.609690e+00 -9.997269e-01 6.950911e+00 8.608545e-05 1.121468e-04 -4.729073e-04
N -1.561368e+00 -9.806303e-01 -3.362590e+00 -8.191880e-05 -9.997185e-05 7.266015e-05
