108
Energy=-1.718378e+06 Lattice="9.550494e+00 0.000000e+00 0.000000e+00 -4.778304e+00 8.269897e+00 0.000000e+00 4.617890e-03 -1.187481e-02 1.544394e+01" Stress="2.256176e-04 -1.520083e-04 1.695935e-04 -1.558188e-04 1.690573e-04 -3.861941e-04 1.748553e-04 -3.855781e-04 -2.364675e-04" Properties=species:S:1:pos:R:3:forces:R:3 Config_type=AlGaN_super3_28_0_22.xyz
Al 1.568321e+00 8.725399e-01 2.450195e+00 2.948054e-05 -2.452065e-05 -4.012148e-05
Al 1.561103e+00 8.678616e-01 7.564669e+00 -9.168740e-07 -4.475350e-05 3.499374e-05
Al 1.565553e+00 8.806405e-01 -2.732868e+00 1.740043e-05 -8.370277e-05 1.682080e-05
Al -1.672310e-02 3.641810e+00 2.432824e+00 3.201960e-06 -3.965131e-05 -1.244901e-05
Al -2.131470e-02 3.623639e+00 7.572114e+00 2.799066e-04 -1.987204e-04 4.647100e-04
Ga -1.913909e-02 3.634723e+00 -2.725614e+00 -3.266336e-06 -6.997868e-06 7.286362e-06
Al 3.160125e+00 -1.879797e+00 2.472366e+00 1.328271e-05 1.635317e-05 -1.071259e-05
Ga 3.162944e+00 -1.874279e+00 7.549923e+00 -3.583723e-05 1.011261e-04 3.872893e-05
Al 3.156336e+00 -1.869887e+00 -2.743246e+00 -1.400117e-05 -2.596227e-05 9.608102e-06
Ga -4.803034e+00 8.740990e-01 2.424508e+00 5.099301e-05 -1.307801e-05 -6.873392e-06
Al -4.792756e+00 8.623816e-01 7.597596e+00 -5.790191e-05 -8.397027e-05 8.921312e-05
Ga -4.792605e+00 8.888769e-01 -2.741387e+00 4.832173e-05 -2.803161e-05 -1.436540e-05
Ga -6.410266e+00 3.633356e+00 2.454459e+00 -1.527119e-05 -4.365940e-05 1.881694e-05
Ga -6.393320e+00 3.633557e+00 7.576312e+00 -3.110668e-05 -1.777698e-06 4.277601e-05
Al -6.395546e+00 3.641124e+00 -2.748050e+00 -2.303506e-05 -3.508924e-06 1.083819e-05
Ga -3.215756e+00 -1.894318e+00 2.461287e+00 -2.071645e-05 7.494707e-06 6.723673e-05
Ga -3.202175e+00 -1.875464e+00 7.577486e+00 -3.880951e-05 -1.963057e-05 1.593192e-05
Ga -3.206574e+00 -1.880702e+00 -2.755615e+00 -7.332562e-06 -2.931107e-05 6.923309e-06
Ga -1.607435e+00 8.868637e-01 2.446463e+00 6.541744e-05 -1.008483e-04 6.038327e-05
Al -1.606105e+00 8.655098e-01 7.586121e+00 3.767611e-04 -2.947069e-05 -6.653011e-04
Al -1.619260e+00 8.903004e-01 -2.749200e+00 -4.618436e-05 -5.742388e-05 1.018473e-04
Ga -3.193448e+00 3.637928e+00 2.451299e+00 4.572858e-06 -6.024836e-05 2.303495e-05
Ga -3.203533e+00 3.630427e+00 7.579973e+00 -3.272179e-05 9.905311e-05 4.452292e-05
Al -3.212496e+00 3.628927e+00 -2.751141e+00 1.051570e-05 -5.591207e-05 -4.076558e-05
Ga -7.946915e-03 -1.870889e+00 2.460159e+00 -1.650238e-05 -4.411170e-05 5.326330e-05
Al -2.281863e-02 -1.870426e+00 7.571537e+00 3.988471e-04 -1.751551e-05 -5.120008e-05
Ga -1.654105e-02 -1.873270e+00 -2.750387e+00 9.036351e-06 -4.646654e-05 -1.903498e-05
Ga -1.767226e-02 1.802783e+00 5.019532e+00 -9.113125e-05 -7.845715e-05 5.414774e-05
Ga -3.468815e-02 1.797713e+00 -5.310402e+00 2.110701e-04 1.865905e-04 -3.225371e-05
Ga -2.748350e-02 1.799758e+00 -1.459256e-01 -7.671656e-07 -3.485661e-05 5.484367e-05
Al 3.175555e+00 -3.707966e+00 4.998430e+00 9.544861e-05 1.483310e-04 1.259436e-05
Ga 3.162405e+00 -3.710172e+00 -5.291683e+00 5.977862e-05 9.417586e-05 1.095796e-05
Ga 3.159836e+00 -3.713140e+00 -1.488343e-01 2.663298e-05 -2.784789e-05 4.248380e-05
Al 1.568577e+00 -9.730564e-01 5.013042e+00 -1.587606e-04 -2.419921e-04 9.855793e-05
Ga 1.563676e+00 -9.580926e-01 -5.308905e+00 -4.730947e-05 -8.311519e-05 -2.576972e-05
Ga 1.581554e+00 -9.546685e-01 -1.402145e-01 1.942308e-06 -2.819433e-05 1.507331e-05
Ga 3.161764e+00 1.785173e+00 5.024739e+00 5.094872e-05 -4.558236e-05 7.303507e-05
Ga 3.166823e+00 1.806555e+00 -5.301514e+00 2.727572e-05 1.790085e-05 8.518353e-05
Ga 3.151849e+00 1.812601e+00 -1.614794e-01 6.019597e-05 -6.330999e-05 2.478405e-05
Al 6.335479e+00 -3.710349e+00 5.015927e+00 7.940524e-05 2.835766e-04 1.142225e-04
Al 6.349614e+00 -3.700718e+00 -5.309867e+00 -4.843144e-05 3.920902e-05 -3.422428e-05
Al 6.349458e+00 -3.717410e+00 -1.463337e-01 2.428799e-05 -3.349244e-05 3.443789e-05
Al 4.753249e+00 -9.742293e-01 5.008987e+00 -1.827279e-05 -3.830146e-06 3.640589e-05
Al 4.765823e+00 -9.522339e-01 -5.303288e+00 -7.228514e-05 -3.667576e-05 -1.364152e-05
Ga 4.752072e+00 -9.687633e-01 -1.453119e-01 2.423174e-05 -4.919087e-05 4.975288e-05
Ga -3.208444e+00 1.787876e+00 5.042911e+00 3.895695e-05 -7.420529e-05 5.217057e-05
Al -3.204591e+00 1.788441e+00 -5.314130e+00 -4.044693e-04 3.567063e-04 3.633660e-04
Al -3.198927e+00 1.805288e+00 -1.723892e-01 5.407274e-05 -7.780078e-05 5.067156e-05
Al -1.944329e-02 -3.698708e+00 5.023635e+00 1.423721e-05 4.917853e-05 6.853061e-05
Al -3.274391e-02 -3.708461e+00 -5.294331e+00 4.238540e-05 7.430754e-05 -5.346639e-05
Ga -2.840426e-02 -3.730901e+00 -1.700165e-01 7.128659e-05 -4.330747e-05 6.986659e-05
Al -1.607375e+00 -9.778257e-01 5.037527e+00 -5.420372e-05 1.046501e-05 3.892087e-05
Al -1.623456e+00 -9.531194e-01 -5.318216e+00 2.132260e-04 -1.109752e-03 8.434237e-06
Ga -1.627654e+00 -9.512790e-01 -1.614032e-01 3.479198e-05 -2.837026e-05 8.030510e-05
N 1.568317e+00 8.271994e-01 4.365356e+00 -6.367540e-06 1.223247e-04 -7.672481e-05
N 1.567106e+00 8.826480e-01 -5.977186e+00 2.314279e-05 -2.330604e-05 -7.665527e-05
N 1.562955e+00 8.777568e-01 -8.247451e-01 5.546085e-05 3.379086e-05 -1.809741e-05
N -1.806158e-02 3.680230e+00 4.359017e+00 -1.632067e-04 -8.983150e-05 -4.816685e-05
N 1.297929e-02 3.666046e+00 -5.953323e+00 -6.419274e-05 -2.582009e-05 -2.818141e-04
N 1.647717e-02 3.661278e+00 -7.518911e-01 2.549586e-05 3.098199e-05 -2.106635e-05
N 3.160284e+00 -1.880047e+00 4.404485e+00 1.189977e-05 4.848814e-05 -2.301651e-05
N 3.203381e+00 -1.849644e+00 -5.922225e+00 3.483644e-05 -2.808514e-05 -2.230940e-05
N 3.160366e+00 -1.875908e+00 -8.341548e-01 1.993973e-05 2.962365e-05 -2.186033e-05
N -4.792719e+00 8.298554e-01 4.395761e+00 4.708379e-05 7.197014e-05 -2.067089e-05
N -4.759294e+00 8.563097e-01 -5.924448e+00 1.342990e-04 -1.323087e-04 -9.463525e-05
N -4.757741e+00 9.010458e-01 -7.582608e-01 2.660871e-05 3.444747e-05 -3.286444e-05
N -6.392263e+00 3.680715e+00 4.439646e+00 8.153136e-05 -2.773558e-05 -4.375772e-05
N -6.392341e+00 3.690520e+00 -5.892716e+00 3.215546e-05 -3.692267e-06 -7.453721e-05
N -6.439498e+00 3.665259e+00 -8.251260e-01 7.543353e-06 4.537835e-05 -1.835844e-05
N -3.199877e+00 -1.882960e+00 4.453397e+00 4.453514e-05 5.344246e-05 -3.140324e-05
N -3.208039e+00 -1.872571e+00 -5.876395e+00 -6.335351e-06 -1.118009e-05 -2.430757e-05
N -3.209119e+00 -1.927844e+00 -7.741312e-01 1.640957e-05 4.031530e-05 -3.570942e-05
N -1.615147e+00 8.267704e-01 4.418853e+00 4.447308e-05 4.293440e-05 -3.525648e-05
N -1.655318e+00 8.541111e-01 -5.943488e+00 -2.949936e-04 1.078373e-03 -8.496192e-05
N -1.655781e+00 9.052563e-01 -8.230707e-01 5.340372e-05 -4.792454e-06 -6.238535e-05
N -3.206986e+00 3.674893e+00 4.437391e+00 -8.001127e-05 -1.076164e-05 -3.932688e-05
N -3.252415e+00 3.619936e+00 -5.883739e+00 6.987262e-05 -1.912525e-04 -7.757458e-06
N -3.207188e+00 3.590438e+00 -8.241466e-01 3.054854e-07 4.193192e-05 -3.889273e-05
N -2.209386e-02 -1.879057e+00 4.445061e+00 9.665904e-05 1.404439e-04 -4.505488e-05
N -6.512545e-02 -1.899155e+00 -5.939673e+00 1.650397e-05 -5.849600e-05 3.244547e-05
N -2.102553e-02 -1.874569e+00 -7.793433e-01 3.835333e-05 -9.267519e-06 -3.931856e-05
N 2.079295e-02 1.819485e+00 1.848369e+00 -8.921890e-05 8.417649e-05 -2.728631e-05
N -2.296856e-02 1.795425e+00 7.009489e+00 -3.162420e-04 -4.263426e-05 1.027123e-04
N -2.388496e-02 1.753810e+00 -3.327533e+00 -7.628732e-05 -5.007293e-06 -6.225098e-05
N 3.202488e+00 -3.686211e+00 1.847861e+00 -6.576638e-05 3.039247e-05 -9.990461e-06
N 3.208703e+00 -3.747261e+00 6.916538e+00 -1.301114e-04 2.067359e-05 7.744916e-06
N 3.122682e+00 -3.690314e+00 -3.313665e+00 -1.923755e-05 4.632701e-05 1.487462e-06
N 1.618702e+00 -9.387719e-01 1.851085e+00 -1.149929e-04 7.464698e-05 -1.071123e-05
N 1.527872e+00 -9.406090e-01 6.934576e+00 -1.702380e-04 -2.872388e-05 7.575116e-05
N 1.610095e+00 -9.283260e-01 -3.333972e+00 -5.126117e-05 3.176038e-05 1.763243e-05
N 3.113737e+00 1.777741e+00 1.822780e+00 -4.398530e-05 2.473862e-07 -2.960517e-05
N 3.166570e+00 1.741896e+00 7.006019e+00 -1.052095e-05 3.150246e-05 -8.755149e-05
N 3.117737e+00 1.822865e+00 -3.319546e+00 -1.891133e-05 -1.929757e-05 -2.382911e-05
N 6.309747e+00 -3.738197e+00 1.774025e+00 -4.860744e-05 6.161196e-06 -3.444824e-05
N 6.301809e+00 -3.743523e+00 6.925541e+00 -3.872981e-05 -5.302191e-05 -3.267129e-05
N 6.381143e+00 -3.739360e+00 -3.403154e+00 4.149051e-06 -1.625625e-05 -1.489056e-05
N 4.709301e+00 -9.932309e-01 1.833958e+00 -8.525883e-05 4.079042e-05 -4.087593e-05
N 4.758379e+00 -9.136382e-01 6.918492e+00 -3.563920e-06 2.764456e-05 -6.369551e-05
N 4.710877e+00 -9.760211e-01 -3.391045e+00 -1.616662e-05 -2.198910e-05 7.251503e-06
N -3.199976e+00 1.802676e+00 1.748193e+00 -6.604127e-05 4.921155e-05 -7.139403e-05
N -3.205344e+00 1.742552e+00 7.014512e+00 6.978172e-05 -5.049416e-06 1.249514e-04
N -3.163706e+00 1.822309e+00 -3.390534e+00 1.426876e-04 -1.462617e-04 -8.139519e-05
N -2.220173e-02 -3.720438e+00 1.808591e+00 -2.961264e-05 3.290494e-05 -5.980745e-05
N -1.826458e-02 -3.669799e+00 6.932082e+00 1.464191e-05 -2.326369e-05 -4.235872e-05
N -2.324879e-02 -3.759586e+00 -3.370127e+00 -1.010430e-05 1.803181e-05 -6.136917e-06
N -1.616155e+00 -9.610729e-01 1.812582e+00 -7.414361e-05 6.216461e-05 -8.766683e-05
N -1.570799e+00 -9.411175e-01 6.955079e+00 -1.739719e-04 1.331917e-04 -6.089746e-06
N -1.613042e+00 -9.047132e-01 -3.399913e+00 -4.237065e-05 1.085458e-04 2.160851e-04
