108
Energy=-1.397949e+06 Lattice="9.508533e+00 0.000000e+00 0.000000e+00 -4.756516e+00 8.231611e+00 0.000000e+00 -2.724117e-04 3.644327e-03 1.534714e+01" Stress="-1.034749e-03 -1.433223e-04 7.984537e-05 -1.502743e-04 -1.385568e-03 -3.247091e-05 7.368042e-05 -2.889907e-05 -8.092293e-04" Properties=species:S:1:pos:R:3:forces:R:3 Config_type=AlGaN_super3_21_1_46.xyz
Al 1.566681e+00 8.690538e-01 2.390574e+00 -1.705280e-04 3.271029e-04 1.758876e-05
Al 1.547625e+00 8.829468e-01 7.536494e+00 1.237401e-04 1.141992e-04 1.788651e-04
Al 1.580552e+00 8.675604e-01 -2.695625e+00 2.263077e-05 2.674017e-04 1.294651e-04
Al -3.452715e-02 3.626319e+00 2.416093e+00 2.469731e-04 1.187047e-04 -1.136604e-04
Al -1.864178e-02 3.609585e+00 7.504599e+00 1.886029e-05 -5.018414e-05 1.265979e-04
Ga -2.437745e-02 3.622791e+00 -2.692492e+00 -8.189209e-05 9.339833e-05 7.158022e-05
Al 3.148262e+00 -1.873025e+00 2.369219e+00 -3.773965e-05 1.537824e-05 4.898043e-05
Ga 3.146481e+00 -1.872685e+00 7.521456e+00 1.418464e-05 7.076151e-05 6.881210e-05
Al 3.142433e+00 -1.860322e+00 -2.664107e+00 5.725195e-04 -2.206193e-04 6.062355e-05
Al -4.778033e+00 8.718838e-01 2.365468e+00 1.239861e-04 9.594813e-05 3.970076e-04
Ga -4.774517e+00 8.811845e-01 7.539185e+00 1.764012e-04 -7.638205e-06 1.113528e-04
Al -4.785138e+00 8.792901e-01 -2.674849e+00 -7.169844e-05 -3.001083e-05 1.181014e-05
Ga -6.362988e+00 3.616003e+00 2.414580e+00 -1.717049e-05 -1.602469e-05 -7.415747e-05
Ga -6.374616e+00 3.621599e+00 7.532628e+00 -6.450454e-06 7.114163e-06 1.600988e-05
Al -6.361971e+00 3.603257e+00 -2.711568e+00 3.059814e-04 2.535017e-04 -1.192463e-04
Al -3.199474e+00 -1.865286e+00 2.387564e+00 -3.638808e-05 8.150074e-05 9.751360e-05
Ga -3.188936e+00 -1.877788e+00 7.540550e+00 -6.835403e-05 6.093570e-05 4.075545e-05
Al -3.189668e+00 -1.858700e+00 -2.693346e+00 2.705445e-04 8.075566e-06 -1.705424e-04
Ga -1.615265e+00 8.808780e-01 2.402968e+00 9.351518e-05 -9.433822e-05 6.646667e-05
Al -1.598025e+00 8.897630e-01 7.505550e+00 1.656617e-04 -1.088903e-04 8.401168e-06
Al -1.621329e+00 8.665492e-01 -2.676772e+00 1.794705e-04 -8.280972e-05 2.931439e-04
Al -3.184056e+00 3.621594e+00 2.408161e+00 -1.146967e-04 -1.541301e-04 -7.403727e-05
Ga -3.184438e+00 3.616964e+00 7.504892e+00 1.937743e-05 -1.677230e-04 8.489618e-05
Al -3.195819e+00 3.613652e+00 -2.681288e+00 1.911375e-04 -4.691789e-04 2.231496e-04
Al -1.380097e-02 -1.862771e+00 2.382893e+00 -2.929122e-04 -3.728153e-05 -6.106728e-04
Ga -1.848773e-02 -1.858599e+00 7.558725e+00 8.961790e-05 -1.442420e-04 1.466367e-04
Ga -2.159233e-02 -1.857707e+00 -2.707381e+00 -1.677043e-04 6.240592e-06 1.501182e-04
Al -2.363691e-02 1.808656e+00 4.965274e+00 1.706838e-04 -2.296002e-04 -1.866896e-04
Ga -1.316696e-02 1.774690e+00 -5.261979e+00 -1.660474e-04 5.573323e-05 8.992847e-05
Ga -2.131079e-02 1.775803e+00 -1.472316e-01 1.330909e-05 1.188307e-04 4.219210e-05
Al 3.153460e+00 -3.713763e+00 4.930669e+00 -3.847690e-06 2.493056e-05 -3.797259e-05
Ga 3.144078e+00 -3.692932e+00 -5.244715e+00 -1.060930e-04 1.770042e-04 7.432470e-05
Al 3.134942e+00 -3.691751e+00 -1.316757e-01 1.388750e-04 -1.025633e-04 1.598011e-06
Ga 1.557668e+00 -9.576458e-01 4.936868e+00 3.931811e-05 1.320396e-04 3.548317e-05
Al 1.562899e+00 -9.468468e-01 -5.238679e+00 -1.052829e-04 2.093758e-04 3.538271e-06
Al 1.574998e+00 -9.486079e-01 -1.384076e-01 -1.725833e-04 -1.362348e-04 -1.515454e-04
Ga 3.143778e+00 1.793516e+00 4.952822e+00 2.213409e-04 -1.124898e-04 5.559432e-05
Al 3.135267e+00 1.793714e+00 -5.235966e+00 -3.729152e-04 -3.402160e-04 -1.607768e-04
Al 3.153892e+00 1.771071e+00 -1.544619e-01 -4.446857e-04 9.706398e-05 -3.815058e-04
Al 6.304373e+00 -3.702072e+00 4.944635e+00 -2.388280e-04 1.661305e-04 -7.464152e-05
Al 6.331934e+00 -3.701230e+00 -5.240701e+00 2.328122e-04 1.494959e-04 3.029423e-04
Ga 6.316772e+00 -3.686378e+00 -1.424417e-01 6.379980e-05 -1.996235e-04 -7.458668e-05
Ga 4.737592e+00 -9.583600e-01 4.923815e+00 -6.310538e-05 9.755108e-05 2.744765e-05
Ga 4.730122e+00 -9.582346e-01 -5.210624e+00 -4.878937e-05 -1.042781e-04 1.138376e-04
Al 4.729816e+00 -9.475646e-01 -1.587848e-01 -7.238050e-05 8.005163e-05 1.054928e-05
Al -3.189985e+00 1.806650e+00 4.944101e+00 -1.671937e-04 -3.010091e-04 3.099038e-05
Ga -3.193210e+00 1.787523e+00 -5.226900e+00 1.616754e-04 -2.745330e-05 1.805268e-04
Al -3.200823e+00 1.787512e+00 -1.606793e-01 -1.400718e-04 1.779054e-04 3.639407e-04
Al -1.123105e-02 -3.695808e+00 4.933395e+00 7.821387e-05 -1.921838e-04 8.371899e-05
Al -3.445954e-02 -3.698057e+00 -5.225271e+00 1.651282e-05 4.327309e-05 9.627181e-05
Ga -1.027477e-02 -3.703870e+00 -1.492484e-01 1.614683e-04 8.649288e-05 1.382033e-05
Ga -1.604514e+00 -9.591357e-01 4.953083e+00 -2.134472e-04 -1.550206e-05 1.345905e-04
Al -1.604753e+00 -9.565380e-01 -5.245706e+00 -8.346951e-05 4.656108e-04 -1.815121e-04
Al -1.617285e+00 -9.484471e-01 -1.440365e-01 -1.351846e-04 -4.627446e-05 -4.003306e-05
N 1.518074e+00 9.016848e-01 4.300099e+00 -7.508912e-05 7.098106e-05 -1.120652e-04
N 1.603857e+00 8.496458e-01 -5.888735e+00 3.441882e-04 9.758863e-05 5.861628e-05
N 1.606246e+00 8.466671e-01 -7.810978e-01 4.764934e-04 6.250694e-05 2.624524e-04
N -2.392181e-02 3.616190e+00 4.339962e+00 -1.544294e-04 -6.335466e-05 -1.884173e-06
N 1.916784e-02 3.642806e+00 -5.909093e+00 -1.024086e-04 -8.424451e-05 -2.908610e-04
N -6.651187e-02 3.644084e+00 -7.350203e-01 -1.020151e-04 6.683542e-05 4.824044e-05
N 3.145901e+00 -1.918116e+00 4.285097e+00 5.432744e-05 8.033876e-06 -1.137989e-04
N 3.109284e+00 -1.845352e+00 -5.856655e+00 -5.241744e-05 1.972024e-05 -1.454575e-04
N 3.142765e+00 -1.870784e+00 -7.376875e-01 -7.502111e-05 -3.323682e-05 1.319671e-04
N -4.736054e+00 9.039765e-01 4.284189e+00 9.079819e-05 5.653583e-05 -1.510061e-04
N -4.817193e+00 8.967414e-01 -5.835686e+00 2.968840e-05 8.640634e-05 -2.078221e-05
N -4.780099e+00 8.762747e-01 -7.542688e-01 5.752139e-06 4.022247e-05 1.217356e-04
N -6.363280e+00 3.665961e+00 4.383173e+00 -1.520764e-05 -3.227813e-06 -9.811968e-05
N -6.361947e+00 3.618372e+00 -5.816907e+00 5.720730e-06 4.045408e-05 5.833470e-05
N -6.364378e+00 3.568502e+00 -7.950381e-01 -6.696870e-05 -1.274402e-04 4.554943e-06
N -3.187159e+00 -1.914623e+00 4.295043e+00 9.418289e-05 -4.243813e-06 -1.268481e-04
N -3.154171e+00 -1.895728e+00 -5.825765e+00 2.520397e-05 9.326621e-05 -6.695084e-05
N -3.188985e+00 -1.820939e+00 -7.778015e-01 1.647483e-04 -5.651396e-06 -1.783995e-04
N -1.606538e+00 9.253503e-01 4.379038e+00 2.651152e-04 1.683415e-04 3.075799e-05
N -1.613045e+00 8.326312e-01 -5.919337e+00 7.948955e-06 -3.382395e-04 -9.198813e-05
N -1.650346e+00 8.485342e-01 -7.622288e-01 1.115246e-04 -3.621349e-05 -4.515460e-05
N -3.190050e+00 3.619193e+00 4.335846e+00 1.400550e-05 -8.531930e-05 -4.168878e-05
N -3.238726e+00 3.641439e+00 -5.864211e+00 -5.499572e-05 -1.219113e-04 -1.653582e-04
N -3.149461e+00 3.596885e+00 -7.723612e-01 -1.652578e-05 2.282971e-05 -1.196062e-04
N -2.329019e-02 -1.909761e+00 4.289162e+00 2.478212e-05 -5.776035e-05 2.231456e-04
N -1.999536e-02 -1.871507e+00 -5.792667e+00 1.012017e-04 -1.362873e-04 -3.115373e-05
N -2.197169e-02 -1.815777e+00 -7.275022e-01 2.401745e-04 5.181069e-05 3.323030e-05
N 1.647165e-02 1.815218e+00 1.821097e+00 4.188321e-04 -2.071987e-04 1.203871e-04
N -1.675660e-02 1.791621e+00 6.906427e+00 -9.611710e-05 1.101666e-04 -6.030091e-05
N -2.425067e-02 1.735034e+00 -3.274250e+00 -1.051853e-04 -7.786367e-05 -8.246633e-05
N 3.145049e+00 -3.703937e+00 1.791559e+00 -4.413039e-06 2.390598e-05 -2.018298e-06
N 3.192778e+00 -3.721197e+00 6.853480e+00 3.046336e-05 5.351306e-05 4.858680e-05
N 3.104222e+00 -3.670006e+00 -3.272369e+00 -3.322688e-05 6.831760e-05 1.160953e-05
N 1.565542e+00 -9.495741e-01 1.782802e+00 -1.598898e-04 6.104368e-05 -5.683736e-05
N 1.560741e+00 -9.054933e-01 6.913553e+00 -3.600516e-04 1.493844e-04 -1.047123e-04
N 1.612238e+00 -9.298540e-01 -3.323453e+00 -3.297003e-04 1.665516e-04 -1.683105e-04
N 3.144037e+00 1.745791e+00 1.762733e+00 -3.733820e-04 -2.466566e-04 3.120309e-05
N 3.104450e+00 1.764757e+00 6.924608e+00 -9.147210e-05 -4.791357e-05 -5.209122e-05
N 3.145068e+00 1.783960e+00 -3.311852e+00 3.437677e-05 5.626872e-05 8.386018e-08
N 6.276123e+00 -3.676851e+00 1.824960e+00 -1.938239e-04 -2.646221e-04 7.821934e-05
N 6.276220e+00 -3.717853e+00 6.862389e+00 -4.037842e-06 -7.336510e-05 1.260535e-04
N 6.357358e+00 -3.672924e+00 -3.320888e+00 -2.991789e-05 -8.564076e-05 -1.973600e-04
N 4.733794e+00 -9.544614e-01 1.770651e+00 -1.712261e-04 2.431848e-05 5.873983e-05
N 4.737110e+00 -9.516390e-01 6.893172e+00 -1.473073e-04 -2.652270e-05 -1.603194e-04
N 4.726506e+00 -9.543227e-01 -3.227993e+00 -6.911969e-05 -2.912356e-05 6.094902e-05
N -3.234311e+00 1.820202e+00 1.759138e+00 3.298745e-04 1.193970e-04 -5.645569e-04
N -3.158098e+00 1.766939e+00 6.861699e+00 2.255167e-05 7.637066e-05 -2.156307e-04
N -3.192644e+00 1.786644e+00 -3.243099e+00 -9.277954e-05 4.980779e-04 -1.045018e-04
N 2.168650e-02 -3.679385e+00 1.821503e+00 7.694810e-05 -4.218022e-05 9.754027e-05
N -2.292884e-02 -3.687668e+00 6.850401e+00 -1.444182e-05 1.120728e-04 -1.406390e-04
N -1.848394e-02 -3.746663e+00 -3.309135e+00 -3.910151e-04 -9.555677e-05 -1.453699e-05
N -1.611410e+00 -9.968794e-01 1.770699e+00 4.714602e-04 -1.260685e-04 3.338737e-04
N -1.603771e+00 -9.121716e-01 6.925757e+00 -8.631908e-05 4.143604e-06 1.107870e-05
N -1.650805e+00 -9.221356e-01 -3.331909e+00 -2.850091e-04 -2.004754e-04 2.145540e-04
