108
Energy=-1718377.719413 Lattice="9.548509 0.000000 0.000000 -4.775424 8.269376 0.000000 -0.000322 -0.001137 15.434445" Stress="-0.000004 -0.000001 0.000000 -0.000001 -0.000004 0.000000 -0.000000 0.000000 -0.000007" Properties=species:S:1:pos:R:3:forces:R:3
Al 1.566961 0.871819 2.413698 0.000056 -0.000267 -0.000058
Al 1.559792 0.879046 7.598408 0.000036 -0.000024 0.000032
Al 1.562610 0.870818 -2.745384 0.000474 0.001062 0.000245
Al -0.029558 3.629913 2.426411 -0.001583 0.000550 0.000029
Al -0.036245 3.629982 7.582084 0.000030 -0.000024 -0.000065
Ga -0.009957 3.627571 -2.734818 0.000020 -0.000044 -0.000020
Al 3.154132 -1.874252 2.418353 0.000150 0.000064 -0.000081
Ga 3.138733 -1.896533 7.575747 0.000019 0.000016 0.000008
Ga 3.135219 -1.872403 -2.718355 0.000222 -0.000141 -0.000078
Al -4.796112 0.876779 2.424094 -0.000120 -0.000077 -0.000015
Ga -4.802518 0.894415 7.569143 0.000084 0.000111 0.000045
Ga -4.814349 0.888985 -2.708376 -0.000127 -0.000000 0.000056
Ga -6.388753 3.625610 2.436676 0.000266 -0.000006 0.000035
Ga -6.385109 3.633811 7.575964 -0.000090 -0.000088 0.000059
Al -6.400364 3.635613 -2.736370 -0.000071 -0.000103 0.000030
Ga -3.210577 -1.869907 2.404600 -0.000052 0.000062 0.000098
Ga -3.194432 -1.884756 7.568597 0.000118 0.000108 0.000099
Ga -3.191344 -1.895539 -2.688771 0.000083 -0.000060 0.000049
Al -1.615294 0.883453 2.443893 0.000373 0.000003 -0.000270
Ga -1.604427 0.885265 7.550333 0.000064 -0.000076 -0.000039
Ga -1.593597 0.876255 -2.716891 0.000118 0.000056 0.000124
Al -3.193647 3.631510 2.459276 -0.000356 0.000271 0.000024
Al -3.195668 3.645269 7.535851 -0.000068 -0.000041 -0.000485
Ga -3.210249 3.647384 -2.719406 -0.000024 -0.000073 0.000059
Ga -0.011374 -1.864676 2.427588 0.000119 -0.000014 -0.000061
Al -0.013813 -1.879241 7.551111 -0.000297 0.000758 0.000266
Al -0.012123 -1.867349 -2.704996 -0.000250 -0.000165 -0.000041
Ga -0.028802 1.801621 4.991267 0.000020 0.000101 0.000054
Al -0.001892 1.808224 -5.311032 -0.000008 0.000016 0.000046
Ga -0.012943 1.786346 -0.124307 0.000010 -0.000029 0.000056
Al 3.150924 -3.725187 4.978551 0.000874 -0.000186 -0.000230
Al 3.167033 -3.721675 -5.316341 0.000070 0.000059 0.000047
Ga 3.169024 -3.700413 -0.108984 0.000121 -0.000010 0.000250
Ga 1.563141 -0.963675 5.000860 -0.000049 0.000046 -0.000035
Al 1.558343 -0.948520 -5.301712 0.000214 0.000119 -0.000158
Al 1.567797 -0.952495 -0.149515 -0.000202 0.000525 0.001533
Ga 3.165120 1.793244 4.990626 -0.000019 0.000044 0.000088
Al 3.132814 1.798566 -5.280427 -0.000021 -0.000001 0.000109
Ga 3.144354 1.791458 -0.147252 -0.000034 -0.000012 -0.000073
Ga 6.336662 -3.713118 5.002548 -0.000091 0.000073 0.000048
Al 6.332714 -3.732926 -5.297075 0.000003 0.000002 0.000074
Al 6.345100 -3.710376 -0.141071 0.000037 -0.000018 -0.000098
Ga 4.753672 -0.956094 4.977442 -0.000019 -0.000113 0.000025
Ga 4.740538 -0.967586 -5.288359 -0.000022 -0.000010 0.000004
Al 4.748059 -0.965555 -0.123364 -0.000007 0.000060 0.000107
Al -3.202335 1.807092 4.966587 -0.000104 0.000313 0.000851
Ga -3.200242 1.815344 -5.307301 0.000003 -0.000097 0.000046
Ga -3.201979 1.785889 -0.101964 0.000009 -0.000027 -0.000063
Al -0.003020 -3.712356 5.005595 0.000052 0.000017 -0.000024
Ga -0.016719 -3.704400 -5.295902 -0.000060 0.000020 0.000116
Ga -0.033817 -3.698787 -0.153223 -0.000061 -0.000044 0.000163
Al -1.608593 -0.955738 4.993172 0.000047 -0.000130 0.000093
Ga -1.594995 -0.965250 -5.285898 -0.000066 -0.000002 -0.000018
Al -1.608335 -0.962777 -0.144454 -0.000013 0.000062 0.000133
N 1.566641 0.874603 4.315758 0.000020 -0.000059 -0.000064
N 1.570601 0.878277 -5.909889 0.000018 -0.000003 -0.000003
N 1.563454 0.830710 -0.820824 -0.000011 -0.000189 -0.000215
N -0.060206 3.658672 4.335344 -0.000695 0.000300 0.000168
N -0.026223 3.637294 -5.920066 -0.000018 -0.000008 -0.000029
N 0.013620 3.655744 -0.752661 0.000044 0.000058 -0.000016
N 3.154484 -1.922563 4.340219 -0.000070 -0.000202 -0.000200
N 3.111656 -1.902648 -5.879462 -0.000115 -0.000016 0.000119
N 3.155761 -1.831998 -0.729920 0.000251 -0.000144 -0.000278
N -4.757824 0.902587 4.336164 0.000097 -0.000063 -0.000093
N -4.843217 0.907981 -5.890880 0.000018 0.000034 -0.000007
N -4.796187 0.834238 -0.734375 0.000043 -0.000024 0.000006
N -6.344978 3.663937 4.408156 -0.000018 -0.000064 -0.000072
N -6.424445 3.611627 -5.876357 -0.000056 -0.000001 -0.000061
N -6.434934 3.657311 -0.809373 -0.000083 0.000033 -0.000040
N -3.160129 -1.855301 4.378599 -0.000010 0.000001 -0.000036
N -3.200065 -1.924418 -5.894106 -0.000028 -0.000011 -0.000015
N -3.206180 -1.879770 -0.693200 0.000015 -0.000009 -0.000018
N -1.650965 0.852023 4.368395 -0.000068 -0.000102 -0.000027
N -1.570957 0.901020 -5.907210 0.000048 0.000003 0.000028
N -1.612148 0.837937 -0.743222 0.000022 -0.000034 -0.000023
N -3.207640 3.639663 4.383007 0.000102 -0.000009 0.000084
N -3.166884 3.665066 -5.976558 0.000022 0.000037 0.000100
N -3.198707 3.634317 -0.754790 -0.000026 -0.000134 -0.000137
N -0.061739 -1.900590 4.406077 -0.000048 -0.000059 0.000061
N 0.018190 -1.854172 -5.967573 0.000005 -0.000148 -0.000306
N -0.016246 -1.824272 -0.778908 -0.000032 -0.000027 -0.000282
N -0.024031 1.794908 1.864517 0.000005 0.000046 0.000012
N 0.025803 1.824855 6.977693 -0.000014 0.000038 0.000038
N 0.019816 1.775962 -3.391574 -0.000003 0.000064 -0.000072
N 3.154982 -3.715942 1.871240 0.001371 -0.000139 0.000205
N 3.168640 -3.764253 6.910776 -0.000078 -0.000010 -0.000102
N 3.162567 -3.716522 -3.402717 -0.000020 0.000086 -0.000077
N 1.607445 -0.933755 1.778592 0.000054 0.000044 -0.000758
N 1.530772 -0.925740 6.979477 -0.000052 0.000008 0.000066
N 1.520608 -0.935821 -3.373029 -0.000074 -0.000471 -0.000194
N 3.157032 1.751805 1.833188 -0.000063 0.000064 0.000009
N 3.109747 1.770083 6.960927 -0.000030 -0.000016 -0.000040
N 3.114288 1.820807 -3.353581 -0.000320 -0.000203 0.000015
N 6.305097 -3.745784 1.773282 0.000102 -0.000025 -0.000137
N 6.296540 -3.745280 6.970736 -0.000002 -0.000127 0.000004
N 6.380299 -3.735085 -3.382890 0.000021 -0.000011 -0.000053
N 4.706620 -0.934362 1.796651 -0.000274 -0.000241 0.000026
N 4.744874 -0.959881 6.949109 -0.000162 -0.000069 -0.000083
N 4.755468 -0.964020 -3.322662 -0.000152 0.000033 -0.000080
N -3.201885 1.802741 1.883184 -0.000048 -0.000302 0.000069
N -3.207948 1.844550 6.895458 -0.000035 -0.000046 -0.000590
N -3.204361 1.799410 -3.341598 0.000005 0.000141 -0.000115
N 0.022333 -3.738565 1.821681 -0.000018 -0.000130 0.000015
N 0.020423 -3.691273 6.931381 0.000178 -0.000303 0.000130
N -0.062913 -3.682674 -3.303884 0.000035 0.000072 -0.000013
N -1.606533 -0.906805 1.768335 -0.000023 0.000048 -0.000110
N -1.572668 -0.980728 6.907914 0.000257 -0.000225 0.000080
N -1.571069 -0.987401 -3.313016 0.000035 -0.000124 -0.000073
