108
Energy=-6.197652e+05 Lattice="9.440868e+00 0.000000e+00 0.000000e+00 -4.732294e+00 8.165845e+00 0.000000e+00 1.846442e-01 -8.542980e-02 1.512075e+01" Stress="2.260731e-03 3.651376e-03 8.220937e-03 3.640215e-03 6.859876e-03 -4.478033e-03 8.202290e-03 -4.470375e-03 3.139976e-03" Properties=species:S:1:pos:R:3:forces:R:3 Config_type=AlGaN_super3_4_1_3.xyz
Al 1.629019e+00 8.427768e-01 2.373188e+00 -1.513945e-03 -7.562962e-03 -1.307228e-04
Al 1.654951e+00 8.403999e-01 7.409629e+00 -4.609112e-04 -7.741300e-03 -1.722394e-03
Al 1.483662e+00 9.158672e-01 -2.697124e+00 -3.000041e-04 -8.192588e-03 -3.575012e-03
Al 5.610089e-02 3.543529e+00 2.399160e+00 3.083858e-03 9.230476e-04 1.176499e-03
Al 8.349395e-02 3.543056e+00 7.411436e+00 -1.519741e-03 -8.787403e-04 -1.630215e-03
Al -9.172784e-02 3.622247e+00 -2.693366e+00 -4.434422e-05 -2.814951e-04 -2.329681e-03
Al 3.238941e+00 -1.912386e+00 2.378251e+00 -2.842858e-03 2.297508e-03 -1.572538e-03
Al 3.253376e+00 -1.911040e+00 7.412580e+00 -1.054850e-03 -2.293524e-04 -1.075490e-03
Al 3.081229e+00 -1.833977e+00 -2.683928e+00 -5.886306e-04 -2.222513e-04 -7.784245e-04
Al -4.675167e+00 8.393980e-01 2.379144e+00 -1.908944e-04 -7.553956e-03 -1.715681e-03
Al -4.659832e+00 8.393813e-01 7.412368e+00 1.309334e-03 -7.699504e-03 -1.944543e-03
Al -4.833712e+00 9.183549e-01 -2.681853e+00 1.700743e-03 -8.185272e-03 -1.518719e-03
Al -6.233550e+00 3.546686e+00 2.388205e+00 8.151098e-03 -4.720908e-03 5.372307e-03
Al -6.226522e+00 3.544319e+00 7.413737e+00 -1.172433e-03 -3.154988e-04 -1.264387e-03
Al -6.396641e+00 3.619775e+00 -2.685965e+00 -2.236475e-03 3.218132e-04 -2.398895e-03
Al -3.067109e+00 -1.905891e+00 2.413317e+00 3.718685e-04 1.324337e-03 -4.491752e-03
Al -3.061021e+00 -1.909095e+00 7.413341e+00 -4.251233e-03 6.859770e-04 1.139963e-03
Al -3.237330e+00 -1.823959e+00 -2.685754e+00 3.359424e-05 -6.834205e-04 -2.043660e-03
Al -1.552271e+00 8.505528e-01 2.396717e+00 7.859911e-03 -7.297156e-03 -6.405897e-03
Al -1.529265e+00 8.318080e-01 7.411833e+00 7.041142e-03 7.985179e-03 1.255795e-03
Al -1.710321e+00 9.221087e-01 -2.684795e+00 9.832770e-03 -4.640199e-03 -1.847014e-03
Al -3.111064e+00 3.552071e+00 2.384506e+00 5.349921e-03 2.905240e-03 -2.217582e-03
Al -3.098373e+00 3.546131e+00 7.415882e+00 8.253587e-03 2.617851e-03 -2.536868e-03
Al -3.269183e+00 3.623678e+00 -2.679138e+00 9.202767e-03 2.466117e-03 -1.800334e-03
Al 6.053123e-02 -1.904056e+00 2.385711e+00 5.222971e-03 4.325800e-03 -3.517455e-03
Ga 6.066140e-02 -1.892810e+00 7.441940e+00 1.090817e-02 3.329871e-03 -4.122165e-03
Ga -1.056755e-01 -1.821830e+00 -2.656161e+00 8.978381e-03 5.408540e-03 -4.842057e-03
Al 8.100511e-02 1.744321e+00 4.897923e+00 -6.791591e-03 -3.576464e-03 -2.604243e-03
Al -9.093975e-02 1.818176e+00 -5.200551e+00 -7.981426e-03 -4.214221e-03 -2.756704e-03
Al -6.045931e-02 1.796743e+00 -2.114824e-01 -1.062850e-02 -3.228761e-03 1.964521e-02
Al 3.244885e+00 -3.715786e+00 4.903580e+00 -7.145698e-03 -3.325656e-03 -1.707247e-03
Al 3.074225e+00 -3.638710e+00 -5.197020e+00 -7.065000e-03 -2.341413e-03 -2.124179e-03
Al 3.080983e+00 -3.648840e+00 -1.610515e-01 -1.395723e-03 -4.130548e-03 4.940622e-03
Al 1.687410e+00 -1.009147e+00 4.898230e+00 -9.979581e-03 6.415802e-03 -3.217853e-03
Al 1.501460e+00 -9.349664e-01 -5.195015e+00 -1.051403e-03 1.044332e-02 -6.793388e-05
Al 1.500098e+00 -9.465554e-01 -1.796066e-01 1.051995e-02 9.603905e-03 1.247409e-02
Al 3.209256e+00 1.742954e+00 4.895446e+00 -9.050172e-04 -8.540743e-05 -1.110891e-03
Al 3.037702e+00 1.820419e+00 -5.198988e+00 -3.503044e-04 -1.885172e-03 -1.594935e-03
Al 3.048614e+00 1.809445e+00 -1.707225e-01 5.713941e-03 -4.069812e-03 7.405826e-03
Al 6.373030e+00 -3.713041e+00 4.903221e+00 5.482957e-04 -1.629882e-03 -5.012063e-03
Al 6.204437e+00 -3.634990e+00 -5.196098e+00 -6.755588e-04 3.883350e-04 -8.336859e-04
Ga 6.212978e+00 -3.640469e+00 -1.791267e-01 4.344377e-03 -1.515613e-03 2.532868e-02
Al 4.803917e+00 -1.004958e+00 4.901758e+00 -1.915298e-03 8.857846e-03 -1.453961e-03
Al 4.636793e+00 -9.280186e-01 -5.195677e+00 -1.496660e-03 7.869997e-03 -2.361212e-03
Al 4.641257e+00 -9.293740e-01 -1.616922e-01 3.486100e-03 4.291123e-03 5.959096e-03
Al -3.105355e+00 1.751787e+00 4.899108e+00 -4.816227e-04 -9.821170e-04 -3.577183e-04
Al -3.272663e+00 1.823128e+00 -5.197692e+00 1.275063e-03 -1.645468e-03 -1.482954e-03
Al -3.262571e+00 1.818224e+00 -1.601095e-01 7.430680e-03 -4.262350e-03 5.250708e-03
Al 6.689158e-02 -3.712453e+00 4.902354e+00 -1.068466e-03 1.862214e-04 -1.447986e-03
Al -1.034259e-01 -3.637054e+00 -5.188958e+00 1.916647e-04 3.930695e-03 -8.474466e-04
Al -9.189623e-02 -3.634593e+00 -1.734212e-01 6.606440e-03 -8.553169e-04 1.266452e-02
Ga -1.504315e+00 -9.945681e-01 4.915467e+00 1.459885e-03 9.557027e-03 -4.326578e-03
Al -1.668315e+00 -9.238857e-01 -5.193767e+00 -6.621728e-03 1.270115e-02 9.108860e-04
Al -1.657900e+00 -9.314175e-01 -1.622487e-01 -2.831827e-03 1.263711e-02 1.300793e-02
N 1.642766e+00 8.400336e-01 4.295149e+00 2.997921e-04 -8.443384e-03 1.947488e-03
N 1.470246e+00 9.190469e-01 -5.796404e+00 1.341483e-03 -7.906897e-03 2.535809e-03
N 1.487463e+00 9.058702e-01 -7.919221e-01 3.803589e-03 -8.193239e-03 6.047994e-03
N 7.333386e-02 3.550850e+00 4.310089e+00 -3.440458e-03 -1.961641e-04 3.199762e-03
N -9.469235e-02 3.626980e+00 -5.794925e+00 -4.221957e-04 9.503022e-05 1.031020e-03
N -9.525547e-02 3.610885e+00 -7.814170e-01 -1.085943e-02 -7.943900e-03 -2.827132e-03
N 3.242682e+00 -1.910084e+00 4.297591e+00 -8.583494e-04 1.271025e-04 -5.897585e-04
N 3.068842e+00 -1.830829e+00 -5.794675e+00 -1.093356e-03 3.053235e-04 7.632705e-04
N 3.075675e+00 -1.839687e+00 -7.672492e-01 1.132280e-03 -8.800682e-04 -5.064686e-04
N -4.670660e+00 8.436961e-01 4.296942e+00 1.667024e-03 -8.427815e-03 1.829696e-03
N -4.840477e+00 9.212835e-01 -5.794926e+00 1.456423e-03 -7.951296e-03 2.685126e-03
N -4.830785e+00 9.158024e-01 -7.653912e-01 3.833215e-03 -8.859427e-03 9.706694e-04
N -6.232181e+00 3.550435e+00 4.301710e+00 2.452082e-03 -6.824485e-04 4.890914e-03
N -6.404299e+00 3.629363e+00 -5.793108e+00 9.366592e-04 1.485357e-03 1.196536e-03
N -6.380243e+00 3.614779e+00 -7.777498e-01 1.335413e-02 -5.479447e-03 -1.818970e-03
N -3.081263e+00 -1.903415e+00 4.311021e+00 -1.280301e-02 -5.979459e-03 -1.000411e-03
N -3.237245e+00 -1.826852e+00 -5.793705e+00 6.663118e-05 -1.656621e-06 1.263996e-03
N -3.231114e+00 -1.814759e+00 -7.742308e-01 2.728408e-03 1.228224e-02 -3.297515e-03
N -1.545387e+00 8.674379e-01 4.302553e+00 8.987892e-03 6.772006e-03 -2.140068e-04
N -1.710249e+00 9.239209e-01 -5.794861e+00 8.469849e-03 -4.030861e-03 4.856348e-03
N -1.697393e+00 9.146980e-01 -7.675498e-01 9.352559e-03 -4.661989e-03 1.705415e-03
N -3.106900e+00 3.555066e+00 4.301461e+00 8.113516e-03 3.580909e-03 1.347280e-03
N -3.276581e+00 3.630114e+00 -5.792213e+00 6.827087e-03 4.489686e-03 2.386360e-03
N -3.265648e+00 3.624670e+00 -7.650232e-01 8.326047e-03 3.381158e-03 7.997608e-04
N 7.333608e-02 -1.907935e+00 4.302714e+00 1.871918e-02 -2.940344e-03 -3.249759e-03
N -1.029309e-01 -1.789101e+00 -5.737651e+00 5.300565e-03 -1.136079e-02 7.735787e-03
N -9.295844e-02 -1.783660e+00 -7.063935e-01 3.935666e-03 -1.637298e-02 1.981189e-03
N 4.384053e-02 1.748829e+00 1.814788e+00 -3.734839e-03 -4.335354e-03 -1.939486e-02
N 8.790005e-02 1.736072e+00 6.813262e+00 -7.264330e-03 -4.261259e-03 2.402330e-03
N -8.690565e-02 1.814738e+00 -3.286986e+00 -7.169165e-03 -3.978333e-03 3.256443e-03
N 3.237523e+00 -3.718947e+00 1.777260e+00 -1.243840e-02 5.543593e-04 -3.977219e-03
N 3.250307e+00 -3.719300e+00 6.816472e+00 -8.067200e-03 -2.709985e-03 2.928013e-03
N 3.077599e+00 -3.641529e+00 -3.284013e+00 -8.055297e-03 -2.901032e-03 2.452358e-03
N 1.675445e+00 -1.010908e+00 1.767796e+00 -1.420032e-02 9.323090e-03 -1.522208e-03
N 1.700053e+00 -1.000945e+00 6.813378e+00 8.583341e-04 9.986671e-03 -9.273956e-04
N 1.529203e+00 -9.251471e-01 -3.284666e+00 1.631870e-03 1.000206e-02 1.032403e-03
N 3.200733e+00 1.743199e+00 1.768844e+00 -5.848467e-03 6.298576e-04 -5.345193e-03
N 3.216543e+00 1.741618e+00 6.812383e+00 9.882002e-04 -9.475809e-04 7.252039e-04
N 3.044580e+00 1.818889e+00 -3.286800e+00 1.034363e-03 -5.918131e-04 8.063364e-04
N 6.401026e+00 -3.732729e+00 1.919412e+00 -2.235578e-02 1.014262e-02 -2.837281e-02
N 6.380894e+00 -3.716116e+00 6.816393e+00 1.467453e-03 9.778260e-04 1.450607e-03
N 6.208658e+00 -3.636300e+00 -3.282176e+00 8.199849e-04 -6.352441e-05 1.478121e-03
N 4.809667e+00 -1.017198e+00 1.778906e+00 -7.476478e-03 1.179177e-02 -4.021782e-03
N 4.815281e+00 -1.008324e+00 6.815403e+00 -1.307701e-03 7.934295e-03 2.135963e-03
N 4.642066e+00 -9.288131e-01 -3.281984e+00 -1.427818e-03 8.286987e-03 1.980436e-03
N -3.110982e+00 1.743934e+00 1.777596e+00 -5.980489e-03 2.969874e-03 -5.130527e-03
N -3.095246e+00 1.740412e+00 6.814481e+00 8.020098e-04 4.052934e-04 4.199772e-04
N -3.270132e+00 1.821451e+00 -3.280794e+00 6.488103e-04 -3.839156e-04 -6.855311e-05
N 5.948195e-02 -3.712419e+00 1.778790e+00 -4.124919e-03 2.758363e-03 -7.305878e-03
N 6.625769e-02 -3.720816e+00 6.819980e+00 1.618497e-03 -1.155455e-02 -3.939734e-03
N -1.016892e-01 -3.649189e+00 -3.274695e+00 1.434445e-03 -1.204723e-02 -3.568779e-03
N -1.507042e+00 -1.005813e+00 1.790942e+00 -7.969155e-03 1.207642e-02 -5.153962e-03
N -1.520689e+00 -9.659846e-01 6.851996e+00 -7.717624e-03 2.067665e-03 6.405063e-03
N -1.681420e+00 -9.175917e-01 -3.281855e+00 -1.210806e-02 1.413979e-02 -2.157823e-03
