108
Energy=-2.496557e+06 Lattice="9.507050e+00 0.000000e+00 0.000000e+00 -4.757885e+00 8.221594e+00 0.000000e+00 8.618944e-03 3.776787e-03 1.539511e+01" Stress="-7.045844e-02 5.771555e-03 3.119103e-04 5.767823e-03 -6.615039e-02 -1.521211e-04 3.162414e-04 -1.419325e-04 -5.861801e-02" Properties=species:S:1:pos:R:3:forces:R:3 Config_type=AlGaN_super3_45_0_2.xyz
Al 1.569533e+00 9.031848e-01 2.490496e+00 -6.642394e-04 -1.237542e-02 -7.967165e-03
Al 1.570570e+00 9.011174e-01 7.556186e+00 -1.119419e-03 -1.222736e-02 -2.521409e-03
Ga 1.562715e+00 8.975287e-01 -2.768851e+00 -5.383118e-04 -1.519360e-02 -2.656099e-03
Al 1.734235e-04 3.616905e+00 2.491353e+00 -1.814971e-03 -5.869862e-04 -6.554042e-03
Ga 1.192950e-03 3.618305e+00 7.557729e+00 -2.900440e-03 -1.954772e-03 -5.433061e-04
Ga -7.447720e-03 3.615290e+00 -2.771256e+00 -2.241574e-03 -8.459002e-04 2.046701e-04
Ga 3.185874e+00 -1.882538e+00 2.486440e+00 -3.382092e-03 7.868981e-04 -7.589527e-03
Ga 3.184945e+00 -1.881772e+00 7.558960e+00 -3.021600e-03 1.365380e-03 -1.194297e-03
Ga 3.175672e+00 -1.886003e+00 -2.768489e+00 -2.360475e-03 1.930917e-03 -6.956519e-04
Ga -4.794588e+00 9.022229e-01 2.489332e+00 5.427141e-04 -1.365380e-02 -8.466712e-03
Ga -4.794454e+00 9.024605e-01 7.559559e+00 5.729744e-04 -1.393541e-02 -2.636171e-03
Al -4.801608e+00 8.998021e-01 -2.771263e+00 9.072105e-04 -1.127407e-02 -1.385779e-03
Ga -6.366569e+00 3.618997e+00 2.489484e+00 -6.325583e-04 3.451544e-04 -6.228339e-03
Ga -6.366542e+00 3.620376e+00 7.559857e+00 4.321959e-04 -4.020574e-04 5.202926e-04
Al -6.372711e+00 3.617687e+00 -2.773822e+00 -4.718683e-05 -2.971012e-04 -2.694452e-04
Ga -3.179703e+00 -1.882053e+00 2.488329e+00 -4.721404e-06 1.584168e-03 -7.004572e-03
Ga -3.178495e+00 -1.882788e+00 7.560411e+00 -3.011612e-04 3.075487e-03 1.395024e-04
Ga -3.184966e+00 -1.886190e+00 -2.771278e+00 -4.500649e-04 2.648548e-03 -4.774891e-04
Ga -1.647972e+00 9.055526e-01 2.490971e+00 1.406864e-02 -7.649685e-03 -1.086363e-02
Ga -1.649084e+00 9.038326e-01 7.558577e+00 1.438547e-02 -7.592490e-03 -5.568621e-03
Ga -1.659104e+00 8.989784e-01 -2.767962e+00 1.383350e-02 -7.790858e-03 -4.561773e-03
Ga -3.221232e+00 3.621651e+00 2.488628e+00 1.287486e-02 6.990418e-03 -8.491770e-03
Ga -3.222391e+00 3.622103e+00 7.560181e+00 1.294232e-02 6.728656e-03 -2.195660e-03
Ga -3.233172e+00 3.618155e+00 -2.768071e+00 1.251371e-02 6.559745e-03 -1.831064e-03
Ga -3.619684e-02 -1.879177e+00 2.487593e+00 1.308198e-02 8.558690e-03 -9.228430e-03
Ga -3.583414e-02 -1.879185e+00 7.559319e+00 1.317180e-02 8.869461e-03 -3.295570e-03
Al -4.527694e-02 -1.884854e+00 -2.770803e+00 1.078115e-02 6.662537e-03 -1.893235e-03
Al 1.240325e-03 1.805758e+00 5.022843e+00 -1.055258e-02 -6.512402e-03 -2.772345e-03
Ga -6.806305e-03 1.803018e+00 -5.304916e+00 -1.266483e-02 -8.944599e-03 -3.017180e-03
Ga -6.368075e-03 1.804119e+00 -2.270681e-01 -1.261285e-02 -8.666758e-03 3.418926e-02
Ga 3.186909e+00 -3.697663e+00 5.024732e+00 -1.235904e-02 -6.847754e-03 -3.034180e-03
Ga 3.179281e+00 -3.699871e+00 -5.302586e+00 -1.255633e-02 -7.053381e-03 -2.047064e-03
Ga 3.180213e+00 -3.699643e+00 -2.263317e-01 -1.232724e-02 -7.076634e-03 3.495748e-02
Ga 1.613871e+00 -9.760412e-01 5.025336e+00 -1.387348e-02 7.823396e-03 -5.645565e-03
Ga 1.605316e+00 -9.821140e-01 -5.302995e+00 -1.359837e-02 8.545027e-03 -4.637059e-03
Ga 1.605417e+00 -9.825752e-01 -2.269013e-01 -1.389036e-02 8.443114e-03 3.163267e-02
Ga 3.139962e+00 1.806901e+00 5.025385e+00 1.942463e-04 -2.820179e-03 -8.091836e-04
Ga 3.133160e+00 1.804614e+00 -5.303750e+00 -3.382213e-04 -2.772187e-03 3.464824e-04
Ga 3.133913e+00 1.805571e+00 -2.350909e-01 5.959235e-04 -2.773923e-03 3.713442e-02
Ga 6.328049e+00 -3.696445e+00 5.024101e+00 -3.627359e-04 -4.010365e-04 -7.812590e-04
Al 6.320967e+00 -3.699658e+00 -5.304132e+00 -1.694334e-04 -1.010182e-04 7.065630e-04
Al 6.320850e+00 -3.699500e+00 -2.466396e-01 2.381877e-04 -4.908677e-04 3.248344e-02
Ga 4.757072e+00 -9.771677e-01 5.026284e+00 -7.090305e-04 1.432434e-02 -2.554036e-03
Ga 4.748765e+00 -9.813431e-01 -5.301510e+00 -3.829322e-04 1.377517e-02 -1.888994e-03
Ga 4.749320e+00 -9.817540e-01 -2.297414e-01 -3.449347e-04 1.455476e-02 3.462070e-02
Ga -3.220042e+00 1.809232e+00 5.025468e+00 2.444789e-03 -2.149773e-03 -1.730215e-03
Ga -3.230387e+00 1.804613e+00 -5.302935e+00 2.970290e-03 -1.501143e-03 -4.514377e-04
Ga -3.230848e+00 1.804362e+00 -2.318005e-01 2.977929e-03 -1.681553e-03 3.630809e-02
Ga -3.511192e-02 -3.693612e+00 5.025484e+00 2.167389e-03 7.444127e-04 -7.070743e-04
Ga -4.573364e-02 -3.696544e+00 -5.301771e+00 2.356883e-03 2.612683e-04 6.266179e-04
Ga -4.670377e-02 -3.696338e+00 -2.347631e-01 2.701426e-03 9.070763e-04 3.664375e-02
Ga -1.605914e+00 -9.748199e-01 5.025979e+00 8.609108e-04 1.553595e-02 -3.573172e-03
Ga -1.614489e+00 -9.810762e-01 -5.302034e+00 3.302338e-04 1.574254e-02 -2.452356e-03
Ga -1.614687e+00 -9.822171e-01 -2.303383e-01 1.516348e-03 1.583091e-02 3.380241e-02
N 1.566101e+00 9.042094e-01 4.418099e+00 -1.698619e-02 -5.476285e-03 -1.022350e-02
N 1.562196e+00 8.976909e-01 -5.911982e+00 -4.025611e-04 -1.493608e-02 -1.726255e-02
N 1.562259e+00 8.976604e-01 -8.363674e-01 -9.408921e-04 -1.495436e-02 5.537530e-03
N -7.050567e-04 3.613938e+00 4.419417e+00 -2.003094e-03 -1.870120e-02 -1.353773e-02
N -4.247549e-03 3.617988e+00 -5.905427e+00 1.440584e-02 1.005823e-02 6.190961e-03
N -4.877175e-03 3.618031e+00 -8.378107e-01 1.406294e-02 9.530156e-03 8.691066e-03
N 3.185476e+00 -1.882754e+00 4.420837e+00 -2.783972e-03 1.405430e-03 -8.510178e-04
N 3.176683e+00 -1.886724e+00 -5.905381e+00 -2.368880e-03 1.680042e-03 -9.537928e-04
N 3.176698e+00 -1.886957e+00 -8.347530e-01 -2.386901e-03 1.473848e-03 2.081841e-03
N -4.793466e+00 9.023999e-01 4.422254e+00 7.433366e-04 -1.419280e-02 3.290898e-03
N -4.801967e+00 8.989547e-01 -5.906275e+00 4.734795e-04 -1.480996e-02 3.733470e-03
N -4.801764e+00 8.989072e-01 -8.442468e-01 4.285789e-04 -1.447977e-02 -1.346757e-02
N -6.364587e+00 3.620398e+00 4.422265e+00 2.425909e-04 5.823844e-04 1.750472e-04
N -6.377782e+00 3.619832e+00 -5.904463e+00 -1.655795e-02 1.007614e-02 6.988238e-03
N -6.377299e+00 3.619614e+00 -8.467083e-01 -1.668383e-02 9.619146e-03 -1.016481e-02
N -3.178746e+00 -1.881312e+00 4.421511e+00 -4.431975e-04 2.020757e-03 -3.596072e-04
N -3.186816e+00 -1.891087e+00 -5.903065e+00 -1.006649e-03 -1.699262e-02 6.416320e-03
N -3.186771e+00 -1.890623e+00 -8.386367e-01 -1.233539e-03 -1.682080e-02 9.308491e-03
N -1.645473e+00 9.067124e-01 4.423882e+00 2.780616e-02 -4.429673e-04 1.176514e-02
N -1.658729e+00 9.000273e-01 -5.906426e+00 1.412458e-02 -8.232241e-03 6.541231e-03
N -1.658475e+00 8.998603e-01 -8.360298e-01 1.461510e-02 -7.909344e-03 9.414060e-03
N -3.222216e+00 3.622177e+00 4.421488e+00 1.292557e-02 7.192956e-03 2.748230e-03
N -3.231248e+00 3.618550e+00 -5.904765e+00 1.292834e-02 7.364750e-03 3.621522e-03
N -3.230878e+00 3.618764e+00 -8.360625e-01 1.346895e-02 7.318241e-03 6.375393e-03
N -3.634974e-02 -1.880257e+00 4.421272e+00 1.270495e-02 8.146953e-03 2.438062e-03
N -4.478458e-02 -1.884395e+00 -5.906278e+00 1.288914e-02 8.334138e-03 2.896839e-03
N -4.484514e-02 -1.884286e+00 -8.436712e-01 1.267146e-02 8.502639e-03 -1.425181e-02
N 6.191784e-03 1.809648e+00 1.888137e+00 2.924004e-03 6.412158e-04 -1.737613e-02
N 5.499535e-03 1.803792e+00 6.951243e+00 3.722737e-03 -1.743005e-02 -1.073247e-02
N -7.685388e-03 1.802152e+00 -3.373833e+00 -1.302469e-02 -8.644810e-03 2.619698e-03
N 3.192153e+00 -3.700424e+00 1.885232e+00 2.705780e-03 -1.604813e-02 -2.338624e-02
N 3.186753e+00 -3.696568e+00 6.955958e+00 -1.291164e-02 -6.724109e-03 3.307819e-03
N 3.177903e+00 -3.700171e+00 -3.372595e+00 -1.339615e-02 -7.247921e-03 3.566207e-03
N 1.614219e+00 -9.705454e-01 1.884151e+00 -1.451956e-02 2.335811e-02 -2.148651e-02
N 1.614702e+00 -9.721342e-01 6.956881e+00 -1.426090e-02 2.358193e-02 1.152965e-02
N 1.601249e+00 -9.844609e-01 -3.371755e+00 -2.836028e-02 2.455055e-04 1.161076e-02
N 3.136578e+00 1.804169e+00 1.886470e+00 -1.492494e-02 -1.133914e-02 -2.846084e-02
N 3.137526e+00 1.804973e+00 6.957657e+00 -1.520828e-02 -1.103718e-02 6.426806e-03
N 3.137980e+00 1.805973e+00 -3.371196e+00 1.721382e-02 7.944958e-03 1.346672e-02
N 6.322978e+00 -3.699164e+00 1.892722e+00 -1.600652e-02 -9.356223e-03 -4.198841e-02
N 6.328557e+00 -3.695364e+00 6.955142e+00 5.221658e-04 1.387077e-04 -2.306885e-04
N 6.324609e+00 -3.701628e+00 -3.378388e+00 1.679448e-02 -9.830811e-03 -1.289956e-02
N 4.757054e+00 -9.766661e-01 1.880432e+00 -7.707347e-04 1.491820e-02 -3.086883e-02
N 4.757252e+00 -9.772387e-01 6.957077e+00 -3.566497e-04 1.451584e-02 3.113113e-03
N 4.748568e+00 -9.756402e-01 -3.371097e+00 -7.167236e-04 3.027271e-02 9.431470e-03
N -3.220952e+00 1.808672e+00 1.883566e+00 1.841295e-03 -2.357382e-03 -3.482346e-02
N -3.221354e+00 1.808935e+00 6.956385e+00 2.137333e-03 -1.842483e-03 -6.091297e-04
N -3.233929e+00 1.802446e+00 -3.371262e+00 -1.351705e-02 -1.067103e-02 6.114490e-03
N -3.554091e-02 -3.694215e+00 1.881268e+00 1.347336e-03 -2.312946e-04 -3.418702e-02
N -3.562213e-02 -3.693771e+00 6.956756e+00 1.532199e-03 -1.052203e-05 -2.740470e-04
N -4.825046e-02 -3.694861e+00 -3.369980e+00 -1.443753e-02 9.460736e-03 1.338824e-02
N -1.606870e+00 -9.751315e-01 1.881540e+00 1.286372e-04 1.499990e-02 -3.073436e-02
N -1.606871e+00 -9.759737e-01 6.956726e+00 4.475722e-04 1.465231e-02 2.747364e-03
N -1.610244e+00 -9.821981e-01 -3.371284e+00 1.715902e-02 5.662291e-03 9.497919e-03
