108
Energy=-2038806.304432 Lattice="9.591440 0.000000 0.000000 -4.797527 8.303978 0.000000 0.001419 0.000538 15.534176" Stress="0.000000 -0.000000 0.000000 -0.000000 -0.000000 -0.000001 0.000000 -0.000001 -0.000000" Properties=species:S:1:pos:R:3:forces:R:3
Al 1.569139 0.886695 2.421167 0.000159 0.000041 0.000092
Al 1.581127 0.894254 7.645342 0.000071 0.000004 0.000096
Ga 1.572969 0.876803 -2.746308 0.000091 0.000029 0.000015
Al -0.028558 3.641188 2.428525 0.000111 0.000094 0.000195
Al -0.010422 3.653504 7.613602 -0.000008 -0.000001 0.000087
Ga -0.026534 3.646230 -2.721394 0.000037 0.000047 0.000080
Ga 3.170541 -1.889405 2.447911 -0.000009 0.000090 0.000245
Ga 3.181998 -1.886505 7.622896 0.000012 -0.000006 0.000070
Al 3.165508 -1.883016 -2.747141 0.000025 0.000026 0.000102
Al -4.831958 0.882365 2.443660 0.000076 0.000127 -0.000019
Ga -4.834531 0.880096 7.653734 0.000144 0.000003 0.000015
Ga -4.830635 0.881277 -2.765737 0.000092 0.000067 -0.000046
Ga -6.418075 3.645711 2.462226 -0.000001 0.000011 0.000025
Al -6.428137 3.649615 7.609001 0.000037 -0.000002 0.000010
Al -6.416801 3.649484 -2.747581 0.000011 0.000037 0.000003
Ga -3.217140 -1.886810 2.435550 0.000061 -0.000012 0.000050
Al -3.222935 -1.898067 7.639334 0.000023 0.000016 -0.000018
Ga -3.217144 -1.885008 -2.747597 0.000047 0.000061 0.000059
Ga -1.602380 0.884803 2.436239 -0.000000 0.000022 0.000071
Ga -1.611100 0.882640 7.613219 0.000093 -0.000086 -0.000046
Al -1.609455 0.879342 -2.719783 -0.000006 -0.000006 0.000054
Ga -3.214791 3.665669 2.444856 -0.000035 -0.000092 0.000051
Ga -3.220747 3.659674 7.604604 0.000054 -0.000106 0.000031
Ga -3.222336 3.662886 -2.720917 0.000008 -0.000100 0.000060
Al -0.016599 -1.882685 2.455114 0.000011 0.000027 -0.000046
Ga -0.023619 -1.887810 7.630860 0.000043 -0.000084 0.000136
Al -0.013742 -1.880550 -2.760255 -0.000011 0.000002 0.000019
Ga -0.010956 1.819493 5.034225 -0.000052 0.000202 0.000123
Ga -0.009594 1.800449 -5.333223 -0.000092 0.000217 0.000085
Al -0.027910 1.814366 -0.139609 -0.000044 0.000145 -0.000100
Al 3.178094 -3.737832 5.031802 -0.000004 0.000169 0.000087
Ga 3.180743 -3.712921 -5.321453 -0.000034 0.000161 0.000094
Al 3.185498 -3.730344 -0.149625 -0.000061 0.000132 -0.000202
Ga 1.570241 -0.966392 5.021485 -0.000097 0.000181 0.000049
Al 1.594952 -0.953066 -5.316673 -0.000076 0.000071 0.000042
Ga 1.572887 -0.970178 -0.149165 -0.000140 0.000199 0.000054
Ga 3.169049 1.802519 5.038444 -0.000042 0.000123 0.000130
Al 3.164946 1.802202 -5.339421 -0.000044 0.000035 -0.000001
Ga 3.164949 1.807603 -0.137621 0.000031 0.000033 0.000139
Ga 6.361511 -3.733939 5.052903 -0.000006 0.000110 -0.000064
Ga 6.375052 -3.736999 -5.347128 -0.000028 0.000049 0.000069
Ga 6.362309 -3.748889 -0.145051 -0.000107 0.000125 0.000056
Ga 4.773485 -0.964400 5.039967 -0.000114 0.000084 0.000067
Al 4.757788 -0.964360 -5.323910 -0.000072 -0.000011 -0.000001
Ga 4.758307 -0.968521 -0.150023 -0.000048 0.000140 -0.000071
Ga -3.231423 1.818364 5.020983 -0.000002 0.000106 -0.000047
Ga -3.227155 1.799012 -5.308794 0.000011 0.000094 -0.000064
Ga -3.208299 1.808064 -0.145790 -0.000079 0.000182 0.000018
Al -0.015682 -3.723149 5.035988 -0.000047 0.000112 0.000014
Ga -0.034145 -3.734902 -5.315023 -0.000051 0.000028 0.000071
Ga -0.022805 -3.719903 -0.158594 0.000028 0.000163 0.000037
Ga -1.613465 -0.980385 5.040003 -0.000150 0.000085 -0.000003
Ga -1.622620 -0.960559 -5.312787 -0.000138 0.000068 0.000033
Ga -1.599584 -0.955370 -0.160369 -0.000143 0.000081 -0.000093
N 1.572185 0.885447 4.337370 0.000172 -0.000088 -0.000077
N 1.617351 0.855848 -5.960093 0.000062 -0.000075 -0.000017
N 1.532633 0.905827 -0.760652 0.000138 -0.000127 -0.000080
N -0.066353 3.674764 4.359289 0.000088 -0.000183 -0.000084
N -0.030393 3.651496 -6.008994 0.000082 -0.000122 -0.000005
N -0.066914 3.624571 -0.740682 0.000088 -0.000112 -0.000195
N 3.175059 -1.935724 4.428315 0.000067 -0.000115 -0.000097
N 3.172013 -1.837171 -5.928096 0.000080 -0.000159 -0.000113
N 3.170765 -1.930930 -0.815992 0.000093 -0.000124 -0.000110
N -4.826810 0.881243 4.355931 0.000088 -0.000094 0.000033
N -4.862720 0.858589 -5.896265 0.000090 0.000001 0.000043
N -4.824302 0.885013 -0.791145 0.000100 -0.000122 -0.000055
N -6.379451 3.676042 4.440153 -0.000036 -0.000165 -0.000015
N -6.413946 3.602937 -6.004174 0.000022 -0.000024 -0.000072
N -6.419177 3.645953 -0.829866 0.000023 -0.000115 0.000095
N -3.219949 -1.888907 4.403051 0.000050 -0.000172 0.000004
N -3.262494 -1.858283 -5.970969 0.000127 -0.000136 0.000002
N -3.219513 -1.886058 -0.771936 0.000071 -0.000183 -0.000045
N -1.615329 0.882707 4.412603 0.000083 -0.000151 -0.000039
N -1.622909 0.884254 -5.957717 0.000108 -0.000130 -0.000084
N -1.575991 0.911501 -0.797178 0.000107 -0.000235 -0.000021
N -3.219147 3.708200 4.438514 0.000006 -0.000262 -0.000072
N -3.221911 3.655196 -5.952408 -0.000009 -0.000124 -0.000019
N -3.179137 3.678935 -0.744340 -0.000006 -0.000237 -0.000145
N -0.022034 -1.933476 4.374508 0.000099 -0.000188 0.000025
N 0.023383 -1.860856 -5.923201 0.000044 -0.000195 -0.000067
N -0.014975 -1.882202 -0.850827 0.000089 -0.000253 0.000026
N 0.019118 1.831300 1.788097 -0.000114 0.000047 0.000106
N 0.030339 1.830297 7.025730 -0.000067 0.000110 -0.000057
N -0.063071 1.783921 -3.357760 0.000052 0.000089 -0.000072
N 3.219234 -3.750371 1.770548 -0.000018 0.000104 0.000252
N 3.223744 -3.755357 6.954532 -0.000043 0.000108 -0.000036
N 3.178703 -3.685141 -3.348262 0.000009 0.000014 -0.000108
N 1.534308 -0.943772 1.844683 -0.000040 -0.000066 -0.000080
N 1.575387 -0.907924 7.005572 -0.000091 0.000032 -0.000161
N 1.582212 -1.006470 -3.387323 -0.000051 0.000089 -0.000008
N 3.173561 1.762109 1.847270 -0.000115 0.000106 -0.000173
N 3.131017 1.823107 7.027878 -0.000019 -0.000024 -0.000067
N 3.164848 1.857928 -3.416638 -0.000071 -0.000039 0.000030
N 6.335204 -3.761379 1.833211 0.000029 0.000024 -0.000092
N 6.370798 -3.728714 7.051122 -0.000010 -0.000015 -0.000082
N 6.409799 -3.758798 -3.361818 -0.000062 0.000008 -0.000054
N 4.767997 -0.916551 1.827238 -0.000122 -0.000167 0.000055
N 4.818483 -0.981882 7.016913 -0.000135 -0.000004 -0.000047
N 4.729634 -0.993074 -3.403532 -0.000088 -0.000021 -0.000018
N -3.260550 1.783158 1.839230 0.000071 0.000036 -0.000016
N -3.230460 1.800254 6.992355 -0.000121 0.000083 0.000044
N -3.173238 1.784039 -3.331400 -0.000120 0.000084 -0.000002
N -0.026370 -3.679484 1.823009 -0.000050 -0.000060 -0.000017
N -0.064874 -3.748566 6.957641 -0.000018 0.000086 0.000001
N -0.066587 -3.710059 -3.330796 0.000019 0.000019 -0.000090
N -1.571073 -0.987084 1.821222 -0.000120 -0.000017 0.000021
N -1.661798 -0.994224 7.017720 -0.000049 0.000021 -0.000001
N -1.580537 -0.934457 -3.327929 -0.000116 -0.000054 -0.000055
