108
Energy=-1764153.203923 Lattice="9.561008 0.000000 0.000000 -4.782830 8.283413 0.000000 0.001215 -0.017838 15.427404" Stress="0.000003 0.000003 0.000001 0.000003 0.000010 -0.000004 0.000001 -0.000005 -0.000018" Properties=species:S:1:pos:R:3:forces:R:3
Al 1.581117 0.864857 2.398046 -0.000034 -0.000118 -0.000479
Al 1.552814 0.886556 7.564781 -0.000126 -0.002390 0.000396
Al 1.570555 0.898324 -2.699441 0.000344 -0.001795 -0.000205
Al -0.016564 3.656691 2.400801 -0.001623 -0.005307 0.007878
Al -0.001660 3.599542 7.578621 -0.006108 0.010577 -0.011657
Al -0.012063 3.641062 -2.708125 -0.000399 0.000166 -0.000508
Al 3.114468 -1.911457 2.437433 0.016860 0.006356 -0.013053
Ga 3.179054 -1.898059 7.550509 0.000347 -0.001683 0.000360
Ga 3.180599 -1.871700 -2.687549 -0.000189 0.000216 0.000152
Al -4.820928 0.878692 2.426515 -0.000857 -0.004264 -0.000604
Ga -4.801294 0.871027 7.551351 0.000908 -0.001292 0.000550
Al -4.814771 0.883558 -2.702281 0.000415 -0.001137 -0.000687
Ga -6.416730 3.631229 2.399728 -0.000166 -0.000153 0.000345
Ga -6.417111 3.636461 7.564452 0.000056 0.001012 0.000452
Ga -6.406429 3.643485 -2.691697 0.000530 0.000281 -0.000316
Ga -3.208013 -1.899050 2.435012 -0.003125 0.001715 -0.000337
Al -3.199419 -1.894353 7.543993 -0.000028 -0.000317 -0.000511
Al -3.209044 -1.874822 -2.709558 -0.000140 0.000638 0.000811
Ga -1.619459 0.870588 2.435082 0.001058 -0.000582 0.001230
Al -1.612128 0.872703 7.554243 0.001095 -0.001704 -0.000223
Ga -1.614075 0.889357 -2.729803 0.001261 -0.001062 -0.000139
Ga -3.203388 3.637977 2.423056 0.000199 -0.000494 0.000370
Ga -3.192699 3.629337 7.545822 0.001546 0.001087 -0.000387
Ga -3.214371 3.651658 -2.692428 0.000853 0.000222 0.000377
Al -0.005248 -1.878843 2.420032 -0.001194 0.001436 -0.001374
Ga -0.037873 -1.869866 7.570857 0.000797 -0.000155 0.000790
Ga -0.030593 -1.870106 -2.715012 0.001455 0.000345 0.000688
Ga -0.026767 1.805509 4.980381 -0.002014 0.002476 0.000201
Al -0.019992 1.807214 -5.304553 -0.001201 -0.001681 0.001531
Ga -0.000990 1.819953 -0.134211 -0.001339 -0.001573 -0.001318
Al 3.178840 -3.734118 4.964060 0.001859 -0.002297 0.002645
Ga 3.178242 -3.731217 -5.284085 -0.002416 0.000923 0.001018
Al 3.178703 -3.718396 -0.135324 -0.002013 0.001748 0.002034
Ga 1.571844 -0.973046 4.966744 -0.001760 0.001557 0.002363
Ga 1.562564 -0.944595 -5.284784 -0.001412 0.000752 0.000466
Al 1.581024 -0.964157 -0.132903 -0.001511 0.000641 0.001480
Ga 3.157635 1.797163 4.976216 0.000207 -0.000294 0.001286
Ga 3.148287 1.811511 -5.274250 0.000147 -0.000333 0.000948
Al 3.158556 1.799628 -0.151021 0.000538 -0.000069 0.001829
Al 6.336248 -3.724718 4.997110 -0.002132 -0.000729 0.001510
Ga 6.350491 -3.706408 -5.287731 0.001233 0.000729 0.001423
Al 6.341602 -3.725002 -0.166233 0.001461 0.001654 0.003181
Ga 4.770703 -0.976702 4.967525 -0.000229 0.000819 -0.000091
Ga 4.784039 -0.956799 -5.276526 -0.000743 0.000938 0.000724
Ga 4.754065 -0.955580 -0.134345 -0.000356 -0.000146 0.003518
Al -3.207269 1.790192 4.990350 0.000472 -0.000197 0.000756
Ga -3.203417 1.811585 -5.288052 -0.000208 0.000085 0.000469
Ga -3.230965 1.816876 -0.137396 -0.000281 -0.000962 -0.004037
Ga -0.028105 -3.721367 4.969923 0.000518 -0.000232 0.000783
Al -0.026905 -3.705379 -5.288056 0.000406 0.000343 0.000397
Al -0.021776 -3.711186 -0.127120 -0.000304 0.000217 0.001291
Al -1.619677 -0.971993 4.996140 -0.000765 0.001863 0.000698
Al -1.618094 -0.952392 -5.301569 -0.000181 0.001064 0.000320
Ga -1.605628 -0.976192 -0.134710 -0.001114 0.000241 -0.004265
N 1.566206 0.876966 4.302621 0.000448 -0.001760 -0.000035
N 1.529771 0.915079 -5.944283 -0.000546 -0.000278 -0.001478
N 1.605538 0.862722 -0.772454 0.000601 -0.002510 0.000482
N -0.018993 3.683129 4.334283 0.000275 0.000463 0.000013
N -0.017435 3.605635 -5.953442 0.000286 -0.002452 0.003253
N -0.025928 3.684325 -0.789624 -0.000103 0.000866 0.000756
N 3.161214 -1.934769 4.313469 -0.001138 -0.002110 0.009835
N 3.172324 -1.876860 -5.901227 0.000062 0.000124 -0.000562
N 3.129830 -1.899124 -0.711611 -0.000777 -0.002372 0.000069
N -4.769856 0.903000 4.342055 0.000680 -0.000150 -0.000100
N -4.809361 0.892596 -5.910100 0.000373 -0.000722 -0.000290
N -4.847983 0.908150 -0.795532 -0.000349 -0.000153 -0.000347
N -6.449079 3.659039 4.377717 -0.000507 0.000803 -0.000454
N -6.363789 3.672150 -5.883963 0.000168 0.000269 -0.000488
N -6.394785 3.645406 -0.699879 -0.000360 0.000179 0.000862
N -3.163132 -1.918088 4.405342 0.001224 -0.000653 0.001474
N -3.167076 -1.853977 -5.957843 0.001015 0.000411 -0.001484
N -3.207934 -1.917356 -0.792145 0.000392 -0.001600 -0.001226
N -1.660857 0.850140 4.409705 0.001062 -0.001694 0.001107
N -1.583110 0.870830 -5.928358 0.002805 -0.001136 -0.000580
N -1.616728 0.889583 -0.759914 0.001495 -0.000763 -0.000505
N -3.174278 3.608730 4.400936 0.001230 0.000812 0.000674
N -3.248462 3.676378 -5.901046 0.000147 0.000150 -0.000232
N -3.213392 3.698155 -0.712506 0.001224 0.001352 0.000480
N -0.065279 -1.860162 4.332863 0.000616 0.000548 -0.000719
N -0.064943 -1.891296 -5.873362 0.000277 -0.000211 0.000108
N 0.017629 -1.901678 -0.733907 0.002786 0.000134 0.000070
N 0.011976 1.814756 1.841312 0.001855 0.003302 0.001044
N -0.022201 1.800947 6.972922 -0.000227 -0.005549 0.002244
N 0.024681 1.832410 -3.359516 -0.000033 0.000599 -0.001267
N 3.210081 -3.716230 1.803415 -0.002148 0.001107 -0.007025
N 3.215553 -3.752065 6.886064 0.003522 -0.003168 0.003002
N 3.210997 -3.741302 -3.308173 0.000494 -0.000786 -0.000766
N 1.586671 -0.971356 1.812779 -0.008078 0.001694 -0.003751
N 1.577432 -0.924873 6.951776 -0.001441 0.002724 -0.000439
N 1.581093 -0.907580 -3.309228 -0.001451 0.002137 -0.000112
N 3.164250 1.750045 1.781401 -0.000359 -0.000417 -0.002372
N 3.119148 1.771463 6.954041 -0.000846 -0.000961 -0.000823
N 3.158733 1.765239 -3.291383 -0.000458 -0.000945 -0.000050
N 6.300807 -3.742697 1.765602 0.002933 -0.000589 -0.008382
N 6.307586 -3.714806 6.930294 -0.000323 0.000598 -0.000340
N 6.313101 -3.690060 -3.299017 -0.000966 -0.000199 -0.000582
N 4.724800 -0.945554 1.854430 -0.005662 -0.001080 0.001554
N 4.800256 -0.992637 6.941370 0.000657 0.000490 -0.000595
N 4.804593 -0.933175 -3.290671 0.000306 0.001073 -0.000041
N -3.255638 1.768567 1.815960 -0.000461 0.000296 0.004049
N -3.171289 1.770157 6.910078 0.000621 -0.000894 -0.000608
N -3.254024 1.790981 -3.311082 -0.000636 -0.000565 -0.000347
N -0.021732 -3.680697 1.794996 0.000082 0.000761 -0.002133
N -0.023265 -3.723744 6.936258 -0.000215 0.000103 -0.000235
N -0.024356 -3.716349 -3.374242 -0.000391 -0.000208 -0.001276
N -1.578051 -0.995317 1.814043 0.001781 0.000876 0.004918
N -1.649658 -0.947157 6.921295 -0.001224 0.002172 0.000143
N -1.657150 -0.978714 -3.374873 -0.001313 0.000749 -0.001572
