108
Energy=-2359234.845011 Lattice="9.633704 0.000000 0.000000 -4.817875 8.340835 0.000000 -0.003078 0.000544 15.620397" Stress="0.000000 -0.000000 -0.000001 -0.000000 0.000000 0.000000 -0.000001 0.000000 0.000000" Properties=species:S:1:pos:R:3:forces:R:3
Al 1.581148 0.890083 2.463145 0.000168 0.000048 0.000166
Al 1.575091 0.909585 7.636410 0.000109 -0.000032 0.000091
Ga 1.583673 0.883820 -2.734101 0.000176 -0.000015 0.000121
Al -0.010000 3.656740 2.463211 0.000015 -0.000049 0.000208
Al -0.006556 3.658026 7.642641 -0.000000 -0.000060 0.000118
Ga -0.023683 3.670498 -2.743446 0.000082 -0.000099 0.000170
Ga 3.189896 -1.879993 2.462840 0.000158 -0.000083 0.000174
Ga 3.205093 -1.892343 7.639318 0.000070 -0.000068 0.000117
Ga 3.179087 -1.898839 -2.734312 0.000081 -0.000084 0.000076
Al -4.851650 0.880543 2.476865 0.000116 0.000121 0.000024
Ga -4.853107 0.879226 7.647289 0.000173 -0.000032 0.000148
Ga -4.838657 0.897230 -2.753643 0.000193 -0.000004 0.000031
Ga -6.463633 3.655565 2.452791 0.000168 -0.000084 0.000225
Al -6.465288 3.666019 7.650424 0.000084 -0.000048 0.000074
Ga -6.448501 3.667718 -2.736327 0.000092 -0.000091 0.000076
Ga -3.249474 -1.901047 2.464238 0.000096 0.000018 0.000258
Al -3.244130 -1.903642 7.639240 0.000090 -0.000027 0.000075
Ga -3.234118 -1.903995 -2.734064 0.000101 -0.000064 0.000147
Ga -1.618061 0.900933 2.475012 0.000127 -0.000033 0.000107
Ga -1.612208 0.893570 7.640266 0.000111 -0.000091 0.000050
Ga -1.632168 0.898182 -2.746298 0.000135 -0.000125 0.000112
Ga -3.231558 3.661995 2.465049 0.000059 -0.000131 0.000021
Ga -3.235656 3.669781 7.656286 0.000094 -0.000141 0.000100
Al -3.231854 3.666081 -2.746254 0.000043 -0.000114 -0.000006
Ga -0.011886 -1.883127 2.455658 0.000070 -0.000207 0.000150
Ga -0.033242 -1.894346 7.660762 0.000076 -0.000141 0.000075
Ga -0.011890 -1.894292 -2.742904 0.000083 -0.000157 0.000154
Al -0.009642 1.821908 5.050239 0.000087 0.000043 0.000053
Ga -0.013783 1.817130 -5.374281 0.000042 0.000056 0.000152
Ga -0.007499 1.817734 -0.121933 -0.000013 0.000104 0.000181
Ga 3.209761 -3.753548 5.053662 0.000038 0.000091 0.000093
Ga 3.195385 -3.752520 -5.357875 0.000038 0.000066 0.000111
Ga 3.194429 -3.746067 -0.136353 0.000078 0.000043 0.000202
Ga 1.585937 -0.946992 5.060715 0.000019 0.000017 0.000168
Ga 1.586890 -0.956069 -5.376579 -0.000008 0.000003 0.000078
Al 1.584018 -0.960170 -0.122419 -0.000085 -0.000059 -0.000081
Ga 3.175193 1.801039 5.052334 0.000046 -0.000007 0.000099
Ga 3.177317 1.817812 -5.380977 0.000019 -0.000056 0.000072
Ga 3.179634 1.805471 -0.113656 0.000064 -0.000014 0.000291
Ga 6.382620 -3.750430 5.080380 0.000092 -0.000028 0.000157
Ga 6.399473 -3.746011 -5.398730 0.000035 -0.000029 0.000099
Al 6.393502 -3.751029 -0.122868 -0.000040 0.000003 -0.000008
Al 4.796792 -0.962263 5.055608 0.000024 -0.000113 0.000048
Ga 4.801992 -0.973435 -5.361806 -0.000038 -0.000074 0.000094
Ga 4.789888 -0.969312 -0.130359 -0.000032 0.000019 0.000165
Ga -3.238614 1.801875 5.051881 0.000059 0.000005 0.000098
Ga -3.233064 1.818126 -5.353614 0.000034 -0.000034 0.000001
Ga -3.239774 1.817100 -0.131864 -0.000010 -0.000008 0.000221
Ga -0.028948 -3.747320 5.070212 0.000034 -0.000041 0.000043
Ga -0.026767 -3.754213 -5.349044 0.000045 -0.000036 0.000099
Ga -0.020338 -3.742883 -0.155570 0.000036 0.000143 0.000193
Ga -1.637638 -0.961853 5.066204 -0.000026 -0.000089 0.000058
Ga -1.638266 -0.969384 -5.368166 -0.000023 -0.000072 0.000035
Ga -1.623990 -0.974138 -0.135281 0.000044 0.000011 0.000014
N 1.537476 0.909541 4.385364 0.000097 0.000048 -0.000097
N 1.579027 0.890723 -6.065516 0.000056 0.000061 -0.000066
N 1.584041 0.838892 -0.751351 -0.000003 0.000101 -0.000131
N -0.015335 3.619522 4.387898 -0.000025 0.000065 -0.000047
N -0.026040 3.663128 -6.056947 0.000017 -0.000026 -0.000090
N 0.020702 3.690332 -0.759586 -0.000036 -0.000062 -0.000178
N 3.226746 -1.867329 4.450638 -0.000034 -0.000046 -0.000105
N 3.194309 -1.895789 -6.000856 0.000015 0.000001 -0.000080
N 3.143676 -1.869015 -0.744522 0.000070 -0.000037 -0.000160
N -4.846096 0.837545 4.400969 0.000005 0.000137 -0.000012
N -4.839839 0.883855 -5.993807 0.000012 0.000082 -0.000063
N -4.843978 0.888774 -0.777708 -0.000021 0.000049 -0.000102
N -6.455292 3.669442 4.429417 -0.000102 0.000020 -0.000138
N -6.441696 3.668016 -6.051368 -0.000058 0.000026 -0.000093
N -6.493538 3.685895 -0.743900 0.000033 -0.000069 -0.000150
N -3.277803 -1.877410 4.446470 0.000025 -0.000030 -0.000149
N -3.237444 -1.890187 -6.061554 -0.000028 -0.000010 -0.000046
N -3.235081 -1.946651 -0.746662 -0.000032 0.000020 -0.000227
N -1.581698 0.913959 4.457561 -0.000084 -0.000026 -0.000102
N -1.625741 0.890554 -5.998554 0.000012 -0.000000 -0.000118
N -1.625028 0.891615 -0.763642 0.000017 -0.000008 -0.000146
N -3.235119 3.670376 4.435864 -0.000075 -0.000060 -0.000046
N -3.233976 3.670480 -5.991788 -0.000076 -0.000051 -0.000116
N -3.229106 3.665543 -0.824315 -0.000044 -0.000068 0.000056
N -0.020380 -1.890356 4.432742 -0.000082 -0.000077 -0.000086
N -0.023384 -1.896478 -5.984314 -0.000025 -0.000073 -0.000074
N 0.024456 -1.863920 -0.755533 -0.000061 -0.000107 -0.000175
N 0.022462 1.838250 1.864274 -0.000095 0.000015 -0.000283
N 0.023271 1.842294 6.986213 -0.000115 0.000153 -0.000020
N -0.016737 1.814884 -3.390992 -0.000044 0.000213 -0.000073
N 3.233986 -3.772613 1.853678 -0.000147 0.000232 -0.000226
N 3.236397 -3.776569 7.035368 -0.000069 0.000156 -0.000159
N 3.151735 -3.772016 -3.364387 0.000002 0.000175 -0.000115
N 1.585239 -0.915217 1.801428 -0.000106 0.000105 0.000122
N 1.581995 -0.914382 7.043249 -0.000121 0.000035 -0.000149
N 1.586820 -0.961735 -3.398542 -0.000104 0.000068 -0.000174
N 3.188085 1.759429 1.878120 -0.000168 0.000076 -0.000322
N 3.144765 1.837232 7.045853 -0.000052 0.000036 -0.000130
N 3.181300 1.816779 -3.395665 -0.000151 0.000087 -0.000041
N 6.354270 -3.770825 1.798270 0.000004 0.000059 0.000031
N 6.395820 -3.748610 7.076185 -0.000054 0.000049 -0.000133
N 6.401005 -3.748242 -3.412468 -0.000105 0.000088 -0.000150
N 4.794180 -0.916644 1.846094 -0.000124 -0.000181 -0.000177
N 4.837184 -0.987217 6.976873 -0.000188 0.000051 -0.000083
N 4.796041 -0.971886 -3.377927 -0.000133 -0.000011 -0.000085
N -3.279560 1.787023 1.856607 -0.000035 0.000057 -0.000211
N -3.238993 1.810994 7.021049 -0.000131 0.000121 -0.000024
N -3.233298 1.863135 -3.368425 -0.000154 0.000055 -0.000058
N -0.022793 -3.748943 1.821692 -0.000117 0.000033 -0.000211
N -0.068564 -3.772236 7.046681 -0.000052 0.000122 -0.000106
N 0.015100 -3.774161 -3.355772 -0.000166 0.000154 -0.000074
N -1.632505 -0.964051 1.840236 -0.000188 -0.000017 0.000010
N -1.672612 -0.990892 7.043697 -0.000094 0.000058 -0.000089
N -1.631417 -0.968278 -3.380338 -0.000195 0.000003 -0.000125
