108
Energy=-1.077521e+06 Lattice="9.474074e+00 0.000000e+00 0.000000e+00 -4.741650e+00 8.200863e+00 0.000000e+00 -1.092025e-02 1.439469e-02 1.525389e+01" Stress="2.069727e-04 -3.776597e-04 -3.562364e-04 -3.755009e-04 -1.194587e-04 7.144200e-04 -3.497800e-04 7.125965e-04 8.906071e-05" Properties=species:S:1:pos:R:3:forces:R:3 Config_type=AlGaN_super3_14_0_14.xyz
Al 1.557972e+00 8.690881e-01 2.406621e+00 -7.119167e-04 -6.543274e-05 3.864666e-04
Al 1.549681e+00 8.820655e-01 7.461403e+00 -3.611261e-04 6.721986e-05 4.194988e-05
Al 1.544528e+00 8.556016e-01 -2.691324e+00 2.642151e-04 2.456780e-04 3.545014e-04
Al -2.373948e-02 3.608137e+00 2.402663e+00 -2.730344e-04 -1.881545e-03 4.455094e-04
Al -2.347445e-02 3.605470e+00 7.484427e+00 -3.531823e-05 -3.983327e-04 4.090860e-04
Al -2.202566e-02 3.611048e+00 -2.716496e+00 1.983181e-04 -3.505998e-04 6.281048e-04
Al 3.123263e+00 -1.858984e+00 2.396086e+00 -3.563553e-04 -1.437813e-04 1.046360e-03
Al 3.137269e+00 -1.845639e+00 7.487828e+00 -4.307327e-04 -3.206900e-05 -3.775502e-04
Al 3.134978e+00 -1.868556e+00 -2.711398e+00 -4.492803e-05 -8.525327e-04 9.650443e-04
Al -4.770030e+00 8.818816e-01 2.403375e+00 6.614336e-05 3.818056e-04 2.999817e-04
Al -4.767779e+00 8.704508e-01 7.474929e+00 1.003147e-04 1.617884e-04 1.800024e-04
Ga -4.751650e+00 8.602544e-01 -2.693337e+00 2.781375e-04 -3.041063e-04 5.264355e-04
Al -6.343112e+00 3.597014e+00 2.411569e+00 -2.760243e-03 2.218581e-04 -4.687230e-04
Al -6.351531e+00 3.606504e+00 7.451830e+00 -1.309765e-05 2.015761e-04 1.329409e-04
Ga -6.365723e+00 3.608446e+00 -2.677029e+00 -8.267637e-05 -4.252283e-06 3.719724e-04
Ga -3.185805e+00 -1.869376e+00 2.411369e+00 -4.832155e-05 -2.710455e-04 8.205554e-04
Al -3.199268e+00 -1.858214e+00 7.481037e+00 -1.669275e-03 -9.958598e-04 1.146303e-03
Al -3.177048e+00 -1.868520e+00 -2.720668e+00 7.689803e-04 -1.068308e-03 7.203504e-04
Al -1.601002e+00 8.867175e-01 2.405393e+00 4.634363e-04 1.973589e-04 5.433791e-05
Al -1.600807e+00 8.931813e-01 7.500569e+00 -3.397694e-04 -1.489377e-03 -2.918416e-04
Al -1.597143e+00 8.692804e-01 -2.718371e+00 9.700793e-04 -4.904517e-04 -8.771527e-04
Al -3.177819e+00 3.608592e+00 2.389612e+00 6.126261e-04 -5.803251e-04 -8.446454e-04
Al -3.186270e+00 3.607774e+00 7.487572e+00 1.511529e-04 9.818615e-05 1.427004e-04
Ga -3.155525e+00 3.601194e+00 -2.685379e+00 4.472553e-04 -1.562540e-04 4.892821e-04
Al -3.735773e-03 -1.857505e+00 2.414514e+00 5.748707e-04 9.749075e-05 4.221157e-04
Ga -1.962443e-02 -1.851143e+00 7.478793e+00 2.393820e-04 -7.569775e-05 6.771769e-04
Al -1.461644e-02 -1.836609e+00 -2.709103e+00 -2.250409e-05 -2.198969e-04 -1.354007e-04
Al -1.090402e-02 1.789904e+00 4.938598e+00 -3.624232e-04 -7.149219e-04 -3.973505e-04
Al -2.336801e-02 1.776623e+00 -5.237399e+00 -7.235204e-05 6.052565e-04 7.581549e-04
Ga -1.964886e-02 1.792693e+00 -1.539010e-01 -5.703493e-05 2.421373e-04 7.531488e-04
Ga 3.141805e+00 -3.670599e+00 4.946437e+00 -9.450661e-05 1.535695e-04 2.339236e-04
Al 3.154525e+00 -3.687422e+00 -5.257089e+00 -2.394133e-04 1.164944e-04 3.708548e-04
Al 3.149788e+00 -3.680561e+00 -1.393720e-01 -1.091767e-04 2.810218e-04 -3.923582e-05
Al 1.566299e+00 -9.378375e-01 4.933013e+00 -6.540412e-04 6.020823e-04 -1.203929e-03
Al 1.569707e+00 -9.469890e-01 -5.231028e+00 -8.968946e-04 -7.409374e-04 -9.772800e-05
Al 1.568796e+00 -9.521329e-01 -1.489258e-01 -3.089400e-04 4.527763e-04 -7.195267e-05
Al 3.120242e+00 1.784497e+00 4.937738e+00 -2.575019e-04 5.658873e-05 2.737660e-04
Ga 3.127076e+00 1.769079e+00 -5.262831e+00 1.063462e-04 -1.107617e-05 7.331374e-04
Al 3.127855e+00 1.779359e+00 -1.192714e-01 -1.932993e-04 -1.553564e-04 -4.730760e-04
Al 6.294821e+00 -3.697042e+00 4.955387e+00 -1.382596e-04 4.470985e-04 -2.658197e-05
Al 6.285428e+00 -3.681208e+00 -5.257626e+00 -4.659295e-04 1.612561e-04 4.808384e-04
Al 6.282032e+00 -3.690851e+00 -1.453140e-01 2.729133e-04 -1.825313e-04 -4.237200e-04
Al 4.691345e+00 -9.414760e-01 4.952033e+00 1.690476e-03 -1.685007e-03 -6.337021e-04
Al 4.721859e+00 -9.673970e-01 -5.243964e+00 1.548803e-05 -2.222085e-04 -1.720712e-04
Ga 4.704843e+00 -9.590410e-01 -1.477930e-01 -4.743754e-04 3.763509e-04 -2.150240e-03
Ga -3.193751e+00 1.788787e+00 4.947769e+00 2.754899e-04 -1.784688e-04 5.453136e-04
Al -3.165404e+00 1.769659e+00 -5.263464e+00 -3.130288e-04 5.021215e-04 -9.968000e-04
Al -3.180443e+00 1.785267e+00 -1.195485e-01 -8.308523e-05 1.064291e-04 -3.730544e-04
Al -2.899597e-02 -3.685502e+00 4.927743e+00 2.499451e-04 3.391613e-04 -4.667448e-04
Ga -1.678685e-02 -3.685875e+00 -5.236181e+00 2.565868e-04 -3.368799e-04 5.688107e-04
Ga -1.848458e-02 -3.678172e+00 -1.256841e-01 -3.377583e-04 -2.151257e-04 -8.055295e-04
Ga -1.599931e+00 -9.492809e-01 4.949260e+00 -4.119144e-04 3.952689e-04 1.315630e-04
Al -1.606688e+00 -9.434166e-01 -5.236621e+00 -1.119074e-03 -4.839864e-05 -1.127105e-04
Ga -1.596706e+00 -9.443785e-01 -1.524325e-01 -6.357302e-04 -1.742542e-04 -1.082772e-03
N 1.551081e+00 8.757181e-01 4.332314e+00 7.314643e-04 1.608060e-07 -3.353577e-04
N 1.511168e+00 8.410843e-01 -5.876521e+00 -2.040175e-04 -3.759003e-04 -9.940725e-04
N 1.597176e+00 8.474093e-01 -7.686618e-01 1.754745e-04 -3.040616e-04 -4.657000e-04
N 1.359250e-02 3.589452e+00 4.320972e+00 1.686453e-04 -1.743512e-04 -3.882574e-04
N -1.744212e-02 3.593194e+00 -5.849269e+00 -5.861898e-05 -3.300635e-04 -3.653407e-04
N -2.608312e-02 3.654624e+00 -7.893144e-01 -1.990570e-04 -2.563855e-05 -9.321500e-04
N 3.131362e+00 -1.812870e+00 4.311036e+00 3.319064e-04 5.501645e-05 -5.697192e-04
N 3.137137e+00 -1.861196e+00 -5.845243e+00 9.826578e-07 2.831273e-04 -4.657755e-04
N 3.094070e+00 -1.890131e+00 -7.839839e-01 -1.049092e-04 -2.852971e-04 -1.114770e-03
N -4.807359e+00 8.550333e-01 4.323794e+00 2.496321e-04 -2.192066e-04 -5.900528e-04
N -4.720635e+00 8.375557e-01 -5.865076e+00 5.365643e-04 -3.446280e-04 -2.430323e-04
N -4.758849e+00 9.226591e-01 -7.134680e-01 1.260892e-04 1.445807e-04 -7.665651e-04
N -6.348770e+00 3.606122e+00 4.339944e+00 -2.517094e-04 -1.236439e-04 -4.096995e-04
N -6.378996e+00 3.625725e+00 -5.893820e+00 2.396099e-04 -4.788139e-05 -4.249563e-04
N -6.383784e+00 3.581288e+00 -7.047864e-01 -9.619078e-05 3.543711e-05 -3.677739e-04
N -3.225347e+00 -1.891070e+00 4.379761e+00 -1.957544e-03 1.707891e-03 9.768553e-04
N -3.176860e+00 -1.865684e+00 -5.848339e+00 -3.045631e-04 1.065176e-04 -1.891568e-04
N -3.178325e+00 -1.909835e+00 -7.993282e-01 5.209170e-04 4.570421e-05 -2.462945e-04
N -1.568587e+00 9.029921e-01 4.306775e+00 4.914350e-04 4.269253e-04 5.017366e-04
N -1.590702e+00 8.703962e-01 -5.838217e+00 5.833802e-04 -4.595034e-04 -4.677139e-04
N -1.649130e+00 9.034916e-01 -8.057911e-01 3.897468e-04 -3.910861e-04 8.806549e-04
N -3.218000e+00 3.632144e+00 4.292193e+00 -9.672765e-05 2.594166e-07 1.466147e-03
N -3.142585e+00 3.582115e+00 -5.856839e+00 5.087993e-04 -3.058587e-04 -5.160662e-04
N -3.138552e+00 3.582448e+00 -7.039840e-01 4.382250e-04 -1.958048e-04 -4.088406e-04
N 1.943067e-02 -1.876416e+00 4.330578e+00 6.952948e-04 -5.478097e-04 -2.720271e-04
N -1.924590e-02 -1.815936e+00 -5.805586e+00 1.885791e-03 6.259000e-04 1.084866e-04
N 2.063433e-02 -1.830941e+00 -7.969092e-01 5.831044e-04 -4.685183e-04 1.978046e-04
N -2.375462e-02 1.781940e+00 1.836464e+00 1.081194e-03 1.697858e-03 -1.360988e-03
N -2.889850e-02 1.789439e+00 6.865933e+00 -4.232586e-04 3.670065e-04 -7.083627e-04
N -1.633878e-02 1.780600e+00 -3.302984e+00 -5.463994e-05 9.897720e-05 -2.821042e-04
N 3.146376e+00 -3.679641e+00 1.791152e+00 -2.537762e-04 1.981240e-04 4.446975e-04
N 3.135513e+00 -3.676834e+00 6.929421e+00 -3.902302e-06 5.730510e-04 -4.878971e-05
N 3.182246e+00 -3.664906e+00 -3.338829e+00 -4.120894e-04 5.927783e-04 -7.840787e-04
N 1.557729e+00 -9.487024e-01 1.779414e+00 -3.278988e-04 -3.043574e-06 8.694801e-04
N 1.596075e+00 -9.191153e-01 6.837573e+00 9.142996e-04 -8.828800e-04 2.592585e-03
N 1.567875e+00 -9.498020e-01 -3.311632e+00 -3.900755e-04 3.565865e-04 -4.865124e-04
N 3.129575e+00 1.782342e+00 1.803492e+00 -4.761044e-04 3.239255e-04 6.905064e-04
N 3.130718e+00 1.785464e+00 6.866002e+00 -5.473208e-05 -1.028041e-04 -2.293961e-04
N 3.094251e+00 1.755274e+00 -3.295817e+00 -2.521791e-04 -1.320774e-05 -4.154770e-04
N 6.289560e+00 -3.727735e+00 1.766114e+00 1.729858e-03 -1.204048e-03 2.129504e-03
N 6.286621e+00 -3.680889e+00 6.872740e+00 -2.805334e-04 7.299654e-05 -1.196831e-04
N 6.258008e+00 -3.665057e+00 -3.343286e+00 1.218131e-04 -1.075143e-05 -4.490541e-04
N 4.671915e+00 -9.267595e-01 1.818146e+00 4.570118e-04 -1.873103e-04 1.602074e-03
N 4.705881e+00 -9.452343e-01 6.873731e+00 -4.106412e-04 -2.524689e-04 -5.400787e-04
N 4.717837e+00 -1.004661e+00 -3.322187e+00 -9.496042e-04 1.714116e-03 -6.516609e-04
N -3.181694e+00 1.779928e+00 1.801192e+00 -1.991003e-04 -7.138157e-05 5.954507e-04
N -3.184400e+00 1.787771e+00 6.927401e+00 -1.056647e-04 3.351971e-04 -1.385200e-04
N -3.141124e+00 1.758825e+00 -3.360576e+00 -7.446787e-04 2.908421e-04 1.090151e-03
N -2.664910e-02 -3.682315e+00 1.855562e+00 3.638014e-04 1.572865e-03 -1.784619e-04
N -2.033079e-02 -3.723205e+00 6.848543e+00 -5.869776e-05 -5.029691e-04 -5.592500e-04
N -1.879603e-02 -3.647020e+00 -3.268487e+00 -5.378194e-05 3.943825e-04 4.112065e-05
N -1.557609e+00 -9.267015e-01 1.827744e+00 -8.052165e-04 -1.172698e-04 6.505558e-04
N -1.655081e+00 -9.228388e-01 6.917707e+00 2.704597e-03 3.219426e-03 -1.272676e-04
N -1.601383e+00 -9.508406e-01 -3.310575e+00 -1.278430e-04 2.421937e-04 1.870228e-04
