108
Energy=-1672602.237029 Lattice="9.543571 0.000000 0.000000 -4.774030 8.265843 0.000000 0.000271 -0.003891 15.424125" Stress="-0.000001 -0.000000 0.000001 -0.000000 -0.000001 -0.000000 0.000001 -0.000000 -0.000006" Properties=species:S:1:pos:R:3:forces:R:3
Al 1.574686 0.880880 2.407633 -0.000087 -0.000177 -0.000042
Al 1.569534 0.877025 7.555334 0.000046 0.000045 0.000050
Al 1.557019 0.882172 -2.694945 0.000033 0.000015 0.000073
Al -0.025909 3.633077 2.422927 0.000066 -0.000002 -0.000027
Al -0.035100 3.633559 7.565486 0.000004 0.000013 0.000048
Ga -0.037455 3.619920 -2.720082 -0.000010 0.000012 0.000057
Al 3.152187 -1.883819 2.448273 -0.000412 0.000330 -0.000139
Ga 3.146130 -1.892611 7.551303 -0.000011 -0.000004 0.000048
Ga 3.146521 -1.883322 -2.728876 -0.000012 0.000005 0.000082
Al -4.803807 0.887109 2.420732 0.000015 0.000211 -0.000011
Ga -4.791964 0.895708 7.582352 0.000025 0.000020 0.000047
Ga -4.799962 0.887402 -2.731186 0.000035 -0.000002 0.000035
Al -6.375933 3.630386 2.397523 -0.000036 -0.000034 0.000041
Ga -6.394462 3.622582 7.578167 0.000005 0.000016 0.000047
Ga -6.380038 3.627413 -2.708225 -0.000003 0.000012 0.000102
Al -3.201286 -1.881940 2.434714 0.000012 -0.000060 -0.000001
Ga -3.201096 -1.885114 7.569606 -0.000029 0.000029 0.000069
Ga -3.202165 -1.874093 -2.722127 -0.000028 0.000006 0.000064
Ga -1.609765 0.882888 2.436363 0.000041 0.000017 0.000013
Ga -1.619002 0.890828 7.546477 0.000080 -0.000048 0.000072
Al -1.605678 0.888891 -2.711833 0.000041 -0.000028 0.000068
Al -3.208627 3.641963 2.432380 0.000111 0.000164 0.000168
Al -3.184882 3.623527 7.552451 -0.000002 -0.000007 0.000017
Al -3.203760 3.637131 -2.720829 -0.000010 -0.000009 0.000036
Al -0.015226 -1.886660 2.430754 0.000146 0.000061 0.000054
Ga -0.011821 -1.867980 7.539706 -0.000029 -0.000044 0.000049
Al -0.017266 -1.875831 -2.697734 -0.000004 -0.000038 0.000086
Ga -0.021136 1.795788 4.995994 -0.000005 0.000021 0.000030
Ga -0.015769 1.808999 -5.297186 -0.000003 0.000051 0.000062
Al -0.012241 1.794630 -0.139862 0.000015 0.000029 0.000077
Al 3.150855 -3.724260 4.974816 0.000095 0.000109 0.000036
Al 3.161941 -3.722987 -5.304647 -0.000004 0.000031 0.000045
Ga 3.147264 -3.724220 -0.117671 0.000014 0.000058 0.000058
Al 1.564470 -0.958206 4.959846 -0.000045 -0.000151 -0.000153
Ga 1.581491 -0.944368 -5.268115 -0.000067 0.000050 0.000081
Ga 1.559678 -0.948222 -0.131409 -0.000040 0.000052 0.000156
Ga 3.161176 1.787720 4.970897 0.000016 0.000031 0.000018
Al 3.153146 1.792220 -5.285569 0.000021 0.000000 0.000050
Al 3.148155 1.800846 -0.124120 -0.000031 -0.000010 0.000076
Ga 6.335795 -3.712605 4.966924 0.000037 0.000026 0.000064
Al 6.324846 -3.716234 -5.295696 0.000017 0.000006 0.000064
Ga 6.346154 -3.729582 -0.109177 0.000035 0.000020 0.000037
Ga 4.750971 -0.953880 4.965122 0.000026 -0.000038 0.000093
Al 4.748220 -0.955162 -5.298702 -0.000026 -0.000001 0.000027
Ga 4.741765 -0.950017 -0.101894 -0.000067 -0.000002 0.000021
Al -3.203545 1.806084 4.974500 -0.000014 0.000085 -0.000016
Al -3.207258 1.811405 -5.274600 0.000018 -0.000011 0.000044
Ga -3.207909 1.813174 -0.145602 0.000025 -0.000027 0.000085
Ga -0.002732 -3.713222 4.974458 -0.000005 0.000042 0.000014
Ga -0.009113 -3.728897 -5.287065 0.000033 -0.000015 0.000049
Al -0.014768 -3.717557 -0.131944 -0.000124 0.000046 -0.000048
Al -1.607190 -0.958346 4.966227 0.000040 -0.000071 0.000042
Ga -1.625066 -0.952019 -5.259758 -0.000026 -0.000002 0.000085
Ga -1.598346 -0.957172 -0.139636 -0.000002 -0.000012 0.000005
N 1.565796 0.836594 4.317690 0.000030 -0.000015 -0.000017
N 1.610047 0.898352 -5.956150 0.000040 -0.000022 -0.000072
N 1.570653 0.930176 -0.768465 0.000043 0.000012 -0.000096
N -0.067362 3.649996 4.331560 0.000029 0.000017 -0.000039
N -0.028100 3.683524 -5.934521 -0.000007 0.000005 -0.000056
N -0.026949 3.591324 -0.741772 -0.000047 -0.000013 -0.000063
N 3.115557 -1.907426 4.365817 -0.000069 0.000015 0.000079
N 3.192545 -1.901516 -5.882697 -0.000004 0.000006 -0.000049
N 3.160940 -1.879818 -0.757671 0.000012 -0.000032 -0.000047
N -4.752490 0.907765 4.327770 0.000065 0.000008 0.000008
N -4.790731 0.889330 -5.847093 0.000027 0.000013 -0.000042
N -4.841084 0.901568 -0.748455 0.000054 0.000014 -0.000075
N -6.378188 3.632001 4.306603 0.000001 0.000024 -0.000046
N -6.427245 3.610600 -5.864579 -0.000032 0.000001 -0.000061
N -6.343716 3.609353 -0.715173 0.000062 -0.000008 -0.000008
N -3.160104 -1.854162 4.337075 0.000014 0.000018 -0.000093
N -3.238685 -1.897099 -5.873152 -0.000017 0.000004 -0.000055
N -3.211394 -1.879511 -0.751968 -0.000043 -0.000003 -0.000036
N -1.649874 0.860089 4.412695 0.000021 -0.000035 -0.000018
N -1.660827 0.903874 -5.897883 0.000044 -0.000029 -0.000084
N -1.573297 0.907849 -0.787714 0.000025 -0.000042 -0.000068
N -3.162717 3.609569 4.344889 -0.000120 -0.000120 -0.000198
N -3.159927 3.606232 -5.944529 0.000005 -0.000034 -0.000057
N -3.244024 3.662316 -0.803895 0.000076 -0.000053 -0.000041
N -0.020610 -1.834726 4.350386 0.000035 0.000074 0.000009
N -0.021223 -1.869335 -5.914079 0.000012 -0.000026 -0.000073
N -0.018799 -1.928001 -0.784241 0.000011 -0.000146 -0.000007
N 0.017411 1.818606 1.783885 0.000040 -0.000048 0.000022
N 0.022656 1.822664 6.980392 -0.000018 0.000051 -0.000054
N -0.019466 1.747372 -3.314226 -0.000019 0.000018 -0.000080
N 3.156055 -3.713910 1.861814 -0.000066 -0.000113 0.000053
N 3.160267 -3.766680 6.906636 0.000034 0.000011 -0.000004
N 3.115735 -3.742591 -3.386170 -0.000013 0.000019 -0.000056
N 1.567992 -0.960355 1.854945 0.000210 -0.000040 0.000091
N 1.572265 -0.907822 6.882646 -0.000015 0.000025 -0.000083
N 1.522414 -0.925638 -3.286937 -0.000057 0.000024 -0.000044
N 3.156823 1.793204 1.799462 0.000008 -0.000009 -0.000034
N 3.120743 1.771995 6.944555 -0.000006 -0.000018 -0.000068
N 3.104214 1.771362 -3.370150 -0.000012 -0.000005 -0.000069
N 6.339117 -3.714361 1.869224 -0.000007 0.000001 0.000025
N 6.298620 -3.741336 6.946481 -0.000001 -0.000011 -0.000058
N 6.336941 -3.719854 -3.383844 0.000024 -0.000004 -0.000056
N 4.745130 -0.959885 1.883840 0.000122 -0.000110 -0.000020
N 4.748720 -0.952909 6.938735 -0.000037 0.000002 -0.000066
N 4.745664 -0.957148 -3.393510 -0.000039 0.000007 -0.000061
N -3.241631 1.826103 1.831368 -0.000166 -0.000259 0.000046
N -3.212907 1.844929 6.891591 0.000013 -0.000031 -0.000016
N -3.162084 1.826413 -3.345443 0.000009 0.000014 -0.000055
N -0.011212 -3.710322 1.802842 0.000002 -0.000016 -0.000013
N 0.020680 -3.744224 6.957034 0.000030 -0.000016 -0.000032
N 0.019855 -3.689138 -3.305460 0.000013 0.000008 -0.000067
N -1.607020 -1.004243 1.838580 -0.000154 0.000033 -0.000051
N -1.616211 -0.960894 6.878457 -0.000052 0.000013 -0.000088
N -1.569196 -0.931186 -3.281005 -0.000029 0.000004 -0.000069
