108
Energy=-985969.973960 Lattice="9.460688 0.000000 0.000000 -4.732513 8.189269 0.000000 0.000250 -0.001969 15.236633" Stress="0.000002 -0.000001 -0.000001 -0.000001 -0.000003 -0.000001 -0.000000 -0.000001 0.000006" Properties=species:S:1:pos:R:3:forces:R:3
Al 1.563901 0.867934 2.384512 0.000126 0.000044 -0.000066
Al 1.547621 0.871244 7.496390 0.000075 0.000146 0.000007
Al 1.553928 0.860757 -2.710277 0.000077 -0.000025 -0.000001
Al -0.012687 3.604833 2.433767 0.000126 0.000053 0.000036
Al -0.009552 3.597034 7.459732 -0.000009 0.000036 -0.000040
Al -0.028244 3.589372 -2.714824 -0.000029 0.000032 -0.000026
Al 3.134165 -1.848957 2.379571 0.000067 0.000075 -0.000063
Al 3.134497 -1.852721 7.488052 0.000081 0.000002 0.000079
Al 3.122574 -1.843681 -2.692063 -0.000060 -0.000048 0.000112
Al -4.762085 0.865901 2.371838 -0.000040 -0.000012 -0.000047
Al -4.750892 0.865394 7.500229 -0.000169 -0.000056 0.000039
Al -4.758358 0.867798 -2.698670 -0.000016 -0.000014 -0.000003
Al -6.331940 3.598832 2.390180 -0.000035 0.000050 0.000074
Al -6.338149 3.607785 7.484149 0.000025 -0.000011 -0.000052
Ga -6.326581 3.589776 -2.698459 -0.000040 -0.000029 -0.000036
Al -3.174050 -1.858685 2.394108 -0.000127 -0.000123 0.000068
Al -3.169345 -1.862658 7.481262 -0.000052 -0.000003 -0.000057
Ga -3.181919 -1.847337 -2.702697 -0.000029 -0.000031 -0.000024
Ga -1.601815 0.859365 2.406452 0.000023 -0.000017 -0.000041
Al -1.595121 0.862587 7.472570 0.000063 -0.000036 -0.000005
Al -1.598029 0.873859 -2.707510 0.000037 -0.000026 -0.000013
Ga -3.186780 3.602137 2.408353 -0.000018 -0.000004 -0.000014
Ga -3.183005 3.598636 7.468654 -0.000003 0.000023 -0.000004
Al -3.181472 3.595885 -2.696904 0.000047 -0.000016 0.000078
Al -0.026214 -1.858921 2.380546 -0.000037 -0.000062 0.000051
Al -0.030546 -1.855152 7.486556 -0.000060 -0.000076 -0.000025
Al -0.009386 -1.848901 -2.698030 -0.000000 -0.000040 -0.000013
Al -0.028247 1.786072 4.949359 0.000051 -0.000014 -0.000042
Al -0.021209 1.773152 -5.233537 -0.000006 -0.000003 0.000007
Ga -0.019509 1.767262 -0.157550 -0.000005 0.000013 -0.000030
Al 3.140861 -3.684127 4.941992 -0.000004 -0.000035 0.000031
Ga 3.137545 -3.675267 -5.215040 -0.000038 0.000027 -0.000038
Ga 3.124522 -3.673294 -0.160974 -0.000032 0.000031 -0.000067
Ga 1.540231 -0.957332 4.940724 -0.000066 0.000010 -0.000053
Al 1.547407 -0.943136 -5.228047 -0.000021 0.000024 -0.000025
Al 1.552223 -0.947616 -0.158107 0.000058 0.000007 -0.000071
Ga 3.134598 1.794200 4.944512 -0.000002 0.000017 0.000001
Al 3.131197 1.777906 -5.242608 0.000022 -0.000015 -0.000070
Al 3.142288 1.764823 -0.147865 0.000025 -0.000111 0.000051
Al 6.292056 -3.676588 4.933163 -0.000012 0.000046 0.000006
Al 6.291651 -3.679356 -5.252557 0.000041 0.000026 0.000063
Ga 6.290270 -3.675986 -0.120781 -0.000009 0.000014 0.000001
Ga 4.722736 -0.952372 4.941170 0.000014 -0.000006 -0.000029
Al 4.709178 -0.938991 -5.239555 -0.000023 0.000050 -0.000059
Al 4.703294 -0.929843 -0.144017 -0.000141 -0.000043 -0.000012
Al -3.171035 1.776652 4.953141 0.000000 0.000030 -0.000058
Al -3.179589 1.766293 -5.218111 -0.000025 0.000004 -0.000038
Al -3.192973 1.769971 -0.178926 0.000085 0.000070 -0.000161
Al -0.033351 -3.670378 4.937079 0.000002 -0.000070 -0.000006
Al -0.032691 -3.669631 -5.225281 0.000046 -0.000031 -0.000109
Al -0.019597 -3.672303 -0.154324 0.000063 -0.000077 -0.000057
Al -1.596541 -0.956188 4.951273 -0.000017 -0.000182 -0.000023
Al -1.593376 -0.945988 -5.242025 -0.000039 0.000013 -0.000006
Al -1.593030 -0.949142 -0.157876 0.000003 0.000017 -0.000035
N 1.516605 0.893530 4.295692 -0.000039 -0.000031 0.000119
N 1.549021 0.870910 -5.826431 0.000014 0.000000 0.000037
N 1.598262 0.846395 -0.787377 -0.000120 -0.000042 -0.000011
N -0.020921 3.598641 4.352255 -0.000019 -0.000012 0.000056
N 0.014914 3.574605 -5.862303 -0.000032 -0.000023 -0.000019
N -0.015916 3.599404 -0.819299 -0.000001 -0.000033 0.000087
N 3.131972 -1.900239 4.290129 -0.000021 -0.000022 0.000082
N 3.128256 -1.812438 -5.842593 -0.000029 -0.000029 -0.000027
N 3.132222 -1.804437 -0.773685 0.000079 0.000034 0.000004
N -4.711366 0.896001 4.282594 0.000066 -0.000003 0.000085
N -4.748215 0.874557 -5.828518 0.000022 0.000000 0.000015
N -4.759184 0.867345 -0.773883 0.000070 0.000004 0.000008
N -6.327504 3.645005 4.306450 0.000081 -0.000054 -0.000098
N -6.327095 3.603874 -5.833995 -0.000001 0.000001 0.000024
N -6.293057 3.573325 -0.722984 0.000098 0.000180 -0.000022
N -3.130330 -1.877401 4.313029 0.000046 0.000079 0.000049
N -3.172860 -1.856323 -5.834214 0.000004 0.000002 0.000006
N -3.180001 -1.812234 -0.726344 0.000048 0.000025 -0.000014
N -1.599628 0.866616 4.390086 0.000028 0.000028 0.000002
N -1.600844 0.874279 -5.839171 0.000052 -0.000024 0.000013
N -1.639048 0.845631 -0.788524 -0.000058 -0.000010 0.000028
N -3.179997 3.599561 4.397501 -0.000017 0.000008 0.000012
N -3.218780 3.575675 -5.796050 -0.000033 0.000003 0.000049
N -3.222511 3.576875 -0.780125 -0.000076 -0.000056 0.000037
N -0.065219 -1.879977 4.299010 -0.000031 0.000146 -0.000011
N -0.022344 -1.858733 -5.835772 0.000015 -0.000031 0.000001
N -0.020601 -1.856744 -0.769986 -0.000020 -0.000028 0.000014
N 0.015018 1.807477 1.818486 -0.000096 -0.000037 -0.000009
N -0.019203 1.775833 6.870304 -0.000028 0.000039 0.000032
N -0.023373 1.775735 -3.309724 -0.000007 0.000023 0.000016
N 3.175964 -3.662600 1.818516 -0.000111 -0.000002 -0.000012
N 3.175637 -3.651377 6.858121 -0.000010 0.000033 -0.000063
N 3.129593 -3.673717 -3.238081 0.000041 0.000045 -0.000063
N 1.551549 -0.949610 1.773159 -0.000038 0.000017 0.000008
N 1.552197 -0.949213 6.921831 0.000011 -0.000088 -0.000025
N 1.552565 -0.950674 -3.308177 -0.000052 0.000021 0.000007
N 3.129743 1.778187 1.778593 0.000026 0.000001 0.000009
N 3.131593 1.778954 6.930675 -0.000006 -0.000028 0.000017
N 3.130530 1.731404 -3.330125 -0.000055 0.000028 0.000046
N 6.280068 -3.681554 1.853270 0.000109 0.000012 0.000008
N 6.290679 -3.676679 6.861513 -0.000034 0.000025 0.000058
N 6.247443 -3.700125 -3.347483 0.000026 0.000008 -0.000046
N 4.709233 -0.949089 1.781296 -0.000043 0.000038 0.000007
N 4.710390 -0.948482 6.922436 0.000078 -0.000002 -0.000001
N 4.664056 -0.924609 -3.328139 0.000055 -0.000008 0.000059
N -3.213566 1.757989 1.733993 0.000020 -0.000009 0.000117
N -3.180739 1.725480 6.859912 0.000064 0.000044 -0.000052
N -3.179367 1.775429 -3.296883 -0.000003 -0.000006 0.000027
N -0.058886 -3.654873 1.761387 -0.000059 -0.000053 0.000016
N -0.069151 -3.650052 6.850496 -0.000011 0.000001 0.000071
N 0.015640 -3.649574 -3.315630 -0.000040 0.000040 0.000064
N -1.597786 -0.993913 1.756763 0.000105 0.000073 -0.000050
N -1.597493 -0.953655 6.874904 -0.000034 0.000014 0.000030
N -1.554885 -0.926603 -3.327425 -0.000027 0.000014 0.000018
