108
Energy=-1031745.467121 Lattice="9.468660 0.000000 0.000000 -4.738125 8.196036 0.000000 0.028806 -0.004575 15.240032" Stress="0.000002 -0.000000 0.000007 -0.000000 0.000000 -0.000001 0.000007 -0.000001 0.000001" Properties=species:S:1:pos:R:3:forces:R:3
Al 1.556422 0.884623 2.397696 0.000152 0.000336 0.000046
Al 1.561264 0.865591 7.455715 0.001237 0.000541 -0.000268
Al 1.550643 0.869518 -2.678795 0.000598 0.000584 0.001317
Al -0.028687 3.596955 2.400138 -0.000717 -0.000620 -0.000089
Al -0.004976 3.599225 7.452649 0.000093 0.000105 0.000476
Al -0.042481 3.607621 -2.685516 0.000164 0.000089 0.000270
Al 3.156049 -1.867529 2.398527 0.000622 -0.000270 -0.000095
Al 3.154575 -1.854566 7.467770 0.000077 -0.000209 0.000398
Al 3.146229 -1.863370 -2.698172 -0.000129 -0.000097 -0.000055
Al -4.754797 0.865053 2.365027 0.000158 -0.000093 -0.000951
Al -4.744618 0.858590 7.480769 -0.000815 -0.000093 0.000304
Al -4.754522 0.862437 -2.674925 0.000572 -0.000249 0.000185
Al -6.341224 3.590616 2.399975 0.001430 -0.000235 0.000249
Al -6.334694 3.595757 7.471074 -0.000072 0.001416 0.000502
Ga -6.350529 3.595819 -2.688110 -0.000158 0.000120 0.000461
Al -3.188124 -1.853653 2.406423 0.000652 0.000836 -0.000163
Ga -3.175599 -1.863833 7.467194 -0.000005 -0.000018 0.000446
Al -3.198438 -1.846954 -2.702017 0.000274 -0.000372 0.000286
Al -1.595435 0.878022 2.371954 -0.000170 0.001016 0.000409
Al -1.585946 0.880823 7.472855 0.000066 -0.002549 0.000818
Al -1.617680 0.879585 -2.674727 0.000114 -0.000331 -0.000021
Al -3.161267 3.597622 2.398806 0.000241 -0.000270 -0.000115
Ga -3.160305 3.598193 7.480837 0.000107 0.000050 -0.000045
Al -3.164553 3.595637 -2.701584 -0.000025 -0.000237 -0.000229
Ga -0.026472 -1.853689 2.417710 0.000382 -0.000117 0.000099
Ga -0.004952 -1.852847 7.471152 0.000263 -0.000000 -0.000053
Ga -0.026808 -1.846454 -2.700647 -0.000045 -0.000122 0.000512
Al -0.018918 1.778938 4.928203 -0.000157 0.000285 -0.000134
Ga -0.042139 1.782726 -5.225790 -0.000483 0.000128 0.000164
Al -0.033824 1.783519 -0.154774 0.000714 0.000009 0.000621
Al 3.155418 -3.673293 4.923555 -0.000254 0.000061 -0.000063
Al 3.132148 -3.668992 -5.227459 0.000040 -0.000033 0.000221
Al 3.140269 -3.689480 -0.149720 -0.000221 0.000383 0.000427
Al 1.573247 -0.956382 4.923154 0.000594 0.000304 0.000422
Al 1.560662 -0.957221 -5.224470 -0.000529 -0.000955 -0.000715
Ga 1.576856 -0.940645 -0.137370 -0.000363 0.000513 -0.000037
Ga 3.136580 1.779896 4.936353 0.000186 -0.000111 0.000314
Ga 3.128927 1.773734 -5.242362 0.000208 0.000429 0.000433
Al 3.134338 1.768264 -0.133019 -0.000180 -0.000134 -0.000260
Al 6.295633 -3.681428 4.910729 -0.000165 -0.000024 0.000313
Al 6.274668 -3.669808 -5.226896 -0.000804 0.000040 0.000077
Ga 6.271378 -3.673240 -0.128215 0.000053 0.000252 -0.000129
Al 4.715203 -0.961757 4.921267 0.000028 -0.000064 -0.000107
Al 4.702827 -0.952811 -5.219091 -0.000135 -0.000097 0.000367
Al 4.718730 -0.946428 -0.152573 -0.000465 -0.000124 0.000110
Ga -3.161198 1.773924 4.914361 -0.000132 -0.000032 -0.000036
Al -3.190006 1.776105 -5.214233 0.000419 -0.000569 -0.000219
Al -3.174926 1.780414 -0.149056 -0.000512 -0.000050 0.000105
Al -0.015102 -3.679408 4.922434 0.000131 0.000253 0.000385
Al -0.025085 -3.674322 -5.223078 -0.002081 -0.001637 -0.001240
Ga -0.006826 -3.695084 -0.130790 0.000192 0.000214 0.000004
Al -1.594147 -0.946612 4.923021 -0.000559 0.000279 -0.000016
Al -1.619795 -0.946765 -5.220153 -0.000091 0.000514 -0.000024
Al -1.622424 -0.929643 -0.147936 -0.000212 -0.000177 0.000418
N 1.520627 0.851230 4.312845 0.000049 0.000161 -0.000065
N 1.535179 0.818865 -5.877259 0.000335 0.001107 -0.000746
N 1.554936 0.920377 -0.763439 -0.000579 -0.000326 -0.000929
N -0.021001 3.595947 4.321685 0.000030 -0.000108 0.000110
N -0.034148 3.650395 -5.864069 -0.000380 0.000039 -0.000396
N -0.066930 3.583130 -0.771039 0.000153 -0.000125 0.000134
N 3.147833 -1.865225 4.314432 0.000016 -0.000045 0.000097
N 3.129086 -1.858072 -5.841289 0.000007 -0.000124 -0.000369
N 3.179563 -1.887931 -0.778489 0.000240 -0.000135 -0.000268
N -4.752179 0.822190 4.269410 -0.000054 -0.000006 0.001054
N -4.721696 0.842968 -5.848283 0.000131 -0.000001 -0.000246
N -4.757813 0.872200 -0.744470 0.000464 0.000037 0.000042
N -6.329449 3.642264 4.306882 0.000026 0.000246 0.000010
N -6.359548 3.654564 -5.849594 0.003641 0.000644 0.000621
N -6.343426 3.560316 -0.724320 -0.000053 0.000019 -0.000297
N -3.173289 -1.856908 4.328471 0.000181 -0.000062 -0.000343
N -3.190846 -1.858606 -5.789532 -0.000090 0.000262 -0.000176
N -3.181121 -1.814027 -0.781967 0.000229 -0.000081 -0.000436
N -1.548351 0.848959 4.284480 0.000069 -0.000089 0.000160
N -1.652481 0.848894 -5.850020 -0.000474 0.000815 -0.001399
N -1.607361 0.874968 -0.752564 0.000405 -0.000084 -0.000060
N -3.164698 3.650366 4.312414 0.000027 -0.000186 0.000173
N -3.185119 3.605123 -5.778430 -0.000333 -0.000330 0.000113
N -3.135818 3.580898 -0.781165 0.000127 -0.000360 -0.000075
N -0.015498 -1.854552 4.391814 0.000031 -0.001409 -0.000916
N -0.031768 -1.853173 -5.778155 0.000044 -0.000365 -0.000244
N -0.062849 -1.832575 -0.728194 0.000048 -0.000288 -0.000581
N -0.018224 1.784488 1.773543 0.000012 0.000067 -0.000684
N -0.015979 1.781211 6.858018 0.000081 -0.000191 -0.000125
N -0.030574 1.780310 -3.242055 0.000055 0.000273 0.000038
N 3.141549 -3.683314 1.780708 0.000112 0.000198 -0.000276
N 3.190509 -3.658160 6.842388 -0.000079 0.000335 -0.000117
N 3.136087 -3.679048 -3.306466 -0.000095 0.000200 -0.000086
N 1.607805 -0.927616 1.833398 -0.000663 0.000135 -0.000139
N 1.615879 -0.933833 6.838490 -0.000087 0.000488 -0.000036
N 1.599663 -0.924212 -3.311730 0.000626 0.000094 0.001238
N 3.132208 1.778325 1.788201 -0.000030 0.000106 0.000158
N 3.150711 1.781671 6.921508 -0.000948 -0.001922 -0.000104
N 3.133172 1.728665 -3.268361 -0.001098 0.000016 -0.000720
N 6.287900 -3.681153 1.853079 0.000091 0.001124 -0.000316
N 6.305699 -3.730661 6.830214 -0.000077 0.000063 -0.000464
N 6.240234 -3.659428 -3.308391 -0.000179 0.000138 -0.000214
N 4.715912 -0.957097 1.770498 0.000204 -0.000161 -0.000094
N 4.683616 -0.928384 6.837018 -0.000120 0.000231 -0.000468
N 4.704364 -0.943311 -3.298371 -0.000319 0.000041 0.000016
N -3.174669 1.785644 1.779226 -0.000067 0.000261 -0.000404
N -3.171406 1.732073 6.887119 0.001009 0.000475 -0.000219
N -3.186809 1.776993 -3.289885 0.000013 0.000127 0.000301
N -0.010678 -3.729421 1.836680 -0.001181 -0.000127 -0.000133
N -0.046279 -3.711288 6.834347 -0.000375 0.000095 -0.000058
N 0.013625 -3.707270 -3.320938 0.000043 0.000077 0.000376
N -1.643039 -0.924834 1.768998 -0.001005 -0.001875 0.000201
N -1.592010 -0.903224 6.826327 -0.000084 0.001527 0.001417
N -1.649704 -0.916591 -3.309698 -0.000419 0.000129 -0.000157
