108
Energy=-2.313459e+06 Lattice="9.628567e+00 0.000000e+00 0.000000e+00 -4.821414e+00 8.339500e+00 0.000000e+00 -4.161612e-04 -5.414739e-04 1.559469e+01" Stress="-5.212025e-04 -5.042950e-05 -2.487569e-05 -5.646058e-05 -3.885153e-04 -1.073137e-05 -3.022509e-05 -4.079180e-06 -4.398322e-04" Properties=species:S:1:pos:R:3:forces:R:3 Config_type=AlGaN_super3_41_0_8.xyz
Al 1.570371e+00 9.011088e-01 2.442883e+00 7.568794e-05 -1.937354e-04 3.664550e-04
Al 1.592293e+00 8.946367e-01 7.644792e+00 3.826752e-04 -3.195114e-04 8.001650e-04
Ga 1.575235e+00 8.904648e-01 -2.733129e+00 5.246528e-04 -3.454773e-04 6.132539e-04
Al -3.535199e-02 3.653964e+00 2.432656e+00 -2.173834e-04 9.414587e-07 4.593383e-04
Ga -9.747923e-03 3.663556e+00 7.638834e+00 1.475756e-04 1.559848e-04 1.240024e-03
Ga -2.764100e-02 3.660218e+00 -2.722274e+00 2.830933e-04 7.198809e-05 1.097149e-03
Ga 3.186298e+00 -1.906289e+00 2.446290e+00 6.047427e-05 -3.436078e-04 4.189621e-04
Ga 3.196416e+00 -1.882903e+00 7.638304e+00 2.435200e-04 1.655061e-04 7.565474e-04
Ga 3.191466e+00 -1.899058e+00 -2.729612e+00 3.635499e-04 7.872340e-05 6.816520e-04
Ga -4.844755e+00 9.004149e-01 2.448329e+00 5.072082e-04 -1.726549e-04 5.487208e-04
Al -4.843585e+00 8.928984e-01 7.650793e+00 7.610931e-05 -2.012543e-04 5.816194e-04
Ga -4.829947e+00 8.950881e-01 -2.748662e+00 4.290226e-04 -3.678868e-04 8.179501e-04
Ga -6.445799e+00 3.661048e+00 2.445705e+00 1.813831e-04 3.794829e-04 6.480688e-04
Al -6.450937e+00 3.658913e+00 7.635932e+00 -7.801494e-05 -5.907848e-05 6.597508e-04
Ga -6.441478e+00 3.668278e+00 -2.732479e+00 -5.236308e-05 1.390071e-04 1.080448e-03
Ga -3.231759e+00 -1.895674e+00 2.470098e+00 7.088109e-05 -8.539014e-05 2.885340e-04
Al -3.222500e+00 -1.890412e+00 7.630611e+00 5.511764e-05 9.909260e-05 7.349666e-04
Ga -3.229706e+00 -1.895584e+00 -2.746995e+00 1.287605e-04 4.813960e-05 9.352936e-04
Ga -1.625023e+00 9.076047e-01 2.445095e+00 6.778566e-04 -2.808255e-04 3.608592e-04
Ga -1.642881e+00 8.807330e-01 7.636736e+00 9.852526e-04 -4.673905e-04 6.253985e-04
Ga -1.638757e+00 9.014109e-01 -2.731167e+00 7.485826e-04 -4.539507e-04 8.732428e-04
Al -3.230463e+00 3.667933e+00 2.417500e+00 2.911416e-04 -5.247208e-05 6.334822e-04
Ga -3.249746e+00 3.654390e+00 7.654369e+00 6.054743e-04 1.527997e-04 1.136156e-03
Ga -3.239346e+00 3.659191e+00 -2.725115e+00 4.893890e-04 -2.132809e-04 1.342332e-03
Ga -1.892425e-02 -1.894250e+00 2.458578e+00 5.145789e-04 -4.667085e-04 5.174339e-04
Ga -3.585101e-02 -1.888098e+00 7.629209e+00 7.644176e-04 1.680949e-04 6.765093e-04
Ga -1.992840e-02 -1.897881e+00 -2.732512e+00 4.607899e-04 -3.212690e-05 6.300966e-04
Ga -1.983650e-02 1.805414e+00 5.034758e+00 -6.651477e-04 1.044008e-04 1.156514e-03
Ga -2.942942e-02 1.807934e+00 -5.359269e+00 -6.165770e-04 -2.658752e-04 8.746846e-04
Al -3.462885e-02 1.821661e+00 -1.226529e-01 -1.941679e-04 -4.570058e-05 1.074727e-03
Ga 3.187840e+00 -3.759401e+00 5.021788e+00 -4.394638e-04 -2.397244e-04 1.022505e-03
Ga 3.186425e+00 -3.758150e+00 -5.340591e+00 -5.765428e-04 5.584948e-06 7.106797e-04
Al 3.182691e+00 -3.772165e+00 -1.265004e-01 -2.203799e-04 5.462488e-05 1.079417e-03
Ga 1.577571e+00 -9.545728e-01 5.044278e+00 -7.386864e-04 2.364810e-04 3.956920e-04
Ga 1.586635e+00 -9.615744e-01 -5.352971e+00 -8.602241e-04 2.278015e-04 4.921511e-04
Ga 1.582328e+00 -9.742163e-01 -1.277421e-01 -7.417632e-04 6.503567e-04 2.780640e-04
Ga 3.176266e+00 1.808669e+00 5.066974e+00 -2.537100e-04 -3.027027e-04 9.326033e-04
Ga 3.192177e+00 1.815252e+00 -5.378451e+00 -1.230135e-04 -8.170766e-05 1.272469e-03
Ga 3.187453e+00 1.815985e+00 -1.378380e-01 -4.166294e-04 -6.771749e-05 7.283991e-04
Ga 6.400282e+00 -3.741264e+00 5.051344e+00 -4.256529e-04 -2.788935e-04 7.595977e-04
Ga 6.405772e+00 -3.743603e+00 -5.369033e+00 2.614954e-04 -6.436541e-05 1.004461e-03
Ga 6.392853e+00 -3.756683e+00 -1.276917e-01 -2.548283e-04 -1.136142e-04 6.853719e-04
Ga 4.807764e+00 -9.618341e-01 5.072679e+00 -5.378267e-04 -6.838748e-05 4.519938e-04
Ga 4.806249e+00 -9.561077e-01 -5.372833e+00 -2.571260e-04 2.117350e-04 5.635909e-04
Ga 4.798054e+00 -9.677862e-01 -1.419901e-01 -5.286598e-04 4.973512e-04 7.579100e-04
Ga -3.236073e+00 1.816717e+00 5.037881e+00 6.715369e-06 2.797235e-05 1.443930e-03
Al -3.240559e+00 1.812315e+00 -5.359459e+00 -1.718388e-04 -3.269263e-04 1.098331e-03
Al -3.226345e+00 1.833587e+00 -1.325481e-01 2.426047e-05 -1.612767e-05 1.275971e-03
Ga -1.816644e-02 -3.745603e+00 5.044815e+00 2.338857e-04 -1.223045e-04 1.290248e-03
Ga -1.994408e-02 -3.755806e+00 -5.361056e+00 -3.419262e-04 -6.697584e-05 9.363511e-04
Al -8.862263e-04 -3.756573e+00 -1.320949e-01 3.031740e-05 -1.337059e-04 1.144691e-03
Al -1.630864e+00 -9.651969e-01 5.056838e+00 -1.242876e-04 6.834433e-05 7.143039e-04
Ga -1.633482e+00 -9.574993e-01 -5.355001e+00 -4.697302e-04 1.419725e-04 8.629780e-04
Ga -1.619405e+00 -9.597341e-01 -1.456813e-01 -4.213308e-04 7.335673e-04 6.002403e-04
N 1.580733e+00 8.909894e-01 4.360605e+00 5.966553e-04 -2.310496e-05 -8.659784e-04
N 1.578124e+00 8.862983e-01 -6.031822e+00 4.608648e-04 -3.182786e-05 -8.996736e-04
N 1.534220e+00 9.096937e-01 -7.494099e-01 -9.915423e-05 1.161448e-04 -5.508800e-04
N -2.478142e-02 3.661310e+00 4.360858e+00 3.369334e-04 2.083390e-04 -1.153638e-03
N -2.695459e-02 3.664980e+00 -5.980807e+00 7.008377e-05 2.183678e-04 -1.063406e-03
N -6.774133e-02 3.638677e+00 -7.271746e-01 -3.784149e-04 1.290942e-05 -6.985673e-04
N 3.192604e+00 -1.892351e+00 4.427964e+00 3.652064e-04 1.781217e-04 -5.524988e-04
N 3.189461e+00 -1.898242e+00 -5.978038e+00 4.042409e-04 -5.878001e-05 -6.231169e-04
N 3.189247e+00 -1.950100e+00 -7.396094e-01 2.392453e-04 -3.948788e-04 -2.921067e-04
N -4.845519e+00 8.877854e-01 4.423468e+00 2.837539e-04 1.332449e-04 -8.081073e-04
N -4.797540e+00 9.138978e-01 -6.017463e+00 6.731343e-04 1.384474e-04 -9.298487e-04
N -4.791943e+00 9.141981e-01 -7.575579e-01 6.481842e-04 1.093947e-04 -5.891060e-04
N -6.445408e+00 3.661672e+00 4.423733e+00 3.298553e-05 2.739514e-04 -8.373618e-04
N -6.445602e+00 3.666808e+00 -6.040079e+00 5.482915e-05 2.170910e-04 -1.077666e-03
N -6.401944e+00 3.691203e+00 -7.437957e-01 2.910485e-04 3.869639e-04 -6.562470e-04
N -3.191468e+00 -1.869684e+00 4.448588e+00 4.385843e-04 3.120722e-04 -6.796634e-04
N -3.224370e+00 -1.892549e+00 -6.041527e+00 1.252133e-04 4.596504e-05 -9.634285e-04
N -3.227881e+00 -1.899529e+00 -7.746808e-01 2.394930e-04 9.621833e-05 -5.618746e-04
N -1.633660e+00 8.422439e-01 4.435344e+00 6.717911e-04 -1.898934e-04 -8.352515e-04
N -1.675790e+00 9.111932e-01 -5.970643e+00 3.985983e-04 2.064635e-04 -8.168402e-04
N -1.632559e+00 9.425232e-01 -7.299879e-01 3.342545e-04 5.608091e-05 -6.030418e-04
N -3.241995e+00 3.666054e+00 4.345674e+00 2.440541e-04 9.168257e-05 -1.430614e-03
N -3.236584e+00 3.618330e+00 -5.959088e+00 5.442293e-04 -1.429525e-04 -8.927318e-04
N -3.235845e+00 3.663996e+00 -7.200401e-01 2.054008e-04 6.704998e-06 -7.279899e-04
N -6.504386e-02 -1.870272e+00 4.446551e+00 8.891795e-05 1.440079e-04 -7.537124e-04
N -2.490079e-02 -1.889986e+00 -5.984342e+00 5.786910e-04 -9.549779e-05 -6.885344e-04
N -1.910178e-02 -1.945964e+00 -7.483360e-01 4.744665e-04 -2.268440e-04 -3.485709e-04
N 1.561387e-02 1.836610e+00 1.810199e+00 -1.639671e-04 5.755482e-05 -1.095602e-03
N 1.861757e-02 1.786533e+00 7.024856e+00 -3.315531e-04 -1.820862e-04 -9.523229e-04
N -2.459445e-02 1.811653e+00 -3.378151e+00 -5.332231e-04 6.703409e-05 -8.294361e-04
N 3.191480e+00 -3.796709e+00 1.808309e+00 -1.479554e-04 -1.553842e-04 -1.166596e-03
N 3.187924e+00 -3.754330e+00 7.005472e+00 -4.576331e-04 -4.342120e-05 -1.103079e-03
N 3.190422e+00 -3.752687e+00 -3.361179e+00 -4.315782e-04 6.507744e-05 -7.178513e-04
N 1.583981e+00 -9.180869e-01 1.851844e+00 -3.788735e-04 3.103475e-04 -9.937599e-05
N 1.586312e+00 -9.149474e-01 7.027943e+00 -7.904848e-04 4.819651e-04 -5.241371e-04
N 1.588377e+00 -9.661109e-01 -3.367840e+00 -6.654465e-04 3.819124e-04 -5.746970e-04
N 3.140933e+00 1.791467e+00 1.837729e+00 -7.093824e-05 -4.587656e-04 -6.679768e-04
N 3.183585e+00 1.811172e+00 7.070807e+00 -3.468296e-05 -1.220073e-04 -6.150870e-04
N 3.184295e+00 1.814956e+00 -3.383887e+00 -2.873313e-04 -2.488579e-04 -1.045364e-03
N 6.355770e+00 -3.765714e+00 1.851990e+00 9.180646e-05 -5.280922e-04 -5.352451e-04
N 6.439616e+00 -3.722537e+00 7.043752e+00 4.014566e-04 5.443680e-05 -7.899787e-04
N 6.400480e+00 -3.750431e+00 -3.378302e+00 -2.048987e-04 -3.757729e-04 -1.152117e-03
N 4.795360e+00 -9.643451e-01 1.830262e+00 -3.331638e-04 6.796393e-05 -8.191952e-04
N 4.837866e+00 -9.374011e-01 7.061450e+00 -4.315144e-06 1.888042e-04 -3.762242e-04
N 4.795337e+00 -9.643520e-01 -3.383513e+00 -6.376421e-04 1.697990e-04 -7.684087e-04
N -3.236373e+00 1.860341e+00 1.792744e+00 -3.085119e-04 1.555556e-04 -1.234951e-03
N -3.278603e+00 1.794168e+00 7.019966e+00 -7.015720e-04 -2.731487e-04 -8.908968e-04
N -3.233775e+00 1.817387e+00 -3.431074e+00 -2.757358e-04 1.168680e-04 -1.112123e-03
N 2.011425e-02 -3.765365e+00 1.795271e+00 5.758878e-05 -1.581900e-04 -1.209910e-03
N -5.663547e-02 -3.772178e+00 7.030302e+00 -6.093805e-04 -2.329750e-04 -9.263638e-04
N -1.782010e-02 -3.749114e+00 -3.377797e+00 -4.637055e-05 -3.550911e-05 -1.046753e-03
N -1.626981e+00 -9.626576e-01 1.825389e+00 -1.911113e-04 1.398542e-04 -4.349952e-04
N -1.666512e+00 -9.858495e-01 6.977644e+00 -8.277712e-04 2.086758e-04 -7.903901e-04
N -1.623126e+00 -9.606299e-01 -3.368263e+00 -3.365966e-04 3.900969e-04 -7.527502e-04
