108
Energy=-2130356.638877 Lattice="9.585345 0.000000 0.000000 -4.810215 8.291607 0.000000 -0.024664 -0.128867 15.428457" Stress="-0.000080 0.000008 -0.000005 0.000008 -0.000065 -0.000028 -0.000005 -0.000028 -0.000110" Properties=species:S:1:pos:R:3:forces:R:3
Al 1.562945 0.827349 2.433944 0.000212 -0.004235 -0.001353
Al 1.561933 0.825182 7.564580 0.001525 -0.004487 0.000581
Al 1.578876 0.939795 -2.734041 -0.000042 -0.004236 0.000689
Al -0.030669 3.586153 2.432638 -0.000952 -0.000528 -0.000964
Ga -0.026554 3.569032 7.578597 -0.001258 0.000302 0.001562
Ga -0.015619 3.687075 -2.743337 -0.000711 -0.000103 0.001044
Al 3.198197 -1.940781 2.423155 -0.000585 0.000545 0.001406
Ga 3.182696 -1.950649 7.560023 0.000232 0.000150 0.001399
Ga 3.197449 -1.843288 -2.724367 -0.000880 -0.001365 0.000159
Ga -4.839628 0.833429 2.425113 0.001649 -0.003833 0.000412
Al -4.847057 0.825518 7.548769 0.001245 -0.004507 0.000363
Ga -4.824697 0.942711 -2.715303 0.000618 -0.005148 0.000715
Ga -6.444890 3.590104 2.413425 0.001128 0.001184 0.002737
Al -6.441500 3.571899 7.570834 0.000226 -0.000587 0.000917
Ga -6.413746 3.691093 -2.727169 -0.001117 0.000281 0.000394
Al -3.239989 -1.946033 2.429710 0.000489 0.000946 0.001343
Ga -3.224809 -1.958196 7.562096 -0.001616 0.000862 0.001239
Ga -3.202862 -1.842313 -2.724032 0.000614 -0.000447 0.001469
Ga -1.664097 0.846593 2.424408 0.006612 -0.003079 -0.000473
Ga -1.660573 0.831194 7.568473 0.005633 -0.002335 -0.001148
Ga -1.635979 0.953917 -2.719541 0.007532 -0.003707 -0.001804
Ga -3.249691 3.599649 2.425539 0.005050 0.004402 0.000550
Ga -3.260438 3.575791 7.562624 0.005989 0.002117 0.000027
Al -3.232864 3.697197 -2.722461 0.005703 0.002038 0.002315
Ga -0.037745 -1.941923 2.432206 0.006045 0.004952 -0.002984
Ga -0.040909 -1.952104 7.569781 0.006742 0.002416 -0.000559
Ga -0.011201 -1.837301 -2.703524 0.005489 0.002875 0.000149
Ga -0.029931 1.742653 4.987881 -0.005837 -0.002334 0.001008
Al -0.003842 1.864062 -5.297362 -0.004240 -0.001420 0.000474
Ga -0.006836 1.855895 -0.150084 -0.005931 -0.006817 0.004025
Ga 3.190750 -3.791619 4.983062 -0.005978 -0.001040 -0.000153
Al 3.207116 -3.682521 -5.288811 -0.003243 -0.000843 0.000072
Ga 3.201559 -3.686985 -0.143757 -0.007956 -0.006371 0.002590
Ga 1.601170 -1.033807 4.991103 -0.005807 0.002722 -0.000897
Ga 1.613718 -0.915884 -5.287267 -0.005379 0.004535 -0.001246
Ga 1.622828 -0.924433 -0.138470 -0.009147 0.000564 0.001153
Ga 3.157330 1.738929 5.003381 -0.000102 -0.000031 0.001677
Ga 3.162385 1.864736 -5.312137 0.001419 -0.000741 0.001791
Ga 3.173846 1.848463 -0.152693 -0.000000 -0.004637 0.002823
Ga 6.363118 -3.786767 4.988900 -0.000036 0.001123 0.001961
Al 6.383943 -3.677413 -5.299564 0.000371 -0.000492 0.000412
Ga 6.387684 -3.675752 -0.143438 -0.000579 -0.003643 0.004895
Al 4.776105 -1.027033 4.983698 -0.001530 0.003594 0.001803
Ga 4.795168 -0.926815 -5.300716 -0.000819 0.007905 -0.000354
Al 4.792399 -0.948384 -0.161270 -0.001141 0.006665 0.010327
Al -3.255301 1.742376 4.996565 0.000399 0.000913 0.001915
Ga -3.221548 1.874658 -5.296911 -0.001273 -0.001901 0.001436
Al -3.238333 1.838289 -0.175683 -0.000132 0.002338 0.008299
Ga -0.036349 -3.794852 5.001293 0.001149 0.000747 0.001640
Ga -0.009081 -3.671007 -5.291413 -0.000733 -0.000658 0.001240
Al -0.012451 -3.704813 -0.172348 0.002529 0.002400 0.008989
Ga -1.641924 -1.028234 4.991986 -0.000740 0.006150 -0.000712
Ga -1.605240 -0.916021 -5.284641 -0.001665 0.007082 -0.000705
Ga -1.619689 -0.925861 -0.135590 0.001159 0.002545 0.000228
N 1.562478 0.829583 4.350639 0.000544 -0.005375 -0.008087
N 1.556154 0.959081 -5.936561 -0.007487 -0.002533 -0.005672
N 1.578418 0.940686 -0.808799 -0.000075 -0.007688 -0.008043
N -0.032109 3.580348 4.351099 -0.000528 -0.000460 -0.010594
N -0.014324 3.698561 -5.878014 -0.000772 0.000411 0.008678
N -0.013291 3.693238 -0.779022 -0.000714 -0.000758 -0.001699
N 3.207228 -1.936603 4.357654 0.006999 0.004188 -0.007295
N 3.201296 -1.862459 -5.901090 -0.001179 -0.009587 0.001802
N 3.221993 -1.838765 -0.762569 0.006546 0.003283 0.002375
N -4.818932 0.818103 4.396449 0.008168 -0.008286 0.005673
N -4.818011 0.950674 -5.946936 0.001123 -0.006146 -0.008835
N -4.804709 0.910033 -0.745837 0.007755 -0.010546 0.004269
N -6.436646 3.582046 4.375320 -0.000456 -0.000558 -0.001083
N -6.434964 3.716596 -5.925838 -0.007449 0.005172 -0.007292
N -6.398179 3.701267 -0.764479 0.005745 0.003570 0.003153
N -3.248376 -1.936398 4.361349 -0.007436 0.004102 -0.007514
N -3.198302 -1.858994 -5.903274 0.000599 -0.008729 0.001624
N -3.224698 -1.835960 -0.762718 -0.007393 0.004201 0.001158
N -1.687330 0.851430 4.387188 -0.000380 0.000659 0.004561
N -1.612121 0.969397 -5.896652 0.012887 -0.000862 0.003823
N -1.659442 0.953880 -0.759619 -0.000302 -0.000723 0.005132
N -3.257172 3.560418 4.390496 0.005973 -0.006649 0.003105
N -3.205836 3.720791 -5.903769 0.011992 0.006431 0.002269
N -3.255493 3.674221 -0.779413 -0.000998 -0.003424 -0.004598
N -0.040519 -1.949102 4.384370 0.005719 0.003092 0.001589
N -0.014823 -1.828331 -5.901509 0.005632 0.002098 -0.000802
N -0.018179 -1.866545 -0.739490 0.005256 -0.007388 0.002291
N -0.000662 1.755787 1.833113 0.001848 0.005491 0.002513
N -0.005160 1.726553 6.952358 0.001615 -0.007390 0.003023
N 0.016739 1.840620 -3.365371 0.001491 -0.007594 -0.006500
N 3.213501 -3.773443 1.834812 0.002395 0.006034 0.003631
N 3.190224 -3.797397 6.943195 -0.005571 -0.002728 0.000787
N 3.179207 -3.694355 -3.356227 -0.012543 -0.005756 -0.005998
N 1.618016 -1.018127 1.838676 0.002246 0.009563 0.003972
N 1.593111 -1.011795 6.955620 -0.007495 0.010714 0.003754
N 1.613161 -0.893307 -3.324637 -0.006830 0.010041 0.003259
N 3.126774 1.731549 1.816059 -0.005951 -0.000190 -0.000012
N 3.148592 1.740837 6.976272 0.000001 -0.000046 0.008228
N 3.150760 1.843539 -3.339137 -0.006780 -0.005031 0.001005
N 6.336500 -3.771324 1.834369 -0.005305 0.007968 0.001384
N 6.386318 -3.808451 6.955501 0.008235 -0.004661 0.001710
N 6.389935 -3.676670 -3.372179 0.000709 -0.000560 -0.010571
N 4.779091 -1.038633 1.810554 -0.001282 -0.004157 -0.011205
N 4.773294 -1.014309 6.923518 -0.000641 0.013210 -0.007195
N 4.794054 -0.922209 -3.342926 -0.001295 0.006165 -0.000233
N -3.249033 1.774104 1.782721 -0.000042 -0.002173 -0.017501
N -3.270942 1.731109 6.930427 -0.006987 -0.005030 -0.007658
N -3.231525 1.887305 -3.329186 -0.000026 0.007852 0.001598
N -0.031035 -3.769106 1.790259 -0.000415 -0.002114 -0.018279
N -0.060438 -3.805423 6.964079 -0.007692 -0.004039 0.002397
N 0.010438 -3.687934 -3.326177 0.007915 -0.003952 0.001613
N -1.657561 -1.045866 1.828131 -0.007806 0.006016 0.002188
N -1.632079 -1.036361 6.950502 -0.000076 0.005995 -0.000734
N -1.606444 -0.920268 -3.327391 0.000183 0.006050 -0.000046
