108
Energy=-8.486435e+05 Lattice="9.446377e+00 0.000000e+00 0.000000e+00 -4.726203e+00 8.177909e+00 0.000000e+00 -2.694882e-02 4.935038e-03 1.517690e+01" Stress="-9.478393e-06 -9.834909e-05 -1.236326e-03 -9.715117e-05 -2.934164e-04 3.605066e-04 -1.247148e-03 3.567799e-04 -1.179689e-03" Properties=species:S:1:pos:R:3:forces:R:3 Config_type=AlGaN_super3_9_0_12.xyz
Al 1.555376e+00 8.736948e-01 2.376375e+00 3.428730e-04 -9.454282e-04 -3.682750e-04
Al 1.548760e+00 8.651918e-01 7.440486e+00 3.434351e-04 -5.592606e-04 7.780783e-04
Al 1.574590e+00 8.684387e-01 -2.677633e+00 5.561095e-04 -5.937415e-04 2.898786e-04
Al -3.235223e-02 3.595361e+00 2.396499e+00 4.783427e-04 1.353005e-03 -1.451014e-03
Al -3.645517e-02 3.609681e+00 7.438238e+00 -2.305706e-04 4.727873e-05 5.319793e-04
Al -1.905032e-02 3.596665e+00 -2.686260e+00 -2.062720e-04 1.809244e-03 4.796966e-04
Al 3.129293e+00 -1.848655e+00 2.385467e+00 1.806104e-03 1.122678e-05 5.475703e-04
Al 3.114876e+00 -1.853663e+00 7.441109e+00 4.282722e-05 9.065761e-06 8.751174e-04
Al 3.131628e+00 -1.857258e+00 -2.696310e+00 -1.313819e-04 -1.186230e-05 1.034091e-04
Al -4.768071e+00 8.602237e-01 2.403406e+00 1.089321e-03 2.300829e-04 -7.860406e-04
Al -4.763026e+00 8.719461e-01 7.434748e+00 3.988379e-04 1.003197e-04 5.432452e-04
Al -4.760431e+00 8.730886e-01 -2.700017e+00 8.460299e-04 4.107577e-05 2.670860e-04
Al -6.344844e+00 3.575563e+00 2.413058e+00 1.658855e-03 2.384660e-03 -3.527331e-04
Al -6.338188e+00 3.596315e+00 7.439729e+00 1.175589e-04 9.237497e-05 3.864395e-04
Al -6.312552e+00 3.582356e+00 -2.711304e+00 6.155188e-04 -2.917701e-04 -2.475761e-03
Al -3.189182e+00 -1.845659e+00 2.402586e+00 9.168266e-04 -1.177498e-03 -1.230487e-03
Al -3.187128e+00 -1.856392e+00 7.437585e+00 -2.285927e-05 -2.252021e-05 2.858239e-04
Ga -3.164785e+00 -1.860041e+00 -2.692741e+00 -2.358017e-04 4.095924e-04 3.012639e-05
Al -1.598452e+00 8.712807e-01 2.390229e+00 -1.106746e-03 -4.010354e-03 -4.439893e-04
Al -1.623781e+00 8.681654e-01 7.446801e+00 -1.061731e-03 -3.695533e-04 -1.061855e-04
Ga -1.587641e+00 8.727952e-01 -2.682453e+00 5.854658e-05 -5.119182e-04 1.536440e-04
Ga -3.166257e+00 3.595222e+00 2.414826e+00 -2.202066e-04 7.705520e-06 -4.073695e-04
Al -3.185691e+00 3.599590e+00 7.439733e+00 -1.666376e-04 -5.688774e-04 -3.822205e-05
Al -3.164338e+00 3.607231e+00 -2.709935e+00 -2.442065e-04 -3.289242e-04 -1.867991e-03
Ga -2.708679e-02 -1.843709e+00 2.407081e+00 -5.237420e-04 -2.756792e-04 5.190326e-05
Al -3.192621e-02 -1.850505e+00 7.436016e+00 1.277656e-04 -5.269245e-04 -2.792528e-04
Al -2.577360e-03 -1.855147e+00 -2.700062e+00 1.198163e-03 -6.958413e-04 4.858032e-04
Ga -3.490803e-02 1.775292e+00 4.925121e+00 -3.159554e-04 -9.051860e-04 7.378238e-04
Ga -6.810172e-03 1.779859e+00 -5.222900e+00 1.958772e-04 3.005950e-05 2.039341e-04
Al -9.650643e-03 1.774152e+00 -1.381738e-01 1.092293e-04 3.161393e-04 -1.736707e-03
Al 3.117217e+00 -3.661339e+00 4.934528e+00 -5.178738e-04 1.096987e-03 5.945697e-04
Al 3.136188e+00 -3.665960e+00 -5.221110e+00 -5.698062e-05 2.523348e-04 3.417008e-04
Al 3.139591e+00 -3.662172e+00 -1.635160e-01 1.345236e-04 1.981801e-04 -5.336750e-04
Al 1.555793e+00 -9.529454e-01 4.926484e+00 -3.074457e-04 2.197582e-04 5.814262e-04
Al 1.570912e+00 -9.573620e-01 -5.216871e+00 -2.283293e-04 2.105984e-04 1.121397e-03
Al 1.568183e+00 -9.413709e-01 -1.644058e-01 -4.613970e-04 2.015808e-04 -1.086695e-03
Al 3.120915e+00 1.777017e+00 4.920771e+00 -1.418953e-04 1.391550e-04 4.727946e-04
Al 3.143978e+00 1.774913e+00 -5.220987e+00 2.301355e-05 -1.796816e-04 4.932258e-04
Al 3.123107e+00 1.770051e+00 -1.535070e-01 -1.439665e-04 -3.225443e-03 6.555666e-04
Al 6.266412e+00 -3.666610e+00 4.914803e+00 7.199551e-04 1.649476e-04 7.498864e-05
Al 6.289563e+00 -3.671594e+00 -5.224033e+00 1.502419e-04 -9.200949e-05 2.171747e-04
Ga 6.276952e+00 -3.686202e+00 -1.367729e-01 -6.813135e-04 9.025170e-04 1.236661e-04
Al 4.688213e+00 -9.473444e-01 4.917917e+00 -7.914772e-05 -3.285154e-04 4.629537e-04
Al 4.708756e+00 -9.453405e-01 -5.231906e+00 -2.860302e-04 -3.156834e-04 3.752059e-04
Al 4.691108e+00 -9.446672e-01 -1.396971e-01 -1.382052e-04 -1.448578e-04 -6.314049e-04
Al -3.193878e+00 1.772608e+00 4.929047e+00 2.489445e-04 -1.200305e-04 -3.295278e-04
Al -3.177658e+00 1.780413e+00 -5.224017e+00 -7.097612e-04 2.193523e-04 6.391997e-05
Ga -3.175973e+00 1.773624e+00 -1.475187e-01 -3.580185e-04 -1.946306e-04 -1.177731e-03
Al -3.930140e-02 -3.674787e+00 4.946840e+00 6.614265e-05 -2.194359e-04 -2.664477e-04
Al -1.185139e-02 -3.670885e+00 -5.223776e+00 1.574669e-04 -2.808467e-06 -1.615868e-05
Ga -2.028334e-02 -3.668195e+00 -1.710454e-01 5.948510e-04 7.011064e-04 -6.055565e-04
Al -1.619294e+00 -9.533021e-01 4.935218e+00 3.934206e-04 6.976708e-04 -6.181836e-04
Al -1.586605e+00 -9.589979e-01 -5.240400e+00 8.374205e-05 5.350651e-05 2.733547e-04
Al -1.586281e+00 -9.437008e-01 -1.311395e-01 -7.691218e-06 -3.411906e-04 -5.824911e-04
N 1.582296e+00 8.440890e-01 4.294095e+00 1.497403e-04 4.287286e-04 -2.702436e-04
N 1.607942e+00 8.393787e-01 -5.831340e+00 2.865923e-04 2.263255e-04 -4.608807e-04
N 1.557472e+00 8.725147e-01 -7.512111e-01 1.864059e-04 -3.493686e-04 1.070725e-04
N -4.297897e-02 3.641152e+00 4.308278e+00 5.930507e-04 -1.632062e-04 -5.038414e-04
N -1.404617e-02 3.647458e+00 -5.835822e+00 1.536116e-05 -1.074701e-04 -2.749095e-04
N -5.732722e-02 3.570725e+00 -7.711748e-01 -6.432024e-04 -1.322750e-04 7.118583e-04
N 3.117396e+00 -1.856307e+00 4.311304e+00 2.232276e-04 -4.834863e-04 -4.112892e-04
N 3.137636e+00 -1.857547e+00 -5.819342e+00 5.720683e-05 -1.263987e-04 -5.761653e-04
N 3.136734e+00 -1.855390e+00 -7.692813e-01 -2.705171e-04 4.162396e-05 -6.391033e-05
N -4.762863e+00 8.682012e-01 4.322253e+00 3.435803e-04 4.985270e-05 -1.517162e-04
N -4.738701e+00 8.687628e-01 -5.826797e+00 2.598711e-04 3.353954e-04 -5.982647e-04
N -4.788507e+00 8.432010e-01 -7.808566e-01 1.901016e-04 2.809073e-04 1.720660e-04
N -6.331677e+00 3.592509e+00 4.330000e+00 -2.002562e-04 -1.435215e-04 4.296234e-05
N -6.310873e+00 3.592597e+00 -5.817297e+00 -1.584113e-04 1.340120e-04 -1.844460e-04
N -6.319586e+00 3.538137e+00 -8.089746e-01 -4.997235e-04 2.584638e-03 1.252549e-03
N -3.183155e+00 -1.853650e+00 4.321708e+00 -3.505978e-04 4.599465e-04 3.036884e-04
N -3.162988e+00 -1.860998e+00 -5.820946e+00 1.987423e-05 4.360594e-04 -3.846669e-04
N -3.165230e+00 -1.812521e+00 -7.153016e-01 -6.484963e-04 4.341615e-04 -6.671718e-04
N -1.651302e+00 8.428781e-01 4.302052e+00 6.010511e-04 3.940111e-04 9.903227e-04
N -1.635399e+00 8.499612e-01 -5.826608e+00 6.337946e-04 -8.320125e-04 3.890657e-04
N -1.554060e+00 8.477337e-01 -7.144096e-01 4.539674e-05 -6.956714e-05 2.031031e-04
N -3.182008e+00 3.601300e+00 4.389676e+00 -2.665514e-04 -6.040974e-04 -1.436421e-05
N -3.161464e+00 3.598459e+00 -5.816440e+00 -1.173619e-04 -2.984396e-04 -1.532636e-04
N -3.126110e+00 3.621881e+00 -8.061896e-01 1.380233e-04 -8.072328e-04 2.069494e-03
N -3.091588e-02 -1.853029e+00 4.384702e+00 -3.695444e-04 -2.183187e-04 2.635386e-04
N -4.339552e-03 -1.855074e+00 -5.825029e+00 -6.916944e-05 -4.507751e-04 -1.998310e-04
N -1.886122e-02 -1.802077e+00 -7.798381e-01 3.140436e-04 -4.548118e-04 7.126645e-05
N -2.472804e-02 1.778590e+00 1.790817e+00 2.044298e-04 9.747587e-04 1.073782e-03
N -4.051669e-02 1.775075e+00 6.907064e+00 1.530227e-03 1.239926e-03 -1.918800e-03
N 3.213980e-02 1.803822e+00 -3.253116e+00 -2.185706e-04 -1.873047e-03 -1.642607e-03
N 3.163501e+00 -3.642781e+00 1.756388e+00 -1.788325e-04 -2.083428e-03 8.872922e-04
N 3.115053e+00 -3.668864e+00 6.845984e+00 2.922102e-04 5.838139e-04 -3.101692e-04
N 3.140320e+00 -3.673833e+00 -3.300540e+00 2.944338e-04 9.244534e-04 -3.702108e-04
N 1.591891e+00 -9.295933e-01 1.756601e+00 -8.139513e-04 1.275935e-03 2.098613e-04
N 1.546111e+00 -9.471189e-01 6.839800e+00 -9.577883e-05 4.376692e-04 -4.192438e-04
N 1.564708e+00 -9.465516e-01 -3.290738e+00 1.892100e-04 4.384820e-04 -1.476604e-04
N 3.122246e+00 1.779427e+00 1.777392e+00 2.602006e-04 5.170172e-04 1.350099e-05
N 3.112020e+00 1.781725e+00 6.835903e+00 -3.142207e-04 -9.627941e-05 -3.994147e-04
N 3.131221e+00 1.775021e+00 -3.305367e+00 -5.672157e-04 -3.457409e-04 -4.159971e-04
N 6.268203e+00 -3.673878e+00 1.844380e+00 1.333354e-03 -8.701282e-04 1.721977e-03
N 6.265023e+00 -3.671184e+00 6.833999e+00 -1.897447e-04 -2.318522e-04 -5.692196e-04
N 6.281913e+00 -3.722355e+00 -3.311607e+00 -6.985237e-06 5.043809e-04 2.363291e-04
N 4.692956e+00 -9.436820e-01 1.785470e+00 -4.576140e-04 1.850936e-04 1.177558e-03
N 4.687865e+00 -9.460173e-01 6.839804e+00 -3.775002e-04 -2.106296e-04 -5.666571e-04
N 4.670146e+00 -9.240560e-01 -3.318202e+00 -4.294872e-04 -5.531131e-04 -6.080633e-04
N -3.182598e+00 1.731205e+00 1.821662e+00 -1.021014e-03 1.082348e-03 1.952637e-03
N -3.188045e+00 1.779202e+00 6.842765e+00 -3.184567e-04 1.814423e-05 6.535958e-05
N -3.207632e+00 1.799260e+00 -3.307810e+00 -4.711574e-04 1.180139e-06 6.139279e-05
N -6.620049e-02 -3.698309e+00 1.796871e+00 -1.751514e-03 -1.076713e-03 2.245233e-03
N -3.856888e-02 -3.672956e+00 6.856320e+00 -4.186347e-05 1.344959e-04 5.381817e-04
N -1.492376e-02 -3.669640e+00 -3.298473e+00 -1.815743e-04 3.941085e-05 -2.448332e-04
N -1.639622e+00 -9.348444e-01 1.776271e+00 7.350787e-05 2.781916e-03 1.378353e-03
N -1.613125e+00 -9.460516e-01 6.848394e+00 -1.775601e-04 8.148597e-05 1.065346e-04
N -1.542318e+00 -9.723263e-01 -3.337407e+00 -1.918380e-03 6.158396e-04 -9.287423e-04
