108
Energy=-1260622.549655 Lattice="9.485846 0.000000 0.000000 -4.748659 8.209663 0.000000 -0.002086 0.002586 15.307951" Stress="-0.000027 -0.000000 -0.000001 -0.000000 -0.000022 0.000000 -0.000001 0.000000 -0.000003" Properties=species:S:1:pos:R:3:forces:R:3
Al 1.543547 0.865166 2.512346 0.001345 0.000105 -0.048684
Al 1.548600 0.875308 7.494027 0.001337 0.001359 0.006490
Al 1.554211 0.873400 -2.714342 0.000775 0.002992 0.006058
Al -0.003256 3.599271 2.439787 -0.001638 -0.002577 0.000981
Al -0.019711 3.605671 7.499912 0.000233 0.001148 0.002676
Al -0.028292 3.608314 -2.729932 0.001631 -0.003130 0.001041
Al 3.158516 -1.854286 2.418082 -0.006084 -0.001852 0.001406
Al 3.160693 -1.868061 7.509946 -0.001854 0.001653 0.000865
Ga 3.162022 -1.870315 -2.726209 0.001143 -0.001892 0.003983
Al -4.779716 0.859125 2.423565 -0.001696 0.002923 -0.001853
Al -4.785337 0.872982 7.514561 0.002682 0.000221 0.001932
Al -4.775280 0.872258 -2.733794 0.001609 0.001860 0.000705
Al -6.349855 3.610037 2.302249 -0.000016 -0.009861 0.028059
Al -6.369434 3.604228 7.521929 0.001261 0.000834 0.000485
Ga -6.355369 3.592467 -2.715076 -0.001918 -0.000011 0.002089
Al -3.185690 -1.880376 2.441739 -0.001607 -0.000471 0.003954
Ga -3.181984 -1.863648 7.518690 0.000283 -0.000380 0.000528
Al -3.183845 -1.855496 -2.751496 0.000656 -0.002197 0.002477
Ga -1.612846 0.886980 2.410831 0.003269 0.000932 0.000240
Al -1.616946 0.882718 7.504451 0.000891 0.000060 0.002527
Al -1.630713 0.884024 -2.725209 0.003390 0.001574 0.000422
Ga -3.199878 3.612734 2.420288 0.003150 -0.000325 0.002786
Ga -3.183341 3.612281 7.511204 0.001131 -0.000463 -0.001533
Al -3.185022 3.601713 -2.730613 0.003124 -0.001612 0.004170
Al -0.014822 -1.860275 2.401354 0.003081 0.000125 0.000142
Al -0.024453 -1.845839 7.520413 0.001410 -0.001690 0.000162
Ga -0.022455 -1.846696 -2.716492 -0.000556 -0.000553 0.003618
Al -0.039994 1.805818 4.990055 0.001372 0.001199 -0.000253
Ga -0.026410 1.787119 -5.268530 -0.002339 -0.001095 0.003302
Al -0.016320 1.777523 -0.180501 0.002877 -0.001089 0.002666
Al 3.165497 -3.693842 4.972377 0.000064 0.001525 -0.001698
Al 3.164985 -3.697113 -5.271019 -0.000923 0.001320 0.003655
Ga 3.147398 -3.712421 -0.128797 0.000384 0.001788 -0.004386
Ga 1.584249 -0.961162 4.969915 -0.001427 -0.002904 0.003634
Ga 1.585029 -0.949971 -5.280290 -0.002360 0.000404 0.001288
Al 1.570278 -0.950563 -0.149609 -0.001393 0.006289 0.005337
Ga 3.127261 1.788442 4.966790 0.004565 0.006128 0.000116
Al 3.137648 1.776505 -5.276203 0.001820 0.002239 0.002890
Al 3.137654 1.770576 -0.137737 -0.005516 -0.004648 -0.001586
Al 6.288388 -3.693399 4.975421 0.005637 -0.000447 -0.004303
Al 6.295512 -3.686011 -5.265705 0.000959 -0.001215 0.001916
Ga 6.307866 -3.698347 -0.126102 -0.004119 0.001540 -0.005525
Al 4.730488 -0.956964 4.968792 -0.000487 0.000457 0.000614
Al 4.742349 -0.950908 -5.266796 -0.003067 0.001738 0.001525
Ga 4.731673 -0.926753 -0.133859 -0.001401 0.000109 -0.002510
Al -3.200221 1.779163 4.980640 -0.000576 0.002466 0.001703
Al -3.205118 1.779849 -5.261169 0.002259 -0.002010 0.002397
Al -3.204637 1.802380 -0.190273 -0.000101 -0.000821 0.002754
Ga -0.028141 -3.686915 4.974629 -0.003286 -0.003085 -0.000537
Ga -0.025641 -3.689572 -5.274352 -0.000867 0.000880 0.000312
Al -0.016617 -3.688535 -0.155139 0.002946 0.001445 -0.000127
Ga -1.603175 -0.937458 4.973383 -0.001848 -0.000611 -0.000861
Al -1.613985 -0.941128 -5.259625 -0.000412 0.001255 -0.000544
Ga -1.597396 -0.934675 -0.149639 -0.001354 0.000582 0.001994
N 1.516950 0.887024 4.322550 -0.007392 0.003063 0.024252
N 1.595567 0.899863 -5.898184 -0.001548 -0.000494 -0.006976
N 1.558528 0.865659 -0.774368 0.001724 -0.000219 -0.001818
N -0.020565 3.610651 4.375250 0.000036 -0.003878 -0.003781
N -0.021325 3.645741 -5.886962 0.000852 0.002001 -0.004696
N -0.015811 3.564956 -0.820990 -0.000044 0.000567 0.003059
N 3.190810 -1.887360 4.350871 0.000056 -0.000227 -0.003790
N 3.193018 -1.890679 -5.879236 0.002992 -0.002016 -0.002260
N 3.122397 -1.850433 -0.750982 -0.001959 0.000323 0.001722
N -4.745914 0.851626 4.354119 0.004172 -0.001242 -0.005444
N -4.773987 0.869757 -5.867568 0.001382 0.000346 -0.001775
N -4.778311 0.928073 -0.813129 0.001125 -0.001976 0.003166
N -6.385995 3.628271 4.314321 -0.002372 0.001131 -0.010713
N -6.391665 3.588409 -5.875156 -0.001794 -0.001388 -0.000817
N -6.313958 3.582088 -0.729525 0.001740 -0.000527 0.004310
N -3.213593 -1.883354 4.367780 -0.002009 -0.001372 -0.002155
N -3.178683 -1.867048 -5.820940 0.000539 -0.000357 0.001834
N -3.181699 -1.862225 -0.830978 0.000632 -0.000861 0.000320
N -1.613925 0.939362 4.399692 0.001666 -0.001345 -0.003323
N -1.657330 0.856735 -5.889500 0.000216 0.000507 0.000920
N -1.618001 0.931416 -0.802774 0.000398 -0.001438 0.003882
N -3.147179 3.594475 4.410675 -0.000353 -0.002695 -0.002673
N -3.142502 3.590450 -5.835747 0.000515 -0.001532 0.000282
N -3.222733 3.603530 -0.791649 -0.001351 -0.001055 -0.001315
N -0.015143 -1.857528 4.319548 0.001378 0.000935 -0.007248
N -0.060233 -1.828539 -5.892718 -0.000133 -0.000700 0.001405
N 0.012530 -1.871845 -0.740934 0.002537 -0.003241 0.003797
N 0.020317 1.805986 1.763091 -0.000590 -0.000514 0.004374
N -0.030339 1.788764 6.914289 0.000328 -0.001337 -0.003406
N -0.027185 1.777631 -3.285872 -0.000776 -0.000361 0.000878
N 3.197857 -3.674817 1.844753 -0.001213 0.000282 0.001592
N 3.189039 -3.665904 6.884242 0.000303 0.000818 -0.001130
N 3.148768 -3.739366 -3.351399 -0.001834 0.000514 -0.000069
N 1.568754 -0.947984 1.800609 -0.000480 -0.001066 0.003967
N 1.565894 -0.953378 6.956838 0.001491 -0.000686 -0.001682
N 1.575487 -0.915260 -3.317541 -0.001802 0.002716 -0.001213
N 3.110794 1.745502 1.794050 0.006761 0.005553 0.002918
N 3.131405 1.791314 6.946652 -0.000829 -0.002287 -0.001416
N 3.130126 1.741371 -3.353443 -0.000383 -0.003175 -0.001476
N 6.306515 -3.698349 1.857520 -0.005071 0.005847 -0.004961
N 6.303530 -3.726931 6.893925 -0.000215 -0.002101 -0.003704
N 6.271399 -3.673074 -3.349873 -0.001882 0.001439 0.000335
N 4.728347 -0.963689 1.854101 0.004260 0.003085 -0.000230
N 4.696148 -0.927812 6.894755 -0.003850 0.001582 -0.004076
N 4.764307 -0.928650 -3.351887 -0.000199 0.002038 -0.001176
N -3.234682 1.766822 1.752448 -0.003725 -0.001587 -0.004195
N -3.201342 1.746511 6.895765 -0.001250 -0.002938 -0.002456
N -3.200720 1.789438 -3.332243 -0.000142 -0.001263 -0.000984
N -0.054008 -3.662085 1.782367 0.001783 0.000843 -0.007938
N -0.064269 -3.663326 6.948033 -0.002149 0.001912 0.001639
N 0.011010 -3.704186 -3.316339 0.001292 -0.000243 0.002089
N -1.614810 -1.002213 1.855714 0.000478 0.002613 -0.005743
N -1.564681 -0.925283 6.937646 0.000309 0.001376 -0.001330
N -1.632348 -0.924857 -3.345071 -0.002064 0.002417 -0.000279
