108
Energy=-2.405010e+06 Lattice="9.639286e+00 0.000000e+00 0.000000e+00 -4.822389e+00 8.345882e+00 0.000000e+00 1.163548e-03 -1.916365e-03 1.563470e+01" Stress="7.476429e-05 -5.873422e-05 1.527484e-04 -6.877492e-05 -2.411368e-06 -8.452788e-05 1.510301e-04 -8.495460e-05 1.719818e-04" Properties=species:S:1:pos:R:3:forces:R:3 Config_type=AlGaN_super3_43_2_12.xyz
Al 1.585428e+00 8.902557e-01 2.488876e+00 3.600549e-05 3.491352e-05 1.200736e-04
Al 1.586394e+00 8.760438e-01 7.638034e+00 -4.541113e-06 -1.779455e-06 1.366764e-05
Ga 1.591705e+00 8.873119e-01 -2.751398e+00 -9.184172e-05 3.677741e-05 1.547236e-04
Al -1.138774e-02 3.664105e+00 2.480871e+00 -1.551407e-04 6.837757e-05 6.860439e-05
Ga -5.304757e-03 3.671017e+00 7.652970e+00 -5.973797e-05 3.127655e-05 -2.157583e-06
Ga -1.746391e-02 3.675301e+00 -2.753362e+00 -1.366827e-04 -1.899543e-06 4.701383e-06
Ga 3.191188e+00 -1.885030e+00 2.492246e+00 -9.766228e-05 9.004954e-06 -1.767482e-05
Ga 3.190512e+00 -1.878603e+00 7.639631e+00 -1.302030e-05 -2.084083e-05 1.153302e-05
Ga 3.203308e+00 -1.884728e+00 -2.757211e+00 -1.245901e-04 -1.005188e-05 -2.940704e-05
Ga -4.858438e+00 8.818493e-01 2.493491e+00 -1.550790e-05 8.427942e-05 -6.988963e-05
Ga -4.855113e+00 8.731306e-01 7.643591e+00 -1.484717e-06 2.746048e-06 6.233619e-05
Al -4.841710e+00 8.789175e-01 -2.759219e+00 -4.031878e-05 7.526299e-05 -2.601529e-05
Ga -6.471146e+00 3.657914e+00 2.491914e+00 -8.541727e-05 2.162669e-05 -2.302341e-05
Ga -6.464730e+00 3.669978e+00 7.638386e+00 -3.608725e-05 -4.710884e-05 -9.230790e-06
Ga -6.452491e+00 3.668710e+00 -2.758159e+00 -1.122738e-04 3.904824e-05 -9.891868e-06
Ga -3.245243e+00 -1.904423e+00 2.488537e+00 -8.052615e-05 2.388927e-05 -7.467156e-06
Al -3.233299e+00 -1.901258e+00 7.637484e+00 -5.905449e-05 -8.084189e-08 5.040236e-05
Al -3.238782e+00 -1.886442e+00 -2.756755e+00 -7.272990e-05 3.319384e-05 2.200110e-05
Ga -1.617811e+00 8.916776e-01 2.470787e+00 -8.811181e-05 -8.399949e-06 6.142595e-05
Ga -1.618681e+00 8.716354e-01 7.664471e+00 8.870938e-06 -5.726632e-05 -4.085721e-05
Ga -1.639382e+00 8.786099e-01 -2.756715e+00 1.584483e-05 -1.180992e-05 -3.561346e-05
Ga -3.230917e+00 3.668211e+00 2.469078e+00 -8.788501e-05 -2.570117e-05 -8.516814e-05
Ga -3.239857e+00 3.675225e+00 7.667290e+00 -3.935719e-05 -7.012844e-05 -8.681760e-05
Ga -3.242244e+00 3.665603e+00 -2.750276e+00 -6.289996e-05 -3.386734e-05 -9.457557e-05
Ga -1.486269e-02 -1.881919e+00 2.484953e+00 -5.089922e-05 -6.456395e-05 3.043539e-05
Al -1.965580e-02 -1.881024e+00 7.647961e+00 -4.613527e-06 -6.619803e-05 -5.146420e-05
Ga -3.120755e-02 -1.891244e+00 -2.756509e+00 -6.880569e-05 -6.545165e-05 1.325569e-05
Ga 7.640272e-03 1.814227e+00 5.055034e+00 -1.787084e-04 1.617338e-04 7.146214e-05
Ga -1.192501e-02 1.810670e+00 -5.380607e+00 -1.528190e-04 1.037147e-04 -5.126518e-05
Ga -1.590216e-02 1.817109e+00 -1.122700e-01 -1.858763e-04 1.280995e-04 1.973531e-04
Ga 3.208708e+00 -3.737666e+00 5.056639e+00 -1.708511e-04 1.033431e-04 -3.217917e-05
Ga 3.194031e+00 -3.746242e+00 -5.368792e+00 -1.322300e-04 9.614460e-05 -7.341214e-05
Ga 3.197598e+00 -3.748780e+00 -1.222949e-01 -1.411335e-04 1.490832e-04 1.063020e-04
Al 1.594806e+00 -9.480061e-01 5.075246e+00 -1.458891e-04 4.348038e-05 -1.038149e-05
Ga 1.579577e+00 -9.607054e-01 -5.391541e+00 -1.999523e-04 5.037320e-05 3.942780e-05
Ga 1.585072e+00 -9.623689e-01 -1.253666e-01 -1.911119e-04 1.538104e-04 1.078548e-04
Al 3.174258e+00 1.798358e+00 5.064129e+00 -9.736758e-05 5.359346e-05 -1.509082e-05
Ga 3.184736e+00 1.807963e+00 -5.372430e+00 -1.102980e-04 4.609731e-05 4.444591e-05
Ga 3.192596e+00 1.808741e+00 -1.336654e-01 -1.958438e-04 5.356414e-05 1.594674e-04
Al 6.398127e+00 -3.747603e+00 5.065288e+00 -9.951342e-05 5.630145e-05 2.224485e-05
Ga 6.404765e+00 -3.734420e+00 -5.367940e+00 -6.953062e-05 1.951877e-05 1.817647e-05
Ga 6.401977e+00 -3.742508e+00 -1.375026e-01 -1.285491e-04 4.474213e-05 1.487653e-04
Al 4.793801e+00 -9.704331e-01 5.077123e+00 -1.313319e-04 2.252804e-05 -5.873242e-06
Ga 4.810065e+00 -9.686845e-01 -5.362357e+00 -1.656224e-04 1.091426e-05 2.873828e-05
Ga 4.803783e+00 -9.626531e-01 -1.568712e-01 -1.860995e-04 4.633250e-05 1.664560e-04
Ga -3.250566e+00 1.805733e+00 5.070646e+00 -1.605531e-04 5.555194e-05 -3.561013e-05
Ga -3.243687e+00 1.812072e+00 -5.354159e+00 -8.877201e-05 5.549973e-05 -2.317806e-05
Ga -3.247717e+00 1.808591e+00 -1.490588e-01 -1.307857e-04 6.953295e-05 1.275753e-04
Ga -3.067517e-02 -3.744729e+00 5.078619e+00 -1.470860e-04 4.988386e-05 -1.050897e-05
Ga -2.450119e-02 -3.739351e+00 -5.381735e+00 -9.532611e-05 5.053941e-05 -5.277341e-05
Ga -2.636156e-02 -3.747185e+00 -1.323804e-01 -1.316832e-04 7.417456e-05 6.521848e-05
Ga -1.634142e+00 -9.817609e-01 5.088973e+00 -2.131335e-04 8.539057e-06 3.272707e-06
Ga -1.634948e+00 -9.798315e-01 -5.383414e+00 -1.659662e-04 1.334406e-05 6.432839e-06
Ga -1.636915e+00 -9.728967e-01 -1.447092e-01 -1.764805e-04 7.531126e-05 8.412412e-05
N 1.628102e+00 8.590698e-01 4.413478e+00 1.329417e-04 -4.166363e-05 -1.824993e-06
N 1.587406e+00 8.881781e-01 -6.073946e+00 2.326584e-04 -3.523183e-05 1.272033e-05
N 1.580932e+00 8.891090e-01 -7.746475e-01 2.498352e-04 -6.904912e-05 -1.353686e-04
N 2.203632e-02 3.692418e+00 4.401843e+00 1.463898e-04 -1.364447e-04 -2.327438e-06
N -1.880806e-02 3.672441e+00 -6.004992e+00 1.350622e-04 -7.278615e-05 3.430391e-05
N -2.459230e-02 3.667017e+00 -7.738371e-01 2.218024e-04 -1.233082e-04 -5.853100e-05
N 3.189671e+00 -1.839043e+00 4.483276e+00 1.833226e-04 -1.076760e-04 1.308975e-05
N 3.195748e+00 -1.887418e+00 -6.010829e+00 1.708165e-04 -4.437650e-05 7.745010e-06
N 3.187692e+00 -1.894264e+00 -7.738236e-01 1.923054e-04 -1.014567e-04 4.629022e-05
N -4.890028e+00 8.589703e-01 4.481393e+00 1.979881e-04 -2.210541e-05 1.107021e-05
N -4.846914e+00 8.842580e-01 -6.012474e+00 1.496866e-04 -5.335795e-06 -5.380138e-05
N -4.849818e+00 8.882320e-01 -8.370183e-01 2.043322e-04 -4.467278e-05 6.303525e-05
N -6.495363e+00 3.641678e+00 4.486019e+00 1.483089e-04 -6.009988e-05 -1.918597e-05
N -6.457601e+00 3.667219e+00 -6.011127e+00 7.043533e-05 -4.470121e-05 -7.881394e-06
N -6.453707e+00 3.667855e+00 -7.741364e-01 1.653024e-04 -8.396070e-05 -2.355143e-05
N -3.279331e+00 -1.917742e+00 4.473881e+00 2.043946e-04 -5.537325e-05 -2.841506e-05
N -3.241594e+00 -1.895500e+00 -6.074532e+00 1.150900e-04 -4.761710e-05 8.765895e-06
N -3.236112e+00 -1.895959e+00 -8.354962e-01 1.712289e-04 -9.001858e-05 2.476571e-05
N -1.627426e+00 8.832972e-01 4.446798e+00 2.391380e-04 -8.017148e-05 -3.205480e-05
N -1.632225e+00 8.878603e-01 -5.992502e+00 1.657205e-04 -8.645195e-05 2.454890e-06
N -1.624895e+00 8.903499e-01 -7.692847e-01 2.275461e-04 -1.479884e-04 -9.018240e-05
N -3.239006e+00 3.670680e+00 4.439585e+00 1.588462e-04 -1.183713e-04 5.107532e-05
N -3.237167e+00 3.668394e+00 -5.994257e+00 1.006830e-04 -1.258084e-04 4.535639e-05
N -3.237184e+00 3.673926e+00 -7.678977e-01 1.582903e-04 -1.558272e-04 1.113616e-04
N 2.243441e-02 -1.864790e+00 4.464231e+00 1.533043e-04 -1.328634e-04 -1.850106e-05
N -2.141808e-02 -1.888845e+00 -6.065940e+00 1.531335e-04 -1.088755e-04 3.790070e-05
N -2.103757e-02 -1.891270e+00 -7.752805e-01 1.999832e-04 -1.638508e-04 -3.586721e-06
N 2.475646e-02 1.838426e+00 1.886543e+00 2.799600e-05 6.887080e-05 -1.552367e-04
N 2.218025e-02 1.790205e+00 7.038526e+00 -7.292711e-06 1.093132e-04 1.211295e-05
N -1.999153e-02 1.812350e+00 -3.398913e+00 8.185270e-05 6.974140e-05 -4.901963e-05
N 3.238885e+00 -3.769079e+00 1.869505e+00 8.321583e-05 5.366893e-05 -1.786989e-04
N 3.196718e+00 -3.751378e+00 7.027949e+00 3.767234e-05 8.436656e-05 2.335083e-05
N 3.191451e+00 -3.747842e+00 -3.391099e+00 1.019096e-04 7.390255e-05 4.251767e-05
N 1.586588e+00 -9.164109e-01 1.858632e+00 -1.916281e-05 -2.324022e-05 -1.827549e-04
N 1.542607e+00 -9.399222e-01 7.006345e+00 -4.034396e-05 4.507724e-05 3.449430e-05
N 1.582227e+00 -9.660440e-01 -3.408208e+00 3.741306e-05 5.067868e-05 -2.806226e-05
N 3.148918e+00 1.787985e+00 1.855688e+00 8.337870e-05 -9.052195e-06 -1.395155e-04
N 3.143975e+00 1.786141e+00 6.986757e+00 4.699670e-05 5.851122e-05 1.306396e-05
N 3.229785e+00 1.788602e+00 -3.382978e+00 4.884209e-05 -1.271056e-05 -2.483237e-05
N 6.363917e+00 -3.769750e+00 1.849186e+00 1.144321e-04 -7.437090e-06 -1.409495e-04
N 6.401994e+00 -3.702489e+00 6.983323e+00 5.487884e-05 -1.195821e-05 -2.690871e-06
N 6.405017e+00 -3.694897e+00 -3.379527e+00 8.965824e-05 -3.036601e-05 -1.073205e-05
N 4.799057e+00 -9.659577e-01 1.826189e+00 2.108773e-05 -6.985446e-05 -1.172687e-04
N 4.842909e+00 -9.937099e-01 6.992328e+00 -4.573608e-05 5.581192e-06 -3.320973e-05
N 4.843754e+00 -9.432964e-01 -3.363413e+00 3.414639e-05 -8.389368e-05 -2.925678e-05
N -3.245636e+00 1.806446e+00 1.834818e+00 4.092479e-05 5.075410e-06 -1.328635e-04
N -3.235060e+00 1.812070e+00 7.038588e+00 -1.406141e-06 4.421341e-05 3.453133e-05
N -3.280323e+00 1.790751e+00 -3.368605e+00 2.366489e-05 2.237058e-05 5.978333e-05
N -3.106226e-02 -3.748732e+00 1.850316e+00 2.606858e-05 1.553361e-05 -7.614683e-05
N -2.245357e-02 -3.700466e+00 7.055266e+00 7.835716e-06 1.713745e-05 4.750956e-05
N -2.341422e-02 -3.745600e+00 -3.401218e+00 4.695509e-05 9.975929e-06 3.845377e-05
N -1.635547e+00 -9.734508e-01 1.837929e+00 5.113147e-06 -2.556061e-05 -9.337160e-05
N -1.629051e+00 -1.018812e+00 7.070962e+00 -4.471631e-05 6.513984e-05 -2.367205e-05
N -1.672758e+00 -9.954990e-01 -3.390039e+00 1.705180e-05 1.000096e-05 6.790146e-06
