108
Energy=-894418.845909 Lattice="9.462670 0.000000 0.000000 -4.740250 8.186677 0.000000 0.003607 -0.015035 15.252245" Stress="0.000030 -0.000005 0.000002 -0.000005 0.000014 -0.000006 0.000002 -0.000006 0.000053" Properties=species:S:1:pos:R:3:forces:R:3
Al 1.560908 0.869628 2.387435 0.000140 0.008322 0.005221
Al 1.566102 0.869211 7.440756 -0.000506 -0.002660 0.001634
Al 1.568338 0.883154 -2.657455 -0.003422 -0.000319 -0.006933
Al -0.037466 3.590428 2.421269 0.007004 0.002122 -0.001875
Al -0.017918 3.597542 7.450722 0.000160 -0.001245 0.001184
Al -0.028094 3.602476 -2.681213 0.000074 -0.002335 -0.002874
Al 3.142459 -1.868647 2.378787 -0.002320 0.001859 0.001684
Al 3.153821 -1.869550 7.477623 -0.003226 0.001054 -0.001038
Al 3.146543 -1.867619 -2.671774 -0.005374 0.003233 -0.003866
Al -4.757613 0.871514 2.389798 -0.000761 -0.000583 0.001103
Al -4.762448 0.862056 7.479344 0.001043 0.001122 0.000322
Al -4.776234 0.879102 -2.689918 0.001814 0.000345 -0.000690
Al -6.315181 3.570785 2.427075 -0.003067 0.006322 -0.005607
Al -6.349879 3.582761 7.475323 -0.000961 -0.000515 0.001165
Al -6.333312 3.590937 -2.700054 -0.000026 0.000606 -0.001838
Al -3.172747 -1.857004 2.399616 -0.000013 -0.000330 0.002219
Al -3.181272 -1.870694 7.473868 0.001957 -0.000189 0.000294
Ga -3.184675 -1.860298 -2.687301 0.000634 -0.000005 0.000166
Al -1.605285 0.867794 2.380955 0.000792 0.010189 0.005415
Al -1.610631 0.870421 7.446786 0.001161 -0.000626 0.000341
Ga -1.605864 0.890136 -2.666284 0.001203 0.000876 0.003162
Al -3.172793 3.586906 2.407346 -0.005470 0.005399 -0.003376
Ga -3.180474 3.584549 7.481200 0.000540 -0.000222 0.000377
Al -3.188250 3.610995 -2.690369 0.000940 -0.001270 -0.002667
Ga -0.033926 -1.840569 2.403436 0.000841 -0.003399 0.000582
Ga -0.019920 -1.863438 7.446560 0.000942 0.000119 -0.000134
Al -0.012738 -1.864525 -2.667194 0.001014 0.000790 -0.000108
Al -0.023164 1.770410 4.925022 -0.000746 -0.000574 -0.000708
Ga -0.023182 1.798061 -5.256106 0.000226 -0.000077 0.001534
Al -0.002980 1.782730 -0.116728 -0.007595 -0.002160 -0.002795
Al 3.135490 -3.689888 4.924413 0.000308 0.001342 0.000493
Al 3.142515 -3.676548 -5.226640 0.000070 0.001010 0.000327
Al 3.130400 -3.688392 -0.153398 -0.000426 -0.000103 0.005089
Al 1.566106 -0.949930 4.910392 -0.003711 -0.000945 0.001169
Ga 1.581072 -0.948025 -5.220748 -0.001556 0.001077 0.002154
Al 1.569930 -0.944147 -0.160706 -0.003754 -0.001257 0.003944
Al 3.130134 1.782005 4.933012 -0.001304 -0.001754 0.000457
Al 3.135276 1.789211 -5.237527 0.000329 0.000838 0.000828
Al 3.131866 1.771682 -0.161690 0.000153 0.003346 0.007967
Al 6.301443 -3.691962 4.929651 -0.000636 0.001207 -0.000545
Al 6.285446 -3.679427 -5.244318 0.000229 0.000119 -0.000002
Ga 6.292426 -3.688361 -0.128739 0.001871 0.000627 0.004418
Ga 4.714156 -0.954346 4.932269 -0.000255 -0.000404 0.001476
Al 4.708044 -0.939886 -5.247167 -0.000171 -0.000229 -0.000248
Al 4.704966 -0.938364 -0.130288 0.000484 -0.000803 0.001084
Al -3.180403 1.777594 4.917498 0.001668 -0.001379 0.001547
Al -3.204770 1.792356 -5.223689 0.001931 -0.001502 -0.002132
Al -3.219640 1.799043 -0.115558 0.013502 -0.005754 -0.007178
Al -0.020362 -3.707731 4.925997 -0.000897 0.005541 0.002441
Al -0.026176 -3.693013 -5.210406 -0.000783 0.004084 -0.002676
Al -0.010762 -3.685759 -0.174210 -0.002450 0.003363 0.006337
Al -1.598406 -0.942909 4.933310 -0.002337 0.001317 0.001434
Ga -1.605154 -0.941932 -5.243591 -0.000577 0.000061 0.000162
Al -1.595745 -0.941018 -0.136641 0.001502 0.001258 0.003828
N 1.557185 0.869966 4.317741 -0.000026 0.000165 0.000584
N 1.597696 0.897594 -5.882450 -0.000325 -0.000759 -0.005316
N 1.557460 0.877967 -0.749414 0.001348 -0.000192 0.002891
N -0.026695 3.591297 4.333608 0.000300 0.000336 0.001726
N -0.030578 3.651942 -5.876390 -0.000059 0.001423 -0.001849
N -0.060792 3.576366 -0.766849 -0.001000 -0.000324 0.001131
N 3.099467 -1.887481 4.295110 0.000113 -0.001665 -0.001658
N 3.173069 -1.881346 -5.855054 0.000764 -0.001192 -0.001331
N 3.146874 -1.865729 -0.747458 -0.000849 0.000106 0.001202
N -4.760156 0.911468 4.305238 0.000522 0.000535 -0.001211
N -4.764209 0.880543 -5.843832 0.001167 0.000255 -0.000375
N -4.766453 0.868546 -0.757521 0.001655 -0.000022 0.001047
N -6.331145 3.585429 4.331061 0.000246 -0.000405 0.000641
N -6.338600 3.602728 -5.842997 0.000508 0.000333 0.000430
N -6.298185 3.575215 -0.789025 0.000099 -0.001768 0.000892
N -3.127802 -1.882722 4.316495 -0.002475 -0.001306 -0.000868
N -3.211846 -1.877379 -5.857015 -0.001328 -0.000768 -0.000176
N -3.178269 -1.814592 -0.712193 -0.000523 0.000306 0.000438
N -1.604417 0.870040 4.314403 0.000864 0.000926 -0.000022
N -1.649610 0.908248 -5.893513 -0.002006 0.000932 0.002006
N -1.585977 0.867130 -0.694734 -0.008183 0.008487 0.006061
N -3.178299 3.592328 4.326175 -0.000670 0.000613 -0.000782
N -3.184592 3.609698 -5.785058 0.000496 -0.000495 0.001053
N -3.185453 3.603400 -0.770592 0.001812 -0.001730 0.002588
N -0.043323 -1.860905 4.383445 0.009016 -0.002948 0.000304
N -0.011439 -1.890700 -5.837992 -0.000136 -0.005303 0.001622
N -0.023145 -1.857026 -0.742449 0.001853 -0.000508 0.000914
N -0.020036 1.784639 1.801783 0.001003 -0.000747 -0.000467
N -0.022653 1.768838 6.853738 0.000090 0.001321 -0.000052
N 0.010110 1.799700 -3.282331 0.003898 0.002306 0.003890
N 3.137961 -3.693311 1.801727 -0.000655 0.002070 -0.007484
N 3.174329 -3.664868 6.844203 -0.000327 0.000253 -0.001980
N 3.140942 -3.680661 -3.295393 -0.000637 0.001831 0.001548
N 1.585905 -0.904193 1.788687 0.005119 -0.009559 -0.010475
N 1.605903 -0.944954 6.819637 0.003084 0.002804 0.005470
N 1.548345 -0.935974 -3.235228 0.006777 -0.003655 0.004546
N 3.132332 1.782896 1.797868 0.000744 -0.003049 -0.008736
N 3.135388 1.776761 6.858703 0.000204 -0.000911 -0.001083
N 3.127244 1.782468 -3.305411 -0.000600 -0.000689 0.000509
N 6.315230 -3.681317 1.866248 -0.006795 -0.003829 -0.002873
N 6.294080 -3.684539 6.859085 0.000264 -0.000396 -0.000997
N 6.287405 -3.722664 -3.317283 -0.000067 -0.000505 -0.000308
N 4.715192 -0.953109 1.796012 -0.001722 0.001178 -0.001276
N 4.715790 -0.953961 6.918465 -0.000999 0.000212 -0.000967
N 4.671477 -0.919399 -3.320031 -0.002076 -0.000519 -0.000136
N -3.181021 1.784476 1.796459 -0.002697 0.000146 -0.000812
N -3.185542 1.728976 6.838860 -0.001542 -0.000134 -0.001988
N -3.224708 1.803130 -3.305712 -0.001785 0.000790 -0.000167
N -0.031312 -3.701329 1.759631 0.006880 -0.007795 0.002491
N -0.067625 -3.723962 6.841123 0.002706 0.000503 -0.004650
N -0.023316 -3.672661 -3.290654 0.000020 0.000167 0.001363
N -1.643980 -0.896370 1.799897 0.000062 -0.011240 -0.010250
N -1.637847 -0.931603 6.849861 -0.002984 0.000301 -0.000736
N -1.555202 -0.958212 -3.275770 -0.001340 -0.002797 -0.000590
