108
Energy=-6.655407e+05 Lattice="9.461060e+00 0.000000e+00 0.000000e+00 -4.733977e+00 8.191746e+00 0.000000e+00 2.815413e-02 3.646944e-04 1.516267e+01" Stress="1.193636e-02 3.806992e-03 1.355968e-03 3.795987e-03 1.446632e-02 6.263848e-04 1.346013e-03 6.259540e-04 4.559504e-03" Properties=species:S:1:pos:R:3:forces:R:3 Config_type=AlGaN_super3_5_2_3.xyz
Al 1.556224e+00 8.759473e-01 2.385487e+00 1.810797e-03 -5.449966e-03 -3.129296e-03
Al 1.570376e+00 8.826296e-01 7.443126e+00 -8.143235e-04 -6.891654e-03 -8.926657e-04
Al 1.551870e+00 8.808886e-01 -2.689512e+00 7.009602e-04 -8.766881e-03 -2.905551e-03
Al -1.190318e-02 3.597101e+00 2.385244e+00 1.493621e-03 4.544944e-05 -2.623086e-03
Al 4.081210e-03 3.598034e+00 7.433884e+00 -2.125674e-03 -4.407442e-04 -4.139192e-04
Al -2.171249e-02 3.604590e+00 -2.687633e+00 -1.783063e-04 8.530072e-04 2.195378e-03
Al 3.161370e+00 -1.872771e+00 2.370739e+00 -1.308823e-03 5.349924e-04 -1.998575e-04
Al 3.169651e+00 -1.861744e+00 7.435377e+00 -2.571587e-04 -1.642061e-03 2.126258e-03
Al 3.144944e+00 -1.864249e+00 -2.674223e+00 6.110071e-03 -5.301299e-03 1.350504e-03
Al -4.755950e+00 8.822594e-01 2.374125e+00 -4.487160e-04 -4.671507e-03 -2.576051e-03
Al -4.752065e+00 8.867327e-01 7.439965e+00 2.210314e-03 -6.975668e-03 -2.368931e-04
Al -4.775833e+00 8.877624e-01 -2.684562e+00 2.628718e-03 -6.433839e-03 2.466829e-03
Al -6.330012e+00 3.600635e+00 2.428614e+00 1.302319e-03 1.023379e-03 -3.850376e-02
Al -6.319346e+00 3.601117e+00 7.440480e+00 -5.665954e-04 7.148012e-04 4.137937e-03
Al -6.348250e+00 3.598303e+00 -2.686823e+00 -9.812563e-04 1.563027e-03 4.156555e-03
Al -3.160502e+00 -1.863004e+00 2.371127e+00 7.995988e-04 -1.641538e-03 -1.644376e-03
Al -3.159677e+00 -1.863437e+00 7.434895e+00 8.397589e-07 5.746207e-04 2.311155e-03
Al -3.181267e+00 -1.863547e+00 -2.687993e+00 -1.213173e-04 -5.683332e-04 2.942754e-03
Al -1.623272e+00 8.899375e-01 2.389982e+00 7.708612e-03 -4.586235e-03 -3.810521e-03
Al -1.619222e+00 8.930967e-01 7.433779e+00 7.934767e-03 -4.494622e-03 -1.200223e-03
Al -1.641510e+00 8.914653e-01 -2.692582e+00 6.389556e-03 -4.489982e-03 4.171286e-04
Al -3.188257e+00 3.605942e+00 2.383429e+00 3.080792e-03 3.191558e-03 -3.398577e-03
Al -3.185213e+00 3.603368e+00 7.430526e+00 7.957044e-03 2.230370e-03 1.995781e-04
Al -3.206524e+00 3.600604e+00 -2.681110e+00 6.683951e-03 2.325836e-03 2.442946e-03
Al -2.243935e-02 -1.863488e+00 2.383676e+00 5.471785e-03 -9.064283e-05 -2.578148e-03
Ga -2.913648e-02 -1.869751e+00 7.445416e+00 8.655372e-03 5.503362e-03 3.744230e-03
Ga -3.468763e-02 -1.878914e+00 -2.671763e+00 4.646447e-03 3.749807e-03 -2.944797e-03
Al -1.071366e-02 1.778597e+00 4.911620e+00 -5.235854e-03 -1.864341e-03 -1.134796e-03
Al -1.876405e-02 1.786565e+00 -5.209545e+00 -8.158347e-03 -2.036945e-03 -8.729332e-04
Al -1.733502e-02 1.787394e+00 -1.920319e-01 -8.424892e-03 -7.175567e-04 1.288826e-02
Al 3.159575e+00 -3.685444e+00 4.914733e+00 -5.817454e-03 -8.665134e-04 3.124150e-04
Ga 3.143073e+00 -3.680467e+00 -5.205464e+00 -8.046041e-03 -1.692675e-03 -1.761974e-04
Al 3.146129e+00 -3.683064e+00 -1.358101e-01 -6.565000e-03 -2.967505e-03 -1.012248e-02
Al 1.598349e+00 -9.685305e-01 4.914716e+00 -7.747145e-03 3.582703e-03 -7.846232e-04
Al 1.602429e+00 -9.319264e-01 -5.147033e+00 -1.734858e-02 -8.048349e-03 -4.615390e-02
Al 1.563061e+00 -9.654502e-01 -1.409389e-01 3.334700e-03 4.888160e-03 -1.266693e-03
Ga 3.138347e+00 1.786254e+00 4.902254e+00 -1.323656e-03 -1.958002e-03 2.367896e-03
Al 3.116234e+00 1.795577e+00 -5.207886e+00 1.594187e-03 9.245550e-04 -1.763231e-04
Al 3.118615e+00 1.791702e+00 -1.394580e-01 2.551151e-03 2.238456e-03 -1.915399e-03
Ga 6.303788e+00 -3.678461e+00 4.900884e+00 -2.004499e-03 2.992885e-04 2.264725e-03
Al 6.286217e+00 -3.680024e+00 -5.211766e+00 8.405103e-04 2.170071e-03 1.192523e-03
Al 6.285713e+00 -3.677971e+00 -1.419037e-01 1.651409e-03 -1.404234e-03 -1.660487e-03
Al 4.737522e+00 -9.609226e-01 4.908503e+00 -2.733335e-03 5.137121e-03 9.613291e-04
Al 4.719184e+00 -9.561619e-01 -5.206914e+00 -9.184343e-05 4.769506e-03 -6.982608e-05
Al 4.718184e+00 -9.595248e-01 -1.343901e-01 -9.285461e-04 6.203073e-03 -1.160951e-02
Al -3.182075e+00 1.791140e+00 4.911204e+00 3.811257e-04 2.040751e-04 5.616199e-04
Al -3.209655e+00 1.791747e+00 -5.213147e+00 1.259116e-03 2.028662e-05 1.255164e-03
Al -3.202665e+00 1.795062e+00 -1.406163e-01 7.397333e-04 8.311497e-04 -7.362671e-03
Al -1.240489e-02 -3.675736e+00 4.912017e+00 -2.055963e-03 -3.733354e-04 -4.817639e-03
Al -4.541422e-02 -3.683216e+00 -5.209486e+00 -1.083586e-03 -4.764915e-03 4.497573e-03
Al -3.612203e-02 -3.661632e+00 -1.595667e-01 5.485734e-04 -1.658227e-02 9.845935e-03
Al -1.588969e+00 -9.518812e-01 4.909457e+00 1.513509e-04 5.909845e-03 -3.520448e-04
Al -1.605689e+00 -9.545791e-01 -5.210489e+00 -8.055903e-03 6.070467e-03 1.544539e-03
Al -1.594171e+00 -9.597540e-01 -1.461703e-01 -4.314944e-03 7.500962e-03 -3.434214e-03
N 1.546526e+00 8.646500e-01 4.307467e+00 -9.291923e-03 -1.146437e-02 -4.075139e-03
N 1.547714e+00 8.897995e-01 -5.796722e+00 -6.290638e-04 -8.269467e-03 4.152818e-04
N 1.549515e+00 8.851450e-01 -7.628774e-01 1.150924e-04 -1.126715e-02 -1.694431e-03
N -2.398816e-02 3.592577e+00 4.307757e+00 -1.025773e-02 -6.933030e-03 -4.884999e-03
N -5.077796e-03 3.593358e+00 -5.813637e+00 9.354812e-03 -6.707550e-03 -4.535085e-03
N -1.859728e-02 3.607079e+00 -7.624791e-01 -2.289392e-04 -8.540510e-04 1.591614e-03
N 3.164886e+00 -1.870801e+00 4.307599e+00 -3.657928e-04 2.143240e-04 -3.080398e-03
N 3.145827e+00 -1.841108e+00 -5.803843e+00 -2.001204e-03 1.155816e-02 -8.683255e-03
N 3.142619e+00 -1.867279e+00 -7.462028e-01 -2.229244e-03 2.678627e-03 -2.495661e-03
N -4.738021e+00 8.706222e-01 4.300438e+00 1.219609e-02 -1.092754e-02 -5.391158e-03
N -4.777169e+00 8.860427e-01 -5.804475e+00 3.411221e-04 -5.826502e-03 8.148205e-04
N -4.774439e+00 8.878364e-01 -7.522353e-01 9.021977e-04 -6.586743e-03 7.537736e-04
N -6.320416e+00 3.603614e+00 4.228966e+00 1.550692e-02 8.896362e-03 3.131540e-02
N -6.343954e+00 3.608267e+00 -5.806440e+00 -1.411245e-03 -4.571049e-03 -3.421830e-04
N -6.341703e+00 3.608237e+00 -7.569202e-01 -1.288788e-04 -2.008143e-04 -1.096672e-03
N -3.159482e+00 -1.843605e+00 4.297070e+00 9.168850e-04 1.195330e-02 -6.606548e-03
N -3.176600e+00 -1.864335e+00 -5.808783e+00 -3.642069e-03 1.149053e-03 5.777536e-05
N -3.173343e+00 -1.864765e+00 -7.557538e-01 1.320546e-03 8.045642e-04 1.386435e-04
N -1.622469e+00 8.880446e-01 4.317866e+00 6.955085e-03 -4.231260e-03 -7.272847e-04
N -1.639511e+00 8.914219e-01 -5.808920e+00 8.565817e-03 -3.664235e-03 2.323210e-03
N -1.636119e+00 8.896399e-01 -7.664186e-01 8.874847e-03 -5.541231e-03 2.865579e-03
N -3.184146e+00 3.607824e+00 4.312868e+00 5.762637e-03 9.096949e-04 -5.398135e-04
N -3.227948e+00 3.599063e+00 -5.816522e+00 -1.596744e-03 -3.189399e-03 -3.563608e-03
N -3.204908e+00 3.611084e+00 -7.550212e-01 6.851136e-03 1.373798e-03 1.779878e-03
N -1.936209e-02 -1.860366e+00 4.315300e+00 5.041929e-03 1.989153e-03 -6.862337e-04
N -1.095044e-01 -1.909966e+00 -5.763218e+00 2.968423e-02 1.949995e-02 4.844905e-03
N -1.408352e-02 -1.885134e+00 -7.005982e-01 -5.980788e-04 1.626618e-02 -1.596142e-03
N -1.088275e-02 1.782990e+00 1.811262e+00 -5.864904e-03 -2.852013e-03 -1.350839e-02
N 4.172011e-04 1.783108e+00 6.836972e+00 -5.147335e-03 -2.635709e-03 -9.091579e-05
N -2.144328e-02 1.788537e+00 -3.288192e+00 -4.326078e-03 -5.671106e-03 2.319988e-03
N 3.158548e+00 -3.688497e+00 1.759305e+00 -5.928756e-03 -1.355020e-03 1.034385e-02
N 3.165849e+00 -3.684340e+00 6.839992e+00 -5.978519e-03 -1.385489e-03 -2.880928e-04
N 3.140467e+00 -3.682674e+00 -3.261644e+00 -5.311685e-03 -3.605086e-03 1.447943e-02
N 1.592698e+00 -9.701667e-01 1.760679e+00 -7.571636e-03 5.562539e-03 1.041563e-02
N 1.615510e+00 -9.554189e-01 6.840603e+00 -2.726416e-04 8.977688e-03 -4.336764e-03
N 1.611527e+00 -1.020276e+00 -3.370873e+00 -5.157427e-03 2.681828e-02 4.962113e-02
N 3.130064e+00 1.795749e+00 1.781868e+00 -7.594809e-04 -4.975250e-03 1.291182e-03
N 3.139734e+00 1.793533e+00 6.857287e+00 3.511370e-05 -7.729893e-04 9.030097e-03
N 3.117535e+00 1.793289e+00 -3.287459e+00 -1.101246e-03 -4.271021e-03 -5.962837e-05
N 6.304078e+00 -3.689184e+00 1.781353e+00 -4.420211e-03 2.665512e-03 1.655817e-03
N 6.310375e+00 -3.683010e+00 6.853302e+00 3.538788e-04 3.139657e-04 9.260449e-03
N 6.281810e+00 -3.679622e+00 -3.290081e+00 -3.009533e-04 -6.698096e-05 3.113772e-04
N 4.731988e+00 -9.636368e-01 1.753185e+00 -2.020900e-03 6.105174e-03 1.178222e-02
N 4.738373e+00 -9.589767e-01 6.835271e+00 -1.509548e-03 6.697658e-03 -1.710748e-03
N 4.716015e+00 -9.593444e-01 -3.284613e+00 -2.354541e-03 7.063618e-03 1.884077e-03
N -3.187276e+00 1.793248e+00 1.763074e+00 8.425525e-04 -1.087940e-03 7.364603e-03
N -3.183953e+00 1.793505e+00 6.835194e+00 -1.289473e-04 -6.340508e-04 -2.303367e-03
N -3.205502e+00 1.793685e+00 -3.288934e+00 4.531382e-04 -8.622637e-04 -1.039106e-03
N -3.149853e-02 -3.685719e+00 1.785735e+00 2.803428e-03 2.362928e-03 -7.769490e-04
N -2.003485e-02 -3.699663e+00 6.828583e+00 -4.279535e-04 -1.282258e-02 -9.377130e-03
N -4.500382e-02 -3.707655e+00 -3.290420e+00 2.045159e-03 -1.198598e-02 -2.159570e-03
N -1.588131e+00 -9.573932e-01 1.763915e+00 -1.230361e-03 7.272922e-03 7.179269e-03
N -1.605864e+00 -9.489355e-01 6.829401e+00 -1.050000e-02 1.323857e-02 -5.796789e-03
N -1.620856e+00 -9.519344e-01 -3.291880e+00 -8.128236e-03 1.350752e-02 3.902788e-04
