108
Energy=-1.214847e+06 Lattice="9.487240e+00 0.000000e+00 0.000000e+00 -4.745938e+00 8.213760e+00 0.000000e+00 8.637140e-04 7.626979e-03 1.529742e+01" Stress="-4.278492e-04 -4.246174e-05 6.903817e-05 -4.768008e-05 -9.253089e-04 3.069243e-04 7.118958e-05 3.196024e-04 2.854837e-04" Properties=species:S:1:pos:R:3:forces:R:3 Config_type=AlGaN_super3_17_0_19.xyz
Al 1.555726e+00 8.861131e-01 2.438163e+00 4.447821e-04 4.163877e-04 6.551526e-04
Al 1.563193e+00 8.954924e-01 7.499082e+00 -2.282077e-04 -3.092618e-04 -1.323479e-04
Al 1.568016e+00 8.826923e-01 -2.737612e+00 -1.639370e-05 1.122502e-04 3.315016e-04
Al -2.209468e-02 3.606431e+00 2.417080e+00 8.199053e-04 5.858998e-04 3.219948e-04
Al -2.878645e-02 3.603598e+00 7.505768e+00 -1.565979e-04 -1.495321e-04 9.797561e-05
Al -6.635908e-03 3.610974e+00 -2.721689e+00 -3.176659e-04 -4.056446e-04 -1.141616e-04
Al 3.151033e+00 -1.864263e+00 2.406716e+00 -2.396480e-04 4.464404e-04 8.233734e-04
Al 3.145599e+00 -1.866025e+00 7.502459e+00 -1.238928e-04 2.159552e-04 -3.600984e-04
Ga 3.153372e+00 -1.871349e+00 -2.703556e+00 -2.443567e-04 2.906593e-04 2.929617e-04
Al -4.783333e+00 8.721385e-01 2.440523e+00 1.015958e-05 -9.779266e-04 -3.293336e-04
Al -4.776349e+00 8.894368e-01 7.482226e+00 3.292462e-04 -5.658009e-05 1.252772e-04
Al -4.777114e+00 8.766124e-01 -2.720402e+00 -5.449206e-06 -5.876407e-05 1.905882e-04
Al -6.354364e+00 3.605499e+00 2.420857e+00 4.816439e-04 -8.053545e-04 6.231897e-04
Al -6.344441e+00 3.596388e+00 7.511164e+00 3.609195e-06 5.860131e-05 2.416702e-04
Al -6.366815e+00 3.599225e+00 -2.733041e+00 4.145123e-04 1.437020e-04 6.582553e-04
Ga -3.186990e+00 -1.857997e+00 2.401722e+00 -2.427652e-04 5.942809e-05 1.998973e-04
Ga -3.192334e+00 -1.860936e+00 7.483129e+00 -2.710775e-04 8.080880e-05 3.593216e-04
Al -3.187427e+00 -1.884252e+00 -2.683051e+00 -1.155167e-04 2.648807e-04 6.800223e-04
Al -1.595962e+00 8.703991e-01 2.434151e+00 -6.541927e-05 1.172658e-03 -6.092973e-05
Al -1.603327e+00 9.017750e-01 7.486774e+00 2.071451e-05 -2.601297e-04 -4.485807e-04
Ga -1.609280e+00 8.819919e-01 -2.710896e+00 6.804377e-04 -4.507341e-04 -1.660965e-05
Ga -3.177129e+00 3.619645e+00 2.442351e+00 -1.150218e-04 2.178428e-04 1.150781e-04
Al -3.183313e+00 3.609613e+00 7.484039e+00 1.358379e-04 -2.141348e-04 2.379198e-06
Ga -3.185487e+00 3.602603e+00 -2.719707e+00 1.487238e-04 -2.820707e-04 -5.615191e-05
Al -3.028906e-02 -1.853672e+00 2.428268e+00 5.728767e-04 2.905221e-04 -3.834566e-06
Ga -1.452852e-02 -1.862646e+00 7.500770e+00 4.316480e-04 -2.392161e-04 1.666465e-04
Ga -2.228286e-02 -1.867600e+00 -2.711925e+00 3.961258e-04 8.682544e-08 2.411453e-05
Al -3.386899e-02 1.791677e+00 4.960513e+00 1.003308e-04 -3.922520e-04 1.482068e-04
Al -1.625303e-02 1.793526e+00 -5.271924e+00 -3.248171e-04 -2.582807e-04 -6.929817e-05
Ga -2.009439e-02 1.797084e+00 -1.343370e-01 -4.085661e-04 -3.835362e-05 4.823549e-05
Al 3.147193e+00 -3.689843e+00 4.972890e+00 -1.391204e-04 1.769600e-04 2.052866e-04
Al 3.141004e+00 -3.707036e+00 -5.285521e+00 -1.109585e-04 3.676348e-04 -2.627770e-04
Al 3.165828e+00 -3.689487e+00 -1.350264e-01 2.472599e-04 6.555335e-05 3.900829e-04
Ga 1.568105e+00 -9.482958e-01 4.947842e+00 -1.952046e-04 3.636186e-04 -3.399899e-04
Al 1.570360e+00 -9.490404e-01 -5.274237e+00 2.885102e-05 1.987075e-04 2.366378e-04
Ga 1.568324e+00 -9.551222e-01 -1.136687e-01 -8.880038e-04 5.716089e-04 1.237791e-03
Al 3.142748e+00 1.793179e+00 4.966097e+00 5.946499e-05 -2.347454e-04 -3.997207e-04
Al 3.134787e+00 1.788577e+00 -5.266442e+00 1.934705e-04 -1.765732e-04 2.525788e-04
Ga 3.138035e+00 1.785823e+00 -1.440934e-01 -1.886700e-04 -2.862599e-04 4.266157e-04
Ga 6.302536e+00 -3.700748e+00 4.956739e+00 1.134451e-05 -1.601563e-04 3.895568e-04
Al 6.301819e+00 -3.715065e+00 -5.251788e+00 -4.178893e-06 2.155251e-04 -1.020794e-04
Al 6.294505e+00 -3.684507e+00 -1.545839e-01 3.173862e-04 -2.965488e-04 2.533668e-07
Al 4.712631e+00 -9.376124e-01 4.962745e+00 -1.759599e-04 -1.440508e-04 -5.834468e-04
Ga 4.716779e+00 -9.498852e-01 -5.253495e+00 -3.274782e-04 2.104564e-04 7.150821e-04
Al 4.732145e+00 -9.566048e-01 -1.496627e-01 -3.100340e-04 7.923268e-05 -1.704469e-04
Al -3.188705e+00 1.782225e+00 4.964979e+00 1.750854e-04 -1.471981e-04 -2.480200e-05
Al -3.192514e+00 1.796636e+00 -5.289940e+00 -1.730804e-04 1.992688e-04 4.647977e-04
Ga -3.193664e+00 1.772062e+00 -1.204412e-01 -3.526112e-05 1.410792e-04 1.350379e-04
Al -2.774819e-02 -3.696102e+00 4.962484e+00 -3.704047e-06 5.094319e-04 -2.827019e-05
Al -2.036795e-02 -3.712307e+00 -5.269146e+00 2.636177e-04 -1.683071e-06 2.656356e-05
Ga -3.676768e-02 -3.688028e+00 -1.323083e-01 7.985260e-05 2.094885e-04 -6.267040e-04
Al -1.601863e+00 -9.325232e-01 4.955017e+00 -3.996017e-04 9.457500e-05 -8.591793e-04
Ga -1.599865e+00 -9.485921e-01 -5.254465e+00 -2.336772e-04 5.266305e-05 4.057007e-04
Al -1.614882e+00 -9.574709e-01 -1.335829e-01 -1.133732e-04 -1.337470e-05 1.393889e-04
N 1.555874e+00 9.312828e-01 4.347768e+00 1.181283e-04 4.145285e-04 3.116438e-04
N 1.558078e+00 8.758912e-01 -5.874218e+00 2.636893e-04 -6.990291e-06 -1.187503e-04
N 1.555684e+00 8.685907e-01 -8.207735e-01 2.611401e-04 -1.131450e-04 -6.727961e-04
N -6.790419e-02 3.589905e+00 4.332751e+00 -5.450758e-04 4.883800e-04 -7.942394e-04
N -2.063136e-02 3.605753e+00 -5.874065e+00 -7.581789e-05 -7.876219e-05 -9.968811e-05
N -2.178343e-02 3.654773e+00 -7.928485e-01 -2.647187e-04 3.961699e-04 -3.770487e-04
N 3.188453e+00 -1.892129e+00 4.325414e+00 3.063011e-04 -6.566894e-04 -1.512251e-04
N 3.108356e+00 -1.894175e+00 -5.884373e+00 -5.014093e-04 -1.544161e-08 -1.241107e-04
N 3.179923e+00 -1.891906e+00 -7.228928e-01 -7.701121e-06 1.191012e-04 5.781099e-04
N -4.773803e+00 8.761454e-01 4.362404e+00 3.903014e-04 7.787849e-05 -1.320143e-04
N -4.773955e+00 9.173442e-01 -5.898329e+00 1.715626e-04 -3.709650e-06 -6.120770e-04
N -4.770969e+00 8.314727e-01 -8.045765e-01 4.747527e-04 -1.501918e-04 -1.721703e-04
N -6.309907e+00 3.588215e+00 4.331329e+00 2.989790e-04 9.493188e-05 -5.273645e-04
N -6.350404e+00 3.603758e+00 -5.864321e+00 -2.344300e-04 2.305874e-04 -4.217909e-05
N -6.391774e+00 3.630645e+00 -8.102615e-01 -4.661937e-04 3.122018e-04 -4.869876e-04
N -3.189341e+00 -1.815262e+00 4.382511e+00 6.457130e-04 4.900401e-04 1.016648e-04
N -3.184915e+00 -1.918534e+00 -5.854746e+00 5.776849e-05 -1.798378e-04 -1.017360e-04
N -3.182486e+00 -1.869117e+00 -7.452012e-01 3.435226e-05 9.700428e-05 4.420176e-04
N -1.606517e+00 8.802632e-01 4.354716e+00 2.367935e-04 -1.809471e-04 -2.178138e-04
N -1.604515e+00 9.214889e-01 -5.894322e+00 8.016238e-04 3.087833e-04 6.972168e-04
N -1.606405e+00 8.336575e-01 -7.415281e-01 6.096803e-04 -4.117671e-04 1.731106e-04
N -3.182862e+00 3.617553e+00 4.421568e+00 4.699043e-04 -1.335172e-04 -3.962504e-05
N -3.187514e+00 3.610345e+00 -5.887422e+00 1.435071e-04 -1.698024e-04 -1.946620e-04
N -3.144105e+00 3.633879e+00 -7.371634e-01 3.029510e-04 -1.069931e-04 2.529807e-04
N -6.586150e-02 -1.884789e+00 4.342344e+00 -4.769815e-04 -7.210380e-04 7.071317e-04
N 1.960617e-02 -1.893919e+00 -5.828279e+00 -2.920835e-05 -1.536638e-04 -2.038556e-04
N -5.604883e-02 -1.839629e+00 -7.405666e-01 2.631580e-05 3.724891e-04 3.398130e-04
N -2.231694e-02 1.789524e+00 1.851799e+00 -2.853991e-04 -9.024011e-04 -2.034648e-05
N -2.080990e-02 1.792097e+00 6.886288e+00 -1.505577e-04 1.946931e-04 -1.889085e-04
N 1.715480e-02 1.807387e+00 -3.349055e+00 -1.072740e-04 6.525710e-04 -6.164737e-05
N 3.188720e+00 -3.671393e+00 1.784453e+00 -5.423300e-04 5.754544e-04 -1.051692e-03
N 3.147721e+00 -3.685950e+00 6.897308e+00 1.492728e-04 8.718488e-05 -1.297561e-04
N 3.184155e+00 -3.719479e+00 -3.373426e+00 3.749110e-04 -2.250983e-04 4.313259e-04
N 1.559050e+00 -9.416732e-01 1.882531e+00 2.129351e-04 -1.473445e-03 -1.850602e-03
N 1.605442e+00 -9.201251e-01 6.919584e+00 1.998383e-05 2.579522e-04 5.027979e-04
N 1.570265e+00 -9.118994e-01 -3.359818e+00 -4.974546e-04 4.422818e-04 -6.182239e-04
N 3.135542e+00 1.785561e+00 1.847292e+00 7.350394e-04 3.518732e-04 -9.944534e-04
N 3.136106e+00 1.794569e+00 6.887397e+00 5.986077e-05 -2.614699e-04 -4.243691e-04
N 3.140632e+00 1.782925e+00 -3.338561e+00 9.502316e-05 -8.772957e-05 -5.713062e-05
N 6.308002e+00 -3.739503e+00 1.777619e+00 -1.782948e-03 -5.969945e-05 -5.007727e-04
N 6.305620e+00 -3.743976e+00 6.924209e+00 -1.355500e-04 -2.341413e-04 -4.042991e-05
N 6.300963e+00 -3.691519e+00 -3.323478e+00 2.566658e-04 2.103272e-04 -2.012324e-04
N 4.680116e+00 -9.195838e-01 1.772097e+00 4.277219e-04 1.100858e-03 -2.400580e-05
N 4.675819e+00 -9.222873e-01 6.873206e+00 -5.897304e-04 4.646148e-04 2.056659e-04
N 4.768098e+00 -9.324844e-01 -3.279187e+00 1.870339e-05 -2.196007e-04 -9.922714e-05
N -3.193427e+00 1.741194e+00 1.857838e+00 4.006181e-04 -1.041446e-03 6.728438e-04
N -3.188671e+00 1.787803e+00 6.886203e+00 1.502075e-04 -4.288555e-05 -6.705956e-05
N -3.230288e+00 1.759986e+00 -3.373759e+00 -1.413365e-05 1.074292e-04 -6.271552e-04
N -6.129106e-02 -3.663886e+00 1.840423e+00 -4.910862e-04 -5.895876e-04 9.623679e-04
N -2.807453e-02 -3.732941e+00 6.878372e+00 -3.077536e-04 -5.298514e-04 -2.877079e-04
N -6.173644e-02 -3.721091e+00 -3.358100e+00 -7.035687e-04 -1.297745e-04 5.682584e-05
N -1.562981e+00 -9.209803e-01 1.787419e+00 -9.071428e-05 -5.700761e-04 -9.416572e-04
N -1.598646e+00 -8.945278e-01 6.858130e+00 1.207198e-04 2.304677e-04 6.377054e-04
N -1.648803e+00 -9.759821e-01 -3.295252e+00 -5.282756e-04 -9.662743e-05 3.904632e-05
