108
Energy=-1260622.781572 Lattice="9.488039 0.000000 0.000000 -4.749155 8.211846 0.000000 -0.003459 0.003451 15.313037" Stress="-0.000017 0.000002 -0.000002 0.000002 -0.000021 -0.000000 -0.000002 -0.000000 0.000006" Properties=species:S:1:pos:R:3:forces:R:3
Al 1.564376 0.868815 2.419636 -0.002833 0.002334 0.002264
Al 1.554715 0.872949 7.515577 -0.000277 0.003350 0.001298
Al 1.554462 0.869006 -2.734727 0.000216 -0.001481 -0.000036
Al -0.015197 3.599714 2.434597 -0.005934 0.003304 -0.001510
Al -0.026107 3.598396 7.508990 0.000317 0.000778 -0.001356
Al -0.013950 3.595364 -2.726253 0.000129 0.000673 0.002358
Al 3.088282 -1.840916 2.381934 0.025088 -0.005343 0.004681
Al 3.138124 -1.875013 7.536807 0.001361 0.004317 0.000492
Ga 3.145011 -1.858605 -2.731480 -0.000471 0.000879 0.002620
Al -4.779113 0.875709 2.423354 0.004882 -0.000109 0.000374
Al -4.788050 0.877107 7.504793 0.000322 0.001099 0.000012
Al -4.782791 0.872246 -2.710562 0.000706 -0.001692 -0.000194
Ga -6.359659 3.589212 2.440489 -0.000350 0.001553 0.000243
Al -6.358672 3.600753 7.511128 -0.000608 -0.000157 -0.000697
Ga -6.359539 3.601708 -2.730096 0.000493 -0.000392 0.001672
Ga -3.198445 -1.872865 2.411145 -0.000678 0.001255 0.000441
Ga -3.182908 -1.866049 7.515580 0.000591 -0.000246 -0.000719
Ga -3.186080 -1.871628 -2.709987 -0.000684 0.000690 0.000363
Ga -1.607377 0.894980 2.413368 0.000302 -0.000893 0.000125
Al -1.599472 0.886120 7.490220 0.001087 -0.001153 -0.000842
Ga -1.599132 0.888480 -2.688905 0.001550 -0.000642 0.000699
Al -3.181086 3.610803 2.448791 0.000790 -0.001690 -0.001986
Ga -3.195699 3.626582 7.504269 0.000818 -0.001073 -0.001342
Ga -3.189384 3.618301 -2.724603 0.001091 0.000142 0.001518
Ga -0.000747 -1.859753 2.424104 -0.003710 0.000505 0.000260
Al -0.018300 -1.857752 7.507545 -0.001640 -0.000494 0.000298
Al -0.006116 -1.854938 -2.710810 0.001325 0.001269 -0.000564
Al -0.022612 1.797683 4.977303 -0.001436 -0.001795 -0.000934
Al -0.010521 1.796961 -5.274301 0.000365 -0.001220 0.000216
Al -0.011090 1.777312 -0.161440 -0.001250 0.001025 0.005821
Al 3.150139 -3.694567 4.947662 -0.001263 -0.000305 0.000264
Al 3.167637 -3.687271 -5.265236 -0.000539 0.000714 -0.000934
Ga 3.168358 -3.708722 -0.126607 -0.001682 0.001798 0.001258
Ga 1.573692 -0.955521 4.985656 -0.003740 0.003455 0.001269
Al 1.570036 -0.955274 -5.286139 -0.001324 0.000787 0.001657
Al 1.564565 -0.945224 -0.168330 -0.000803 0.000608 0.002736
Al 3.130452 1.797825 4.982935 0.000703 -0.001161 -0.001389
Al 3.127676 1.776616 -5.278778 0.000633 -0.000258 0.001220
Ga 3.130151 1.760126 -0.141134 0.000592 0.001026 -0.000072
Al 6.297938 -3.705084 4.987289 0.001370 0.001223 -0.000679
Al 6.300089 -3.711311 -5.281843 0.000243 0.001770 0.001144
Al 6.292772 -3.693299 -0.157392 0.000191 -0.000759 0.005054
Ga 4.717251 -0.954528 4.967185 0.001819 0.003443 -0.000672
Al 4.714352 -0.950833 -5.274142 -0.000219 0.001051 0.000801
Al 4.734458 -0.945314 -0.156002 -0.001091 0.000217 0.007155
Al -3.197277 1.794665 4.974356 0.000148 -0.001083 -0.001210
Ga -3.196967 1.789212 -5.281986 -0.000129 -0.001283 0.001888
Al -3.195932 1.776342 -0.146204 0.000355 0.000538 0.005485
Al -0.033710 -3.689722 4.980401 0.000177 -0.001245 -0.000970
Al -0.028353 -3.678010 -5.276203 0.001130 -0.000278 0.002092
Ga -0.020722 -3.675687 -0.142532 0.000548 -0.001542 0.001306
Al -1.597642 -0.946312 4.986556 -0.001434 0.002104 -0.000429
Ga -1.582442 -0.953076 -5.268627 -0.000768 0.000935 0.001696
Al -1.597842 -0.948661 -0.171084 -0.000893 0.000828 0.005187
N 1.550560 0.920683 4.346331 0.001254 -0.001326 -0.000336
N 1.552465 0.874939 -5.875548 0.000899 -0.000555 -0.000298
N 1.520227 0.847943 -0.805634 -0.001053 -0.002137 -0.001036
N -0.019755 3.603869 4.355907 -0.001054 0.001532 0.000865
N -0.022412 3.604602 -5.889033 -0.000358 0.000277 -0.000158
N 0.018051 3.577381 -0.794739 0.000602 -0.000271 -0.002840
N 3.140970 -1.897080 4.299407 -0.002173 -0.003631 0.000726
N 3.149353 -1.871633 -5.855231 -0.000396 -0.000255 -0.002053
N 3.150967 -1.833775 -0.742017 -0.000675 0.002499 0.000911
N -4.775272 0.923639 4.343451 -0.000483 0.000351 0.000428
N -4.811855 0.855179 -5.901460 -0.000731 -0.001156 -0.000258
N -4.735518 0.852255 -0.788122 0.001559 -0.001415 -0.001761
N -6.358632 3.612907 4.414611 -0.000164 -0.000285 0.002066
N -6.345722 3.603442 -5.872532 -0.000506 0.000121 -0.000427
N -6.385446 3.623324 -0.753080 -0.001795 0.000907 -0.000271
N -3.141409 -1.887186 4.394116 0.000062 -0.002233 0.001811
N -3.212952 -1.886423 -5.831579 -0.001478 -0.001674 0.000464
N -3.184042 -1.871399 -0.722231 0.000236 0.000283 0.000868
N -1.612844 0.883799 4.402923 0.001786 -0.001069 0.002323
N -1.565063 0.904981 -5.911396 0.001144 -0.000401 -0.001021
N -1.609928 0.885701 -0.705523 0.001893 -0.001308 0.000683
N -3.199653 3.611523 4.375435 0.002438 0.001859 0.001035
N -3.179847 3.665495 -5.842134 -0.001467 0.001031 0.001573
N -3.184846 3.571539 -0.754388 0.000443 -0.001393 -0.000360
N -0.058916 -1.879348 4.392792 0.001436 -0.000332 0.001539
N 0.017329 -1.886744 -5.898388 0.002222 -0.000429 -0.001272
N -0.014237 -1.820840 -0.789835 0.001398 0.001929 0.000205
N 0.025034 1.809242 1.788150 0.000564 -0.000321 -0.004896
N -0.017215 1.787679 6.897793 -0.000702 0.000124 -0.000625
N 0.014888 1.805079 -3.349794 0.000081 0.000332 -0.001442
N 3.137450 -3.671349 1.864851 0.002690 -0.007880 0.000312
N 3.183211 -3.660631 6.884500 0.001122 -0.000724 -0.004489
N 3.193602 -3.711867 -3.359039 0.000476 -0.001938 0.000361
N 1.606564 -0.925562 1.780064 -0.011962 0.006619 -0.008581
N 1.562877 -0.947576 6.970542 0.002814 -0.002775 -0.001797
N 1.531209 -0.935029 -3.361683 -0.003200 0.001293 0.000147
N 3.135099 1.732144 1.838426 -0.000216 -0.000169 -0.002657
N 3.129375 1.783785 6.906976 -0.000182 -0.000094 -0.001067
N 3.136728 1.737145 -3.350085 0.000187 -0.001208 -0.000784
N 6.263986 -3.725930 1.776622 0.000119 0.001249 -0.005379
N 6.298716 -3.736285 6.900376 -0.000161 -0.001744 -0.000856
N 6.266257 -3.712717 -3.369164 -0.001223 -0.001338 -0.001635
N 4.693062 -0.915673 1.789141 -0.006582 -0.002692 -0.003851
N 4.684450 -0.927875 6.939228 -0.004805 -0.001822 -0.000579
N 4.729584 -0.908356 -3.362875 -0.000136 0.002777 -0.000540
N -3.228288 1.818588 1.795939 -0.002801 -0.000268 -0.003084
N -3.198920 1.748288 6.892272 0.000226 -0.000712 -0.000695
N -3.227868 1.761686 -3.313868 -0.001129 -0.000843 -0.000220
N 0.013638 -3.717865 1.831867 0.001472 0.001214 -0.000454
N -0.072126 -3.664210 6.891628 0.000335 0.000693 -0.000473
N -0.026854 -3.636510 -3.352891 0.000110 0.000454 -0.003746
N -1.597504 -0.952654 1.758146 0.000693 -0.000122 -0.006228
N -1.564030 -0.928005 6.898699 0.000605 0.001657 -0.000541
N -1.560401 -0.966902 -3.299256 0.000980 -0.000056 0.000960
