108
Energy=-528215.296059 Lattice="9.408593 0.000000 0.000000 -4.710760 8.145570 0.000000 -0.002151 -0.001508 15.082967" Stress="-0.000000 -0.000001 -0.000000 -0.000001 -0.000001 -0.000001 -0.000000 -0.000001 0.000001" Properties=species:S:1:pos:R:3:forces:R:3
Al 1.545714 0.863299 2.366850 0.000499 0.000078 0.000150
Al 1.540879 0.864884 7.391959 0.000462 -0.000039 0.000030
Al 1.544211 0.864667 -2.670826 0.000433 0.000024 0.000015
Al -0.023016 3.578773 2.367292 0.000312 0.000145 0.000028
Al -0.025541 3.576896 7.392280 0.000114 -0.000023 -0.000007
Al -0.025102 3.582336 -2.670139 0.000124 -0.000018 0.000111
Al 3.109837 -1.856715 2.381676 0.000126 0.000142 0.000174
Al 3.117680 -1.850569 7.391625 0.000220 -0.000093 -0.000063
Al 3.111323 -1.852416 -2.679551 0.000275 -0.000085 -0.000179
Al -4.726223 0.871708 2.382720 -0.000382 0.000791 -0.000057
Al -4.730478 0.863956 7.392087 0.000309 0.000021 -0.000190
Al -4.729898 0.873394 -2.680827 0.000258 0.000167 -0.000181
Al -6.303133 3.575236 2.382195 -0.000783 -0.000172 0.000094
Al -6.297943 3.580914 7.391828 0.000018 0.000014 -0.000276
Al -6.303902 3.579090 -2.679720 0.000066 0.000136 -0.000240
Al -3.148284 -1.853676 2.383042 0.000390 -0.000353 -0.000285
Al -3.157795 -1.849051 7.391805 0.000062 -0.000055 -0.000150
Al -3.150764 -1.850699 -2.679580 0.000023 -0.000077 -0.000271
Al -1.592693 0.866644 2.368544 0.000409 -0.000201 -0.000126
Al -1.593329 0.868154 7.392416 0.000436 -0.000275 -0.000027
Al -1.595581 0.868024 -2.670270 0.000468 -0.000232 -0.000048
Al -3.152789 3.576367 2.383900 -0.001312 0.000685 -0.000620
Al -3.164344 3.582784 7.392024 0.000121 -0.000270 -0.000212
Al -3.157415 3.580864 -2.680027 -0.000003 -0.000120 -0.000269
Al -0.020898 -1.839555 2.383702 0.000265 -0.000244 -0.000218
Al -0.021442 -1.848961 7.391841 0.000251 -0.000377 -0.000147
Al -0.021074 -1.839704 -2.680361 0.000222 -0.000503 -0.000019
Al -0.023932 1.767970 4.877708 -0.000180 0.000366 0.000242
Al -0.023569 1.769938 -5.178586 -0.000209 0.000382 0.000155
Al -0.024566 1.770227 -0.155549 -0.000287 0.000407 0.000214
Al 3.119565 -3.663585 4.888246 -0.000071 0.000406 -0.000201
Al 3.119843 -3.660845 -5.185722 -0.000131 0.000331 -0.000188
Al 3.119559 -3.666644 -0.149363 0.000338 0.000289 -0.000212
Al 1.549104 -0.945127 4.888005 -0.000409 0.000232 -0.000180
Al 1.550350 -0.943820 -5.186038 -0.000449 0.000273 -0.000128
Al 1.542520 -0.937883 -0.149682 -0.000081 0.000148 -0.000014
Al 3.109639 1.769111 4.887193 -0.000218 0.000167 -0.000170
Al 3.110269 1.770935 -5.186373 -0.000123 0.000080 -0.000086
Al 3.103338 1.770275 -0.153676 -0.001353 0.001127 0.001717
Al 6.251915 -3.661910 4.887816 0.000073 -0.000029 -0.000292
Al 6.252509 -3.659162 -5.185755 0.000012 0.000009 -0.000217
Al 6.247450 -3.664820 -0.149529 0.000191 0.000005 0.000041
Al 4.684605 -0.945187 4.879960 -0.000307 -0.000086 -0.000213
Al 4.685419 -0.943487 -5.179261 -0.000336 -0.000041 -0.000186
Ga 4.681769 -0.941317 -0.146587 0.000020 -0.000287 0.000002
Al -3.160162 1.770743 4.887936 -0.000189 0.000111 -0.000067
Al -3.160153 1.772531 -5.186717 -0.000214 0.000121 0.000004
Al -3.156014 1.773117 -0.152622 0.000338 0.000450 0.001105
Al -0.019948 -3.658999 4.879816 -0.000170 0.000130 -0.000254
Al -0.019407 -3.657074 -5.180113 -0.000121 0.000060 -0.000270
Ga -0.022019 -3.657408 -0.148252 -0.000204 0.000252 0.000726
Al -1.587991 -0.941838 4.888190 -0.000386 -0.000042 -0.000175
Al -1.587726 -0.940486 -5.186294 -0.000426 0.000008 -0.000079
Al -1.586188 -0.934392 -0.149830 -0.000307 -0.000211 0.000315
N 1.543790 0.863212 4.285067 0.000448 0.000076 -0.000077
N 1.541594 0.866752 -5.777718 0.000421 0.000037 0.000002
N 1.542727 0.865279 -0.750392 0.000302 -0.000019 0.000076
N -0.024945 3.579793 4.284940 0.000117 -0.000159 0.000014
N -0.024371 3.578852 -5.777504 0.000107 -0.000185 0.000036
N -0.026611 3.582622 -0.748923 0.000052 -0.000293 -0.000132
N 3.112610 -1.853671 4.294734 0.000199 -0.000206 0.000222
N 3.118531 -1.848579 -5.776746 0.000275 -0.000199 0.000221
N 3.072734 -1.872323 -0.767089 0.000015 -0.000445 0.000113
N -4.729569 0.869757 4.295406 0.000449 0.000023 0.000133
N -4.729441 0.865580 -5.776165 0.000365 0.000113 0.000062
N -4.733943 0.920598 -0.767164 0.001754 -0.001434 -0.000768
N -6.302069 3.577875 4.294929 -0.000020 -0.000082 0.000327
N -6.296545 3.582705 -5.777096 -0.000022 -0.000002 0.000246
N -6.341380 3.558589 -0.769725 -0.000091 -0.000105 0.000073
N -3.152212 -1.852352 4.295308 0.000109 0.000006 0.000253
N -3.156729 -1.847399 -5.776690 0.000142 -0.000071 0.000210
N -3.116851 -1.870839 -0.767397 0.000406 -0.000139 0.000279
N -1.595396 0.866603 4.285796 0.000474 -0.000156 -0.000067
N -1.592198 0.870057 -5.777473 0.000441 -0.000211 -0.000062
N -1.596505 0.868695 -0.749510 0.000350 -0.000156 -0.000138
N -3.158092 3.580020 4.295861 0.000011 -0.000396 0.000047
N -3.163071 3.584950 -5.776800 0.000083 -0.000395 0.000176
N -3.123200 3.561151 -0.769939 0.000178 -0.000515 0.000368
N -0.021188 -1.842662 4.295692 0.000246 -0.000491 0.000240
N -0.020442 -1.847079 -5.776788 0.000208 -0.000425 0.000149
N -0.023126 -1.798008 -0.769774 0.000205 -0.000402 0.000109
N -0.022204 1.768087 1.768606 -0.000170 0.000308 -0.000105
N -0.024304 1.768053 6.793685 -0.000239 0.000417 -0.000110
N -0.023730 1.769958 -3.260258 -0.000275 0.000400 -0.000064
N 3.119695 -3.662761 1.771690 -0.000639 0.000376 0.000077
N 3.118366 -3.662773 6.801154 -0.000097 0.000339 0.000091
N 3.120456 -3.661554 -3.273766 -0.000013 0.000355 0.000141
N 1.550339 -0.948106 1.771496 -0.000630 0.000267 0.000055
N 1.549441 -0.946151 6.801175 -0.000407 0.000236 0.000033
N 1.549969 -0.942463 -3.274021 -0.000375 0.000269 0.000044
N 3.114707 1.769205 1.772351 -0.000300 0.000070 -0.000679
N 3.110028 1.769469 6.800632 -0.000127 0.000044 0.000172
N 3.108596 1.770588 -3.274275 -0.000116 -0.000120 0.000146
N 6.256113 -3.660120 1.772008 -0.000584 0.000094 0.000034
N 6.251719 -3.660695 6.800810 0.000014 -0.000006 0.000169
N 6.250655 -3.659520 -3.273954 -0.000111 0.000040 0.000189
N 4.684761 -0.945468 1.834653 -0.000038 -0.000232 -0.000430
N 4.684487 -0.944949 6.795662 -0.000324 -0.000106 0.000102
N 4.684886 -0.943089 -3.261214 -0.000337 -0.000054 0.000257
N -3.159292 1.771178 1.772966 -0.000633 0.000176 -0.000790
N -3.161385 1.770752 6.801130 -0.000276 0.000162 0.000154
N -3.158870 1.771842 -3.274314 -0.000340 -0.000056 0.000271
N -0.024484 -3.657140 1.836229 0.002650 -0.000787 -0.000831
N -0.020438 -3.659053 6.795567 -0.000091 0.000090 0.000223
N -0.020017 -3.657322 -3.262517 -0.000080 0.000093 0.000255
N -1.586752 -0.943758 1.773052 -0.000842 0.000079 -0.000370
N -1.588473 -0.942883 6.801196 -0.000482 0.000012 0.000110
N -1.588100 -0.939095 -3.274250 -0.000545 0.000041 0.000137
