108
Energy=-4.824398e+05 Lattice="9.403150e+00 0.000000e+00 0.000000e+00 -4.720524e+00 8.121129e+00 0.000000e+00 3.398689e-02 8.680605e-03 1.511106e+01" Stress="-3.142060e-04 -1.057458e-03 1.556615e-03 -1.057890e-03 -4.571365e-03 2.706242e-04 1.551334e-03 2.705706e-04 5.376317e-03" Properties=species:S:1:pos:R:3:forces:R:3 Config_type=AlGaN_super3_1_0_7.xyz
Al 1.549395e+00 8.622098e-01 2.372774e+00 2.176857e-03 3.123393e-04 5.758590e-04
Al 1.553889e+00 8.621544e-01 7.406515e+00 1.449832e-03 1.212014e-03 6.850680e-04
Al 1.523904e+00 8.547696e-01 -2.672807e+00 1.378652e-03 1.033507e-03 5.753256e-04
Al -1.975919e-02 3.568137e+00 2.374147e+00 2.372675e-04 1.685359e-03 5.581188e-04
Al -1.479039e-02 3.569021e+00 7.406378e+00 6.527262e-04 1.556721e-04 4.419330e-04
Al -4.362640e-02 3.562064e+00 -2.672671e+00 6.771728e-04 1.720627e-04 4.378223e-04
Al 3.131242e+00 -1.843402e+00 2.378027e+00 5.881467e-04 -5.392324e-04 -3.856998e-04
Al 3.137188e+00 -1.842097e+00 7.406372e+00 8.964976e-04 -5.185008e-04 7.360467e-04
Al 3.107618e+00 -1.847967e+00 -2.676253e+00 8.311289e-04 -5.776147e-04 9.714814e-05
Al -4.717852e+00 8.645009e-01 2.375629e+00 3.206639e-04 7.377644e-04 -8.593934e-04
Al -4.715563e+00 8.671698e-01 7.407950e+00 8.194704e-04 1.019027e-03 9.312799e-05
Al -4.744091e+00 8.603186e-01 -2.673100e+00 9.515233e-04 8.597085e-04 -4.570602e-04
Al -6.288309e+00 3.575211e+00 2.375696e+00 -3.990511e-05 4.206523e-06 -1.251073e-03
Al -6.283033e+00 3.574388e+00 7.407926e+00 2.632971e-05 5.077767e-05 -1.174430e-04
Al -6.311925e+00 3.568871e+00 -2.673127e+00 -5.608245e-05 1.695944e-04 -7.186538e-04
Al -3.147899e+00 -1.841999e+00 2.387249e+00 2.516622e-03 9.441177e-04 8.631634e-05
Al -3.131515e+00 -1.836319e+00 7.406952e+00 2.921424e-04 -5.739252e-04 1.733649e-04
Al -3.166994e+00 -1.846600e+00 -2.682560e+00 1.035118e-03 -2.223486e-04 -3.582441e-04
Al -1.580585e+00 8.755397e-01 2.381545e+00 -1.414853e-03 4.140791e-03 2.697083e-03
Al -1.581889e+00 8.722017e-01 7.406866e+00 5.036907e-04 -2.455122e-04 3.205508e-04
Al -1.612714e+00 8.681588e-01 -2.682564e+00 8.893563e-04 2.109775e-04 1.395353e-03
Al -3.155905e+00 3.576406e+00 2.375100e+00 -6.055423e-04 -5.120391e-04 -6.332873e-04
Al -3.150186e+00 3.580178e+00 7.407892e+00 -4.121171e-04 -1.124263e-03 9.752928e-05
Al -3.179883e+00 3.572393e+00 -2.673411e+00 -3.014557e-04 -1.220230e-03 -3.809321e-04
Al 5.129680e-03 -1.833053e+00 2.391936e+00 -1.231364e-04 -2.402859e-03 -6.451666e-04
Al 1.227511e-03 -1.831137e+00 7.406708e+00 -2.478954e-04 -1.781871e-03 3.801402e-04
Al -2.194547e-02 -1.841701e+00 -2.682938e+00 -1.092628e-03 -1.266290e-03 -1.683321e-04
Al -1.282780e-02 1.761369e+00 4.890072e+00 1.725980e-04 1.735776e-03 1.345277e-03
Al -4.345674e-02 1.753521e+00 -5.190115e+00 1.569496e-04 1.772351e-03 6.874645e-04
Al -2.552538e-02 1.769946e+00 -1.457045e-01 -7.639127e-04 -1.303420e-04 -8.540932e-04
Al 3.138267e+00 -3.651422e+00 4.893209e+00 1.545513e-04 1.072549e-03 -2.884642e-04
Al 3.107240e+00 -3.658581e+00 -5.188710e+00 3.823365e-04 1.083239e-03 -8.663954e-07
Al 3.115272e+00 -3.652610e+00 -1.517045e-01 9.999857e-04 7.100381e-04 2.805680e-04
Al 1.572290e+00 -9.416157e-01 4.897131e+00 -5.746578e-04 2.247544e-04 -7.853246e-05
Al 1.539850e+00 -9.491322e-01 -5.190902e+00 -4.745865e-04 2.257192e-04 1.428257e-04
Al 1.557338e+00 -9.491319e-01 -1.520018e-01 -7.418744e-04 1.536721e-03 1.457654e-03
Al 3.119734e+00 1.766117e+00 4.890886e+00 -2.669036e-04 6.059129e-04 6.051337e-05
Al 3.088104e+00 1.758482e+00 -5.189250e+00 -2.426401e-04 5.773640e-04 5.028603e-04
Al 3.100140e+00 1.762465e+00 -1.536903e-01 -3.666832e-04 7.468310e-04 3.249852e-04
Al 6.270329e+00 -3.646534e+00 4.895832e+00 -5.147920e-05 -6.930736e-05 -4.002509e-04
Al 6.239826e+00 -3.654174e+00 -5.190691e+00 -3.666151e-05 -9.911402e-05 -2.132916e-04
Al 6.245017e+00 -3.653959e+00 -1.506376e-01 1.209571e-03 -1.743823e-04 2.627093e-05
Al 4.702067e+00 -9.371157e-01 4.896079e+00 -9.364623e-04 -9.657441e-04 -1.609546e-04
Al 4.670783e+00 -9.440046e-01 -5.190608e+00 -8.320694e-04 -9.713851e-04 -1.049556e-04
Al 4.669961e+00 -9.419101e-01 -1.508066e-01 3.967176e-04 -2.567509e-04 7.996883e-05
Al -3.148680e+00 1.771276e+00 4.892358e+00 -1.060185e-03 4.243272e-04 7.918864e-04
Al -3.181579e+00 1.764212e+00 -5.192783e+00 -8.994823e-04 3.990341e-04 6.593512e-04
Al -3.178232e+00 1.777680e+00 -1.447369e-01 2.055053e-03 -1.624416e-03 -3.268940e-03
Al 3.380076e-03 -3.641804e+00 4.893926e+00 -8.461013e-04 -2.519556e-04 1.986171e-04
Al -2.860786e-02 -3.648581e+00 -5.191801e+00 -7.501271e-04 -2.666887e-04 1.594796e-04
Al -1.131788e-02 -3.650364e+00 -1.529269e-01 -1.940502e-03 -5.798946e-05 6.816164e-04
Al -1.565324e+00 -9.316424e-01 4.892039e+00 -1.627348e-03 -1.148598e-03 -5.084476e-04
Al -1.596986e+00 -9.393852e-01 -5.189652e+00 -1.539863e-03 -1.141637e-03 4.013009e-04
Ga -1.586895e+00 -9.401774e-01 -1.428940e-01 -6.859814e-04 1.765115e-03 1.520591e-03
N 1.552370e+00 8.610107e-01 4.293526e+00 1.170741e-03 1.034047e-03 -7.840790e-04
N 1.520686e+00 8.542487e-01 -5.787148e+00 1.422187e-03 1.040266e-03 -6.268905e-04
N 1.530256e+00 8.568421e-01 -7.502600e-01 1.618390e-03 1.049720e-03 1.337989e-04
N -1.599038e-02 3.570600e+00 4.293941e+00 4.312291e-04 -9.809933e-05 -4.417468e-04
N -4.745708e-02 3.562086e+00 -5.787732e+00 3.721686e-04 2.243031e-05 -1.953319e-04
N -3.698393e-02 3.569358e+00 -7.503415e-01 6.479972e-05 1.181661e-04 -3.295624e-04
N 3.134925e+00 -1.842075e+00 4.294512e+00 7.873326e-04 -2.938482e-04 4.264464e-04
N 3.103864e+00 -1.849836e+00 -5.788279e+00 7.177306e-04 -4.650465e-04 8.791957e-05
N 3.111861e+00 -1.845504e+00 -7.587756e-01 1.000991e-03 -9.411915e-04 1.383394e-03
N -4.716587e+00 8.651801e-01 4.292798e+00 9.941723e-04 1.169406e-03 -3.565824e-04
N -4.749445e+00 8.582425e-01 -5.787397e+00 1.018784e-03 1.266238e-03 -5.273834e-04
N -4.739356e+00 8.616230e-01 -7.547696e-01 1.515087e-03 9.147357e-04 1.054893e-03
N -6.285020e+00 3.575069e+00 4.292644e+00 9.999794e-05 3.247480e-05 1.448264e-04
N -6.315962e+00 3.566186e+00 -5.787557e+00 2.135862e-04 7.547189e-05 -1.060481e-04
N -6.306340e+00 3.571908e+00 -7.555925e-01 3.214110e-04 2.176466e-04 1.720577e-03
N -3.137253e+00 -1.839339e+00 4.300357e+00 3.477261e-05 -3.609714e-04 7.634718e-04
N -3.165247e+00 -1.844918e+00 -5.787086e+00 4.516744e-04 -1.816837e-04 1.116888e-04
N -3.195020e+00 -1.862504e+00 -7.715348e-01 -8.963595e-04 -8.189172e-04 1.040391e-03
N -1.584151e+00 8.747595e-01 4.300367e+00 4.619076e-04 4.078949e-04 -9.865511e-04
N -1.615349e+00 8.642124e-01 -5.786205e+00 4.884812e-04 -9.436584e-05 -8.259311e-04
N -1.599431e+00 9.155032e-01 -7.704297e-01 -1.780244e-03 8.436384e-04 1.020828e-03
N -3.152239e+00 3.579298e+00 4.292543e+00 -3.616239e-04 -1.278189e-03 -4.041019e-04
N -3.182764e+00 3.573175e+00 -5.787808e+00 -2.380891e-04 -1.160344e-03 -4.916402e-04
N -3.174413e+00 3.577103e+00 -7.561632e-01 4.613439e-04 -1.156284e-03 8.890975e-04
N 4.063323e-03 -1.833456e+00 4.302621e+00 -2.053515e-04 -1.576413e-03 6.040709e-04
N -3.233857e-02 -1.838782e+00 -5.787054e+00 2.215824e-05 -1.495313e-03 -2.972892e-04
N 1.550709e-02 -1.858435e+00 -7.731465e-01 1.470442e-03 -2.251743e-03 7.653923e-04
N -1.426798e-02 1.764671e+00 1.778211e+00 -1.483077e-04 5.724596e-04 -1.655874e-03
N -1.115779e-02 1.760800e+00 6.809182e+00 2.130468e-04 1.500382e-03 -5.328555e-04
N -4.040062e-02 1.754298e+00 -3.272378e+00 7.853591e-04 1.705347e-03 -1.218002e-03
N 3.132446e+00 -3.651535e+00 1.774712e+00 2.202400e-05 7.699432e-04 -1.173161e-03
N 3.138855e+00 -3.651622e+00 6.809731e+00 5.251657e-04 1.383091e-03 -6.807209e-04
N 3.109352e+00 -3.658791e+00 -3.271437e+00 6.699785e-04 1.381785e-03 2.973947e-04
N 1.568425e+00 -9.437900e-01 1.776724e+00 -1.353942e-03 3.644535e-04 -2.088756e-03
N 1.572272e+00 -9.418715e-01 6.812471e+00 -2.780918e-04 1.553416e-04 -8.941843e-04
N 1.543386e+00 -9.483846e-01 -3.275938e+00 1.371831e-04 6.141657e-04 -3.875488e-04
N 3.118146e+00 1.765363e+00 1.771654e+00 -8.423607e-04 7.147162e-04 -9.982630e-05
N 3.121370e+00 1.767087e+00 6.808568e+00 -3.295509e-04 7.949709e-05 -3.237844e-04
N 3.091092e+00 1.760466e+00 -3.271252e+00 -2.277780e-04 -3.133681e-05 5.546888e-04
N 6.264886e+00 -3.644031e+00 1.773671e+00 3.565096e-04 -2.518982e-04 -4.330703e-04
N 6.272259e+00 -3.645779e+00 6.811221e+00 -1.208200e-04 -1.148115e-06 -6.083148e-05
N 6.241942e+00 -3.654630e+00 -3.275748e+00 2.680791e-05 -2.418026e-04 3.702270e-04
N 4.696528e+00 -9.399548e-01 1.773293e+00 -8.749470e-04 -5.809712e-04 -6.918727e-04
N 4.704215e+00 -9.357973e-01 6.811275e+00 -9.811737e-04 -1.160289e-03 -4.132422e-04
N 4.672518e+00 -9.425698e-01 -3.276078e+00 -9.794476e-04 -6.915917e-04 3.072800e-05
N -3.150801e+00 1.767316e+00 1.766439e+00 -1.212674e-03 8.569791e-04 3.033261e-03
N -3.147985e+00 1.771573e+00 6.810052e+00 -7.426640e-04 2.375631e-04 -4.687350e-05
N -3.179490e+00 1.765138e+00 -3.277148e+00 -8.312504e-04 2.980039e-04 2.999428e-04
N -2.094756e-03 -3.639259e+00 1.772297e+00 -8.376241e-04 -4.441843e-05 1.356629e-04
N 3.498352e-03 -3.641371e+00 6.810047e+00 -3.942221e-04 8.795785e-05 9.722458e-05
N -2.565232e-02 -3.649813e+00 -3.276894e+00 -3.685749e-04 -2.129608e-04 3.753134e-04
N -1.562932e+00 -9.180961e-01 1.849045e+00 -4.183791e-03 -8.645080e-03 -4.711515e-03
N -1.563983e+00 -9.319519e-01 6.809910e+00 -1.359725e-03 -9.961023e-04 -4.526388e-04
N -1.594209e+00 -9.398037e-01 -3.271286e+00 -1.166672e-03 -1.328467e-03 7.871811e-05
