108
Energy=-2221908.245663 Lattice="9.618438 0.000000 0.000000 -4.812275 8.321655 0.000000 -0.036309 -0.020125 15.585886" Stress="0.000001 -0.000001 -0.000006 -0.000001 -0.000001 -0.000004 -0.000006 -0.000004 0.000000" Properties=species:S:1:pos:R:3:forces:R:3
Al 1.543577 0.889144 2.470580 0.000387 -0.000359 0.000094
Al 1.548751 0.884725 7.622405 0.000306 0.000074 0.000003
Ga 1.604036 0.893692 -2.744020 0.000388 -0.000562 -0.000260
Al -0.038143 3.638178 2.456039 0.000239 -0.000122 -0.000144
Al -0.048006 3.628894 7.639079 0.000260 -0.000268 0.000395
Ga -0.014003 3.675826 -2.745553 0.000122 -0.000254 0.000368
Ga 3.159164 -1.901314 2.463391 -0.000039 -0.000211 0.000260
Ga 3.173788 -1.893798 7.631959 0.000252 -0.000065 0.000213
Al 3.201122 -1.898426 -2.747490 0.000183 -0.000269 0.000632
Ga -4.867466 0.884517 2.480646 0.000329 -0.000420 -0.000239
Al -4.851287 0.869998 7.615782 0.000428 0.000172 -0.000147
Ga -4.830735 0.896142 -2.744986 0.000497 -0.000457 -0.000347
Al -6.471189 3.650278 2.466060 0.000076 -0.000155 -0.000130
Ga -6.467040 3.633578 7.633527 0.000086 0.000121 -0.000065
Al -6.422217 3.660823 -2.746740 0.000130 -0.000104 0.000043
Ga -3.248584 -1.909553 2.472508 0.000088 -0.000263 -0.000359
Ga -3.259203 -1.890354 7.629423 0.000297 -0.000203 -0.000168
Ga -3.211810 -1.889855 -2.743224 0.000173 -0.000146 -0.000368
Ga -1.634010 0.891072 2.491863 0.000579 -0.000547 -0.000241
Al -1.642701 0.892722 7.604852 0.000343 -0.000165 -0.000262
Ga -1.609992 0.895595 -2.742970 0.000532 -0.000673 0.000008
Ga -3.251380 3.660275 2.455035 0.000401 -0.000121 0.000633
Ga -3.239811 3.634662 7.639913 0.000236 -0.000248 0.000039
Ga -3.207058 3.681123 -2.747538 0.000531 -0.000309 -0.000173
Al -0.043819 -1.894513 2.458325 0.000054 -0.000513 -0.000154
Ga -0.039713 -1.882682 7.644665 0.000348 -0.000430 0.000074
Ga -0.000710 -1.884057 -2.740021 0.000390 -0.000388 -0.000456
Al -0.046463 1.807954 5.055651 -0.000038 0.000174 0.000116
Ga -0.013778 1.823612 -5.384238 -0.000368 0.000242 0.000492
Ga -0.003119 1.822466 -0.117640 -0.002048 0.000302 -0.000224
Ga 3.180819 -3.766127 5.046925 -0.000350 0.000309 0.000181
Al 3.209499 -3.728728 -5.357831 0.000058 0.000140 0.000231
Al 3.205187 -3.731797 -0.135986 -0.000182 0.000435 0.000124
Ga 1.562231 -0.961083 5.038963 -0.000889 0.000326 0.000061
Ga 1.613066 -0.960202 -5.346229 -0.000587 0.000702 -0.000368
Ga 1.615924 -0.971139 -0.127251 -0.002263 0.000213 0.000197
Ga 3.158060 1.789076 5.048775 -0.000150 0.000209 0.000020
Ga 3.197080 1.813044 -5.367696 -0.000037 -0.000021 0.000259
Ga 3.199885 1.822145 -0.119085 -0.001893 -0.000230 0.000605
Ga 6.351766 -3.759761 5.040858 0.000213 0.000166 -0.000038
Ga 6.393628 -3.736968 -5.348400 0.000032 0.000091 -0.000027
Ga 6.408731 -3.744381 -0.129268 -0.001925 -0.000348 0.000772
Al 4.770607 -0.961110 5.062195 -0.000199 -0.000091 0.000011
Ga 4.793846 -0.958722 -5.344766 -0.000237 0.000396 -0.000131
Ga 4.798649 -0.973509 -0.150532 -0.002155 0.000063 -0.000561
Al -3.248642 1.791776 5.071002 -0.000249 -0.000022 -0.000267
Ga -3.210469 1.818293 -5.375387 -0.000212 0.000130 0.000280
Ga -3.203676 1.821355 -0.136193 -0.002174 -0.000134 -0.000803
Ga -0.040762 -3.751112 5.030012 -0.000322 0.000327 0.000069
Ga 0.000220 -3.732813 -5.332687 -0.000027 0.000077 -0.000176
Ga -0.002470 -3.736867 -0.134688 -0.002016 -0.000172 0.000709
Ga -1.646515 -0.958299 5.051108 -0.000372 0.000062 -0.000253
Ga -1.608663 -0.942804 -5.364082 -0.000515 0.000388 -0.000374
Ga -1.598067 -0.956940 -0.112611 -0.002501 -0.000130 -0.000782
N 1.509606 0.905081 4.391321 0.000329 -0.000028 -0.000026
N 1.591653 0.891957 -6.042849 0.000389 -0.000414 -0.000004
N 1.597912 0.889617 -0.765653 0.000398 -0.000311 0.000207
N -0.047276 3.595954 4.374034 -0.000172 -0.000084 -0.000200
N -0.050237 3.691426 -6.021070 -0.000121 -0.000023 -0.000335
N -0.050065 3.687855 -0.756757 -0.000111 -0.000135 -0.000830
N 3.207586 -1.877626 4.444934 0.000529 -0.000242 -0.000075
N 3.203931 -1.926840 -5.975838 0.000173 -0.000493 0.000028
N 3.199309 -1.939644 -0.811368 0.000213 -0.000602 -0.000327
N -4.811683 0.854437 4.464139 0.000539 0.000222 0.000017
N -4.817980 0.889850 -6.045816 0.000317 -0.000278 -0.000069
N -4.819248 0.893438 -0.769482 0.000400 -0.000134 0.000215
N -6.461630 3.646532 4.377333 0.000017 -0.000136 -0.000025
N -6.420300 3.670998 -5.984667 -0.000026 0.000035 0.000030
N -6.418950 3.660532 -0.824674 -0.000019 -0.000044 0.000597
N -3.291847 -1.874149 4.450843 0.000096 -0.000059 0.000076
N -3.216964 -1.878950 -5.980881 0.000115 -0.000307 0.000177
N -3.201683 -1.886916 -0.764970 0.000287 -0.000209 0.000413
N -1.647476 0.934083 4.474701 0.000316 -0.000140 0.000395
N -1.613625 0.900459 -6.062423 0.000687 -0.000342 -0.000179
N -1.604811 0.891412 -0.767290 0.000704 -0.000268 0.000074
N -3.247661 3.598952 4.438797 0.000412 -0.000371 -0.000108
N -3.172779 3.696117 -5.961956 0.000139 -0.000322 -0.000086
N -3.168779 3.693983 -0.756176 -0.000058 -0.000437 0.000533
N -0.043602 -1.893376 4.369918 0.000518 -0.000397 -0.000060
N -0.001919 -1.878527 -5.970741 0.000455 -0.000558 0.000289
N -0.001848 -1.880247 -0.765826 0.000572 -0.000550 0.000405
N -0.008502 1.822815 1.862915 0.001483 0.000463 0.000132
N -0.038394 1.804086 6.999591 -0.000242 0.000389 -0.000134
N -0.005526 1.815526 -3.398862 -0.000178 0.000731 -0.000192
N 3.212092 -3.768886 1.793734 -0.000309 0.000263 0.000204
N 3.211615 -3.777439 7.021256 -0.000191 0.000417 -0.000064
N 3.206832 -3.687180 -3.429090 -0.000440 0.000464 -0.000250
N 1.520711 -0.948479 1.870095 0.001490 0.000949 -0.000753
N 1.563312 -0.926791 7.018744 -0.000358 0.000439 -0.000173
N 1.645970 -0.982060 -3.360043 -0.000372 0.000481 0.000184
N 3.113348 1.825316 1.875791 0.001644 0.000585 -0.000713
N 3.159259 1.748296 7.034389 -0.000216 -0.000263 0.000049
N 3.197140 1.860807 -3.380588 -0.000212 0.000491 -0.000154
N 6.366301 -3.797432 1.866956 0.002012 0.000570 -0.001122
N 6.323529 -3.777418 7.022282 -0.000228 0.000006 -0.000097
N 6.445768 -3.760097 -3.363457 -0.000009 -0.000045 0.000007
N 4.761648 -0.971088 1.820160 0.001447 0.000551 0.000610
N 4.766783 -0.928010 6.974467 -0.000558 0.000108 -0.000017
N 4.761636 -0.981609 -3.356976 -0.000462 0.000264 0.000141
N -3.254159 1.798160 1.829872 0.001501 0.000833 0.001219
N -3.253359 1.754480 6.995136 -0.000406 -0.000005 0.000234
N -3.214579 1.815985 -3.391019 -0.000508 0.000410 0.000123
N -0.092866 -3.724331 1.864335 0.001873 0.000515 -0.001193
N -0.041108 -3.746729 7.004811 -0.000161 0.000101 -0.000064
N -0.045775 -3.757033 -3.352633 -0.000315 0.000098 0.000423
N -1.610858 -0.988045 1.865482 0.001507 0.000633 0.000756
N -1.641769 -0.928117 7.024702 -0.000532 0.000291 0.000161
N -1.606184 -0.953973 -3.388034 -0.000565 0.000172 0.000175
