108
Energy=-1535275.750368 Lattice="9.527731 0.000000 0.000000 -4.766920 8.250750 0.000000 -0.002665 0.013205 15.387587" Stress="-0.000002 0.000000 -0.000000 0.000000 0.000001 0.000004 -0.000000 0.000004 -0.000000" Properties=species:S:1:pos:R:3:forces:R:3
Al 1.548457 0.880442 2.394641 0.001782 0.001204 -0.000424
Al 1.553866 0.878703 7.541331 0.000059 0.000096 0.000179
Al 1.546032 0.858897 -2.691092 -0.000205 -0.000168 0.000465
Al -0.020390 3.614078 2.408845 -0.000911 -0.001556 0.000112
Al -0.026256 3.630938 7.539304 0.003142 -0.000322 -0.000630
Al -0.033683 3.622117 -2.703970 -0.000481 0.000067 -0.000384
Al 3.157167 -1.869553 2.387306 0.002271 0.002194 0.000058
Al 3.152475 -1.866557 7.555494 -0.000007 0.000316 0.000370
Al 3.148415 -1.873646 -2.699689 -0.003897 -0.003676 0.000735
Al -4.798329 0.863949 2.413251 -0.000614 -0.000051 -0.000274
Ga -4.805110 0.869298 7.534499 0.000048 -0.000214 -0.000045
Ga -4.796050 0.864683 -2.685099 0.000203 0.000363 0.000200
Al -6.379249 3.625675 2.423514 0.000316 -0.000365 0.000029
Ga -6.393539 3.636875 7.547817 -0.000423 -0.000003 -0.000005
Ga -6.385727 3.632073 -2.712677 0.000083 0.000164 -0.000140
Ga -3.209400 -1.860976 2.416178 0.000050 0.000556 0.000218
Ga -3.206790 -1.879149 7.531611 0.000004 -0.000135 0.000163
Ga -3.193623 -1.876738 -2.698166 0.000567 -0.000136 0.000213
Al -1.589779 0.883143 2.410625 0.000440 0.000079 -0.000130
Ga -1.591713 0.883580 7.539563 0.000359 -0.000390 -0.000016
Al -1.586664 0.867796 -2.693972 0.000378 0.000028 0.000427
Ga -3.197166 3.635443 2.400133 0.000007 0.000070 0.000027
Ga -3.192782 3.651461 7.558344 -0.000195 -0.000012 0.000218
Ga -3.182926 3.646955 -2.697231 0.000375 0.000680 -0.000034
Ga -0.018092 -1.863684 2.402069 -0.000085 0.000076 0.000167
Ga -0.014899 -1.858526 7.558625 0.000263 0.000156 0.000465
Al -0.008625 -1.857768 -2.708347 0.000276 -0.000144 0.000099
Al -0.021600 1.800708 4.965270 0.000989 -0.000793 -0.000649
Ga -0.014737 1.793715 -5.260050 -0.000260 0.000035 0.000676
Al -0.029438 1.787577 -0.158056 -0.000211 0.000139 0.000663
Ga 3.175493 -3.695428 4.973388 -0.000324 0.000264 0.000149
Al 3.164537 -3.697049 -5.275897 -0.000127 0.000215 0.000754
Al 3.165635 -3.693306 -0.146665 -0.000266 0.000324 0.000452
Ga 1.567634 -0.951658 4.969987 -0.000404 0.000440 0.000111
Al 1.565055 -0.973659 -5.262178 -0.000388 0.000273 0.000385
Al 1.567417 -0.964621 -0.162511 -0.000214 0.000294 0.000873
Ga 3.136938 1.802700 4.949623 0.000104 0.000012 0.000185
Ga 3.134184 1.790499 -5.268725 -0.000028 0.000002 0.000028
Ga 3.139347 1.789539 -0.118806 -0.000088 -0.000267 0.000981
Al 6.327018 -3.705989 4.952119 0.000317 0.000800 0.001442
Al 6.323723 -3.708404 -5.271217 -0.000013 -0.000046 0.000008
Ga 6.318035 -3.706520 -0.128251 0.000058 -0.000165 -0.000412
Al 4.741125 -0.965094 4.967409 -0.000080 0.000276 -0.000028
Ga 4.735171 -0.988233 -5.265919 -0.000131 0.000302 -0.000342
Al 4.728480 -0.968033 -0.139975 -0.000127 0.000384 0.000992
Ga -3.193141 1.785607 4.948434 -0.000125 0.000061 0.000239
Ga -3.188809 1.795607 -5.253440 -0.000104 0.000109 0.000103
Ga -3.179846 1.787813 -0.127010 -0.000021 -0.000370 -0.000059
Al -0.041055 -3.693869 4.970443 -0.000001 0.000226 0.000578
Al -0.020705 -3.688511 -5.257716 -0.000001 0.000197 0.000409
Al -0.018440 -3.683208 -0.151525 0.000073 0.000199 0.000560
Al -1.612708 -0.953580 4.958814 -0.000147 0.000211 0.000453
Al -1.594522 -0.975407 -5.249722 -0.000065 0.000145 0.000310
Al -1.592590 -0.949797 -0.156563 -0.000123 0.000290 0.000532
N 1.514213 0.897728 4.305548 -0.000965 0.000324 -0.000017
N 1.556490 0.819789 -5.927063 0.000162 -0.000421 -0.000515
N 1.522887 0.852496 -0.769997 -0.000097 -0.000735 -0.000031
N 0.011025 3.601101 4.328397 0.000438 -0.000199 -0.000018
N -0.021898 3.665974 -5.918267 -0.000130 0.000029 -0.000548
N -0.067159 3.604799 -0.782390 0.000043 -0.000207 -0.000180
N 3.191628 -1.847165 4.301724 0.000291 -0.000378 -0.000256
N 3.109559 -1.899214 -5.910356 -0.000046 -0.000367 -0.000404
N 3.153191 -1.875232 -0.769958 -0.000097 -0.000336 0.000198
N -4.792745 0.826457 4.325832 0.000108 -0.000411 -0.000149
N -4.787056 0.868688 -5.885627 0.000192 -0.000340 0.000083
N -4.789561 0.834753 -0.721913 0.000217 -0.000587 -0.000207
N -6.374962 3.682034 4.339572 -0.000174 0.000289 -0.000396
N -6.374541 3.674629 -5.852915 -0.000048 0.000305 0.000140
N -6.339233 3.652175 -0.746392 0.000085 0.000199 0.000189
N -3.200376 -1.865274 4.403597 -0.000084 -0.000784 0.000285
N -3.149989 -1.900565 -5.862052 0.000171 -0.000060 0.000025
N -3.195891 -1.827522 -0.717957 0.000164 0.000315 0.000029
N -1.560366 0.857938 4.333200 0.000398 -0.000566 -0.000307
N -1.604931 0.821940 -5.872934 0.000424 -0.000438 -0.000220
N -1.568596 0.852976 -0.780664 0.000489 -0.000413 -0.000200
N -3.239110 3.665746 4.372883 -0.000078 0.000054 -0.000097
N -3.200264 3.675561 -5.842122 0.000083 0.000036 -0.000276
N -3.195528 3.679247 -0.713947 0.000233 0.000190 0.000608
N -0.060633 -1.889517 4.379614 0.000029 -0.000289 -0.000235
N -0.020199 -1.873566 -5.838069 0.000190 -0.000129 -0.000197
N -0.018529 -1.869527 -0.773610 0.000204 -0.000002 0.000003
N -0.025886 1.799952 1.772433 -0.000068 -0.000609 -0.000243
N 0.019678 1.821844 6.894694 -0.000610 0.001497 0.001212
N -0.018537 1.794400 -3.271723 -0.000125 -0.000014 -0.000225
N 3.208567 -3.684678 1.778491 -0.000901 0.001037 -0.001328
N 3.200952 -3.673972 6.957240 -0.000877 0.000151 0.000068
N 3.201862 -3.681165 -3.348382 0.000632 0.001204 0.000175
N 1.610064 -0.933372 1.767966 -0.001126 -0.000239 -0.002146
N 1.610166 -0.929192 6.952991 -0.000174 -0.000099 -0.000129
N 1.573942 -0.957078 -3.320998 -0.000355 -0.000122 -0.000261
N 3.148983 1.798133 1.865602 -0.000814 -0.000265 0.000066
N 3.103211 1.779532 6.930485 -0.000212 -0.000288 -0.000128
N 3.101608 1.763132 -3.297171 -0.000143 -0.000235 -0.000189
N 6.325581 -3.752383 1.842198 0.001222 0.000466 0.000520
N 6.286316 -3.728994 6.876820 -0.001290 -0.000559 -0.001270
N 6.280699 -3.732504 -3.355483 -0.000306 -0.000010 -0.000154
N 4.701135 -0.932173 1.771255 -0.001121 -0.001513 -0.000261
N 4.695310 -0.981315 6.887620 -0.000548 -0.000077 -0.000401
N 4.694802 -0.990332 -3.299768 0.002368 0.001556 -0.000896
N -3.194525 1.743445 1.850577 0.000045 0.000092 0.000253
N -3.198849 1.802174 6.922174 0.000127 0.000011 -0.000208
N -3.155618 1.769422 -3.279100 0.000106 -0.000351 -0.000214
N -0.066346 -3.723065 1.756798 -0.000270 -0.000059 -0.000611
N -0.026390 -3.697944 6.881956 0.000140 0.000054 -0.000645
N -0.019797 -3.657446 -3.346399 0.000071 0.000522 -0.000241
N -1.608273 -0.904648 1.758186 0.000039 -0.000004 -0.000659
N -1.608572 -0.952115 6.868317 -0.000136 0.000255 -0.000546
N -1.566344 -0.936093 -3.328140 0.000032 0.000087 -0.000300
