108
Energy=-1.352173e+06 Lattice="9.484061e+00 0.000000e+00 0.000000e+00 -4.757953e+00 8.228524e+00 0.000000e+00 1.389705e-02 3.327297e-02 1.534862e+01" Stress="-7.613442e-03 2.343801e-03 -3.156008e-04 2.342234e-03 -2.844383e-03 1.235023e-03 -3.206411e-04 1.238900e-03 1.774693e-03" Properties=species:S:1:pos:R:3:forces:R:3 Config_type=AlGaN_super3_20_0_5.xyz
Al 1.556233e+00 8.730185e-01 2.387609e+00 3.650901e-02 -1.883946e-02 1.816455e-02
Al 1.550053e+00 9.104128e-01 7.484775e+00 1.011898e-02 -1.089852e-02 7.390722e-03
Al 1.547013e+00 8.570644e-01 -2.670400e+00 7.997301e-04 3.863209e-03 -9.684274e-04
Al -5.012534e-02 3.587666e+00 2.411047e+00 1.579134e-02 1.344191e-02 3.156418e-04
Al -2.063182e-02 3.633780e+00 7.518748e+00 5.726730e-04 7.039737e-04 8.930034e-04
Al -3.590232e-02 3.588684e+00 -2.697776e+00 -8.479594e-05 6.280648e-04 8.930496e-04
Al 3.153986e+00 -1.829987e+00 2.397769e+00 2.101680e-03 -1.582543e-03 7.009977e-04
Al 3.144922e+00 -1.857147e+00 7.525172e+00 4.149143e-03 9.890304e-04 1.183888e-03
Ga 3.148702e+00 -1.878408e+00 -2.715324e+00 -9.119195e-04 -1.371385e-03 2.988974e-03
Al -4.783333e+00 8.650923e-01 2.394129e+00 9.216829e-03 1.217618e-02 -4.452383e-03
Al -4.792768e+00 8.959155e-01 7.511737e+00 2.304274e-05 -2.101379e-03 5.516187e-05
Al -4.779645e+00 8.711436e-01 -2.691076e+00 9.992939e-05 -7.586685e-04 -2.769511e-04
Ga -6.368750e+00 3.610659e+00 2.399059e+00 2.820981e-04 9.281469e-04 1.088682e-03
Al -6.359552e+00 3.628209e+00 7.510989e+00 -1.214588e-03 -2.627650e-04 -5.907656e-04
Al -6.366937e+00 3.587380e+00 -2.687611e+00 8.111448e-04 6.231954e-04 -3.599425e-04
Ga -3.198803e+00 -1.858124e+00 2.394041e+00 6.642551e-04 -2.142985e-03 2.729001e-03
Al -3.197406e+00 -1.856899e+00 7.514820e+00 1.683397e-03 -8.690321e-04 -1.353020e-03
Al -3.181325e+00 -1.891118e+00 -2.699069e+00 2.216559e-04 2.408811e-03 7.629075e-04
Ga -1.562412e+00 9.017762e-01 2.424467e+00 -5.202252e-03 -2.146652e-03 -2.472466e-03
Ga -1.610740e+00 9.005840e-01 7.540316e+00 2.507618e-03 -6.052089e-04 -1.465971e-03
Al -1.633849e+00 8.825851e-01 -2.688889e+00 4.937044e-03 -3.266218e-03 -2.525179e-03
Ga -3.164365e+00 3.645724e+00 2.382695e+00 -1.116284e-03 -3.208199e-03 -1.245089e-03
Al -3.190727e+00 3.638986e+00 7.545430e+00 1.894956e-03 -3.728550e-04 -6.309785e-04
Al -3.191178e+00 3.597785e+00 -2.691384e+00 6.706323e-04 3.159192e-03 9.378713e-04
Al 1.232543e-02 -1.843706e+00 2.419925e+00 1.941679e-03 -3.090863e-03 1.100990e-03
Ga 4.315052e-04 -1.846958e+00 7.549519e+00 2.530220e-03 6.580300e-04 -7.518964e-04
Ga -3.389804e-02 -1.857615e+00 -2.707968e+00 2.519211e-03 -1.103832e-03 -2.066351e-05
Al 5.082688e-04 1.798702e+00 4.972930e+00 6.522104e-04 1.598500e-03 -1.277010e-03
Ga -3.166244e-02 1.755421e+00 -5.248870e+00 1.973759e-03 3.117100e-03 2.523186e-03
Al -2.163253e-02 1.790985e+00 -1.201347e-01 4.300609e-03 -2.747792e-04 -3.230825e-03
Ga 3.170756e+00 -3.675363e+00 4.978360e+00 7.658380e-05 2.812365e-03 1.728993e-03
Al 3.135370e+00 -3.721666e+00 -5.276838e+00 1.058432e-03 3.902821e-03 3.293535e-03
Al 3.171994e+00 -3.697526e+00 -1.584021e-01 -1.916130e-03 2.642424e-03 -1.737063e-04
Al 1.584985e+00 -9.195692e-01 4.947605e+00 1.488999e-03 2.568288e-04 3.857191e-03
Al 1.562424e+00 -9.743840e-01 -5.272960e+00 1.625461e-03 2.576299e-03 1.783495e-03
Al 1.579298e+00 -9.494380e-01 -1.333554e-01 -2.512705e-04 2.468662e-04 2.376800e-03
Al 3.118934e+00 1.794938e+00 4.957434e+00 -1.758672e-03 -2.179314e-04 2.831663e-03
Ga 3.107305e+00 1.757849e+00 -5.268547e+00 -1.719581e-03 1.068568e-03 4.666667e-03
Al 3.134046e+00 1.771518e+00 -1.468422e-01 1.241757e-03 9.771675e-04 -5.977257e-03
Al 6.296636e+00 -3.694816e+00 4.975755e+00 -1.008556e-03 1.378630e-03 2.194776e-03
Ga 6.293080e+00 -3.703455e+00 -5.274058e+00 -7.531754e-04 -4.406749e-04 3.363996e-03
Al 6.293046e+00 -3.712954e+00 -1.791306e-01 2.266809e-03 1.595526e-03 3.496212e-03
Al 4.714945e+00 -9.294222e-01 4.970427e+00 -9.632164e-04 -1.605841e-03 3.490623e-03
Ga 4.727467e+00 -9.738051e-01 -5.280442e+00 -2.723197e-03 -4.709237e-04 3.406583e-03
Al 4.721212e+00 -9.515709e-01 -1.731746e-01 -1.119078e-03 1.819583e-03 4.605342e-04
Ga -3.202690e+00 1.805315e+00 4.981532e+00 -1.307223e-03 -8.108002e-04 1.737976e-03
Ga -3.202986e+00 1.777541e+00 -5.255128e+00 -2.923942e-03 1.582082e-03 2.974681e-03
Al -3.172835e+00 1.775745e+00 -2.058560e-01 -1.315147e-02 8.708085e-03 6.033022e-03
Ga -1.887564e-02 -3.680669e+00 4.982577e+00 -1.592203e-03 2.249848e-03 3.692057e-04
Ga -1.951683e-02 -3.704428e+00 -5.254046e+00 -2.035785e-03 -6.805558e-04 2.049941e-03
Ga -6.783831e-03 -3.703695e+00 -1.467717e-01 -1.769282e-03 4.314831e-04 -3.359589e-03
Ga -1.591971e+00 -9.454247e-01 4.977398e+00 -1.237694e-03 -1.816701e-03 -1.171429e-03
Al -1.603661e+00 -9.572320e-01 -5.251742e+00 -2.294893e-03 -3.609273e-03 2.190082e-03
Ga -1.609720e+00 -9.411546e-01 -1.350172e-01 -2.792539e-04 -1.360517e-03 -2.414806e-03
N 1.552175e+00 8.928566e-01 4.336033e+00 3.581210e-03 -2.859717e-03 1.359810e-03
N 1.534760e+00 8.062283e-01 -5.919679e+00 6.453777e-04 9.028086e-05 -8.688383e-03
N 1.551317e+00 8.659543e-01 -7.439228e-01 -1.900328e-03 -7.275845e-04 -4.055987e-04
N 2.867052e-03 3.599892e+00 4.347663e+00 1.266256e-03 -6.211239e-04 -5.780281e-03
N -7.677955e-02 3.611268e+00 -5.909169e+00 -2.064487e-04 -5.183342e-04 -2.349793e-03
N -2.980265e-02 3.609303e+00 -7.661491e-01 -1.833338e-03 -4.868189e-03 7.952694e-04
N 3.154955e+00 -1.812043e+00 4.337914e+00 5.377186e-04 1.613787e-03 -6.433541e-03
N 3.106527e+00 -1.907381e+00 -5.889224e+00 -2.385310e-03 -3.011837e-03 -2.125117e-03
N 3.144080e+00 -1.870676e+00 -7.279712e-01 -6.917391e-04 -4.341223e-04 1.481757e-03
N -4.809163e+00 8.747869e-01 4.336372e+00 -2.366645e-04 -2.260226e-03 -5.995640e-03
N -4.792070e+00 8.617604e-01 -5.923543e+00 2.998648e-03 2.700822e-05 -5.372793e-03
N -4.770957e+00 8.680935e-01 -7.784812e-01 5.111313e-04 1.021109e-03 8.111270e-04
N -6.396392e+00 3.611259e+00 4.385707e+00 -1.718304e-04 -1.596118e-03 -1.614788e-04
N -6.369021e+00 3.596158e+00 -5.920821e+00 1.232866e-03 9.601751e-05 -4.826549e-03
N -6.383961e+00 3.588454e+00 -7.713807e-01 -2.776744e-03 -2.473867e-03 -6.988704e-04
N -3.225525e+00 -1.879308e+00 4.383251e+00 -3.738725e-04 -5.145569e-04 7.572734e-05
N -3.142290e+00 -1.859694e+00 -5.922222e+00 1.502594e-03 1.043346e-05 -4.909816e-04
N -3.212055e+00 -1.893104e+00 -7.748892e-01 -1.932135e-03 -1.140860e-03 -2.142454e-03
N -1.580432e+00 9.186658e-01 4.386281e+00 4.916645e-03 7.986269e-04 4.577603e-04
N -1.626086e+00 8.254386e-01 -5.846985e+00 1.821756e-03 -2.408795e-03 -1.391263e-03
N -1.628166e+00 9.265778e-01 -7.685830e-01 1.685752e-02 -3.653308e-03 -2.393271e-03
N -3.186085e+00 3.637240e+00 4.351032e+00 1.505012e-03 -7.878680e-04 -3.418276e-03
N -3.172306e+00 3.625124e+00 -5.893147e+00 2.373564e-03 -7.391176e-04 -3.516174e-03
N -3.146461e+00 3.609887e+00 -7.658178e-01 3.109602e-03 -3.657991e-03 -5.827333e-03
N 3.768434e-02 -1.827865e+00 4.340081e+00 -1.346646e-03 -4.580671e-04 -4.370508e-03
N -2.273193e-02 -1.834934e+00 -5.827919e+00 -1.523580e-03 9.851298e-04 1.519732e-03
N 1.252636e-02 -1.837295e+00 -7.426913e-01 4.224358e-03 1.542614e-03 -1.235185e-03
N 1.305843e-01 1.767352e+00 1.867167e+00 -5.168718e-02 2.950908e-02 -3.520893e-02
N 2.679580e-02 1.822629e+00 6.894775e+00 -7.437453e-03 3.925898e-03 -2.851929e-03
N -2.815543e-02 1.763842e+00 -3.266286e+00 -1.630822e-03 1.607224e-03 3.666189e-03
N 3.208318e+00 -3.635342e+00 1.761634e+00 2.600136e-03 -8.619975e-03 4.270059e-03
N 3.154031e+00 -3.686608e+00 6.958822e+00 -1.089780e-03 2.822543e-04 1.151375e-03
N 3.145494e+00 -3.754163e+00 -3.336233e+00 1.043077e-04 -2.469604e-03 -3.353879e-03
N 1.575664e+00 -9.462269e-01 1.803698e+00 -3.941715e-04 -6.767854e-05 -2.741976e-03
N 1.623204e+00 -9.325961e-01 6.882429e+00 -5.247056e-03 7.964297e-03 -2.211549e-03
N 1.568625e+00 -9.106865e-01 -3.357919e+00 -1.117788e-03 -9.543743e-04 -1.105964e-03
N 3.136059e+00 1.750742e+00 1.752859e+00 3.864316e-03 -2.512683e-03 6.644891e-03
N 3.126335e+00 1.811778e+00 6.894387e+00 1.587554e-03 -2.855711e-04 -2.283273e-03
N 3.119115e+00 1.767937e+00 -3.277114e+00 3.403975e-04 7.685142e-04 2.445838e-03
N 6.279451e+00 -3.702941e+00 1.738017e+00 -9.412524e-03 -5.503665e-03 1.945088e-03
N 6.304541e+00 -3.680621e+00 6.909712e+00 -1.376911e-04 5.495824e-04 -9.151814e-04
N 6.300821e+00 -3.717138e+00 -3.281604e+00 -3.258213e-04 6.190506e-04 2.887496e-03
N 4.695788e+00 -8.961624e-01 1.745650e+00 -1.593190e-03 -6.172649e-03 2.915199e-03
N 4.719456e+00 -9.340879e-01 6.911128e+00 -2.802958e-04 4.453062e-04 -1.603081e-03
N 4.766773e+00 -9.417546e-01 -3.297585e+00 5.155212e-04 1.209415e-03 4.876550e-04
N -3.166660e+00 1.795556e+00 1.696115e+00 -1.077980e-02 -6.931942e-03 1.639693e-02
N -3.226128e+00 1.827761e+00 6.951611e+00 -3.266305e-03 2.412139e-03 9.256862e-04
N -3.205687e+00 1.783792e+00 -3.274187e+00 -5.567650e-04 4.904741e-04 3.880622e-03
N -1.166642e-02 -3.642506e+00 1.809705e+00 -1.456654e-03 1.681744e-03 3.977307e-03
N -9.333305e-03 -3.711848e+00 6.956128e+00 -7.205914e-04 -3.558562e-03 7.194580e-04
N -2.292436e-02 -3.745336e+00 -3.277885e+00 -6.467385e-04 -3.612855e-03 2.298758e-03
N -1.542570e+00 -9.615214e-01 1.827029e+00 -3.523573e-03 7.770996e-04 1.565719e-03
N -1.622280e+00 -9.626827e-01 6.937758e+00 -3.885650e-03 6.324197e-04 -1.534973e-03
N -1.650391e+00 -9.350890e-01 -3.325873e+00 -2.924424e-03 1.726380e-03 -5.614686e-04
