108
Energy=-8.028680e+05 Lattice="9.443430e+00 0.000000e+00 0.000000e+00 -4.730673e+00 8.170513e+00 0.000000e+00 -1.178372e-03 -9.216150e-03 1.518231e+01" Stress="8.363226e-04 -3.892599e-04 -2.998286e-04 -3.887003e-04 1.218942e-04 -3.681778e-04 -3.018891e-04 -3.776972e-04 1.372373e-03" Properties=species:S:1:pos:R:3:forces:R:3 Config_type=AlGaN_super3_8_0_13.xyz
Al 1.548475e+00 8.682955e-01 2.385722e+00 3.277196e-04 5.621003e-05 4.206196e-04
Al 1.545577e+00 8.636162e-01 7.426676e+00 6.547304e-04 -3.635819e-04 3.107727e-04
Al 1.556512e+00 8.739958e-01 -2.679581e+00 1.036265e-04 1.842672e-04 7.824079e-04
Al -3.731923e-02 3.581844e+00 2.385421e+00 -3.840890e-05 -1.763988e-04 2.447472e-04
Al -2.579899e-02 3.582132e+00 7.437384e+00 -5.756921e-04 8.079024e-05 2.434634e-04
Al -2.661381e-02 3.584051e+00 -2.675358e+00 4.979651e-04 8.974211e-04 -7.052549e-04
Al 3.125403e+00 -1.864789e+00 2.397678e+00 1.575896e-03 8.763861e-04 -1.852754e-04
Al 3.125303e+00 -1.855751e+00 7.409003e+00 2.561862e-04 -4.189106e-04 -1.453104e-03
Al 3.121008e+00 -1.855378e+00 -2.659017e+00 5.130520e-03 -2.205159e-03 5.134759e-04
Al -4.749798e+00 8.751654e-01 2.396913e+00 6.927746e-04 4.755022e-04 2.032155e-04
Al -4.749659e+00 8.749963e-01 7.423450e+00 7.528541e-04 -5.411676e-04 -1.047923e-04
Al -4.745014e+00 8.836212e-01 -2.675049e+00 2.100876e-04 -2.995079e-03 -2.599677e-03
Al -6.311431e+00 3.581087e+00 2.392294e+00 -1.127409e-03 9.094222e-04 -2.107138e-04
Al -6.326008e+00 3.584162e+00 7.435436e+00 6.407837e-04 2.853049e-04 -1.022173e-04
Al -6.327866e+00 3.577170e+00 -2.676320e+00 9.706145e-04 1.075666e-03 -3.441790e-04
Al -3.161460e+00 -1.842188e+00 2.405125e+00 1.881376e-04 -1.927697e-04 -2.074586e-04
Al -3.168646e+00 -1.852836e+00 7.427358e+00 3.512634e-04 -3.098317e-04 -2.438145e-03
Al -3.163792e+00 -1.861236e+00 -2.662753e+00 -1.932810e-03 -1.797464e-04 -4.654934e-03
Al -1.601984e+00 8.722946e-01 2.388688e+00 5.822186e-04 -5.488440e-04 -5.693965e-04
Al -1.604891e+00 8.807628e-01 7.420622e+00 7.774012e-04 -1.028410e-03 -4.816586e-05
Al -1.604688e+00 8.874707e-01 -2.670537e+00 3.349516e-04 -9.303698e-04 2.034321e-04
Al -3.177038e+00 3.594797e+00 2.388053e+00 6.526820e-04 -9.558002e-04 -1.794403e-04
Al -3.177452e+00 3.587079e+00 7.408766e+00 5.544855e-04 -4.724668e-04 -9.031616e-04
Al -3.171957e+00 3.581949e+00 -2.652571e+00 2.032171e-03 -8.652526e-04 5.007434e-04
Al -2.280424e-02 -1.853048e+00 2.382879e+00 -1.772184e-04 -3.269405e-04 -2.803502e-04
Al -1.473199e-02 -1.851071e+00 7.411232e+00 4.527828e-04 -5.032744e-04 -1.934940e-03
Ga -7.999922e-03 -1.850092e+00 -2.648836e+00 -1.011949e-04 4.442078e-05 4.204341e-04
Al -2.978912e-02 1.765020e+00 4.907079e+00 -3.623444e-04 2.552101e-04 7.191272e-04
Al -1.593227e-02 1.776976e+00 -5.218819e+00 -9.704001e-04 3.783072e-04 7.641377e-04
Al -3.043789e-02 1.761656e+00 -1.435548e-01 -1.093555e-04 3.204636e-04 -7.038538e-04
Al 3.123408e+00 -3.677759e+00 4.910223e+00 -2.609447e-04 4.031528e-04 5.626199e-04
Ga 3.132975e+00 -3.675505e+00 -5.215323e+00 -6.017681e-04 7.269202e-04 5.587841e-04
Al 3.116545e+00 -3.684841e+00 -1.380687e-01 1.839669e-04 1.068738e-03 -1.405996e-03
Al 1.556459e+00 -9.494901e-01 4.897198e+00 -1.308936e-03 6.919915e-04 4.418540e-04
Al 1.557114e+00 -9.252505e-01 -5.218003e+00 2.048778e-03 -1.967558e-03 -1.750824e-03
Al 1.555312e+00 -9.459906e-01 -1.221324e-01 -1.152972e-03 5.381824e-04 6.854780e-04
Al 3.123130e+00 1.767501e+00 4.910353e+00 -4.749926e-04 -2.255909e-04 9.260519e-04
Al 3.111194e+00 1.777248e+00 -5.219979e+00 7.040818e-04 -1.823349e-05 6.188154e-04
Al 3.119612e+00 1.772597e+00 -1.403128e-01 6.115595e-04 -5.882973e-04 -8.586701e-04
Ga 6.275910e+00 -3.675095e+00 4.909590e+00 -9.976528e-05 1.302048e-04 -7.607258e-05
Al 6.279096e+00 -3.681313e+00 -5.211376e+00 -1.049873e-04 6.065008e-04 -3.646947e-04
Ga 6.282731e+00 -3.683678e+00 -1.265730e-01 -5.751529e-04 -2.463673e-04 -5.740420e-04
Al 4.698410e+00 -9.383296e-01 4.909907e+00 -4.679390e-04 2.708231e-05 2.965257e-04
Ga 4.697762e+00 -9.391749e-01 -5.214781e+00 -2.752692e-04 1.131807e-04 1.625638e-03
Ga 4.699283e+00 -9.390534e-01 -1.385629e-01 -1.016180e-03 1.592032e-04 -5.416742e-04
Al -3.177345e+00 1.777318e+00 4.901013e+00 -1.188158e-05 8.045371e-06 -1.317785e-05
Al -3.175042e+00 1.785365e+00 -5.216342e+00 1.294858e-04 -8.384230e-04 2.968177e-04
Al -3.174662e+00 1.781713e+00 -1.361509e-01 2.122386e-03 1.303094e-03 4.215270e-04
Al -1.328272e-02 -3.670334e+00 4.907315e+00 -2.239225e-05 5.193304e-04 3.280815e-04
Ga -1.726136e-02 -3.679179e+00 -5.223830e+00 -6.205398e-05 6.078272e-04 6.542837e-04
Al -1.389586e-02 -3.682629e+00 -1.252358e-01 6.921997e-04 1.303861e-03 -1.940073e-03
Al -1.587996e+00 -9.356684e-01 4.912517e+00 -4.432207e-04 1.344669e-04 3.817768e-04
Ga -1.584510e+00 -9.304366e-01 -5.229101e+00 -1.818841e-03 2.016226e-04 9.462269e-04
Al -1.598435e+00 -9.381997e-01 -1.353311e-01 5.258775e-03 2.197456e-03 2.685257e-03
N 1.545931e+00 8.697800e-01 4.305818e+00 9.214563e-04 -1.872406e-04 -7.600022e-04
N 1.546530e+00 8.739647e-01 -5.826721e+00 1.932888e-04 -3.661882e-04 1.016801e-04
N 1.548193e+00 8.639693e-01 -7.477329e-01 7.623465e-04 3.020283e-05 -5.009723e-04
N -7.064235e-02 3.562884e+00 4.293111e+00 -5.843597e-04 -4.643326e-04 -5.040299e-04
N 1.223129e-02 3.571189e+00 -5.828436e+00 9.729325e-04 -7.550487e-04 -4.372256e-04
N -6.379811e-02 3.564519e+00 -7.589759e-01 -7.015842e-04 -5.840261e-04 9.346560e-05
N 3.129235e+00 -1.861481e+00 4.315790e+00 3.737963e-04 -1.051565e-04 -4.118652e-04
N 3.091861e+00 -1.831149e+00 -5.873117e+00 -2.246253e-03 9.108934e-04 3.222240e-03
N 3.084919e+00 -1.878866e+00 -7.477199e-01 -6.530821e-05 -6.898685e-04 3.969757e-05
N -4.752187e+00 8.721526e-01 4.312016e+00 4.936306e-04 -3.405552e-05 -4.555628e-04
N -4.748259e+00 9.207254e-01 -5.837487e+00 1.731195e-04 9.285330e-04 -2.465154e-04
N -4.740027e+00 9.215771e-01 -7.655535e-01 -2.944726e-03 -1.757553e-04 6.857172e-04
N -6.280545e+00 3.564454e+00 4.297442e+00 6.779391e-04 -4.388852e-04 -4.006183e-04
N -6.360632e+00 3.570892e+00 -5.832856e+00 -9.027304e-04 -6.667082e-04 -5.778660e-04
N -6.285652e+00 3.564121e+00 -7.598217e-01 8.193638e-04 3.056591e-05 -2.749703e-04
N -3.164583e+00 -1.805223e+00 4.307729e+00 2.780016e-06 5.116391e-04 2.099534e-04
N -3.166000e+00 -1.895449e+00 -5.857574e+00 1.016463e-04 -9.062280e-04 2.743425e-03
N -3.122805e+00 -1.837021e+00 -7.692020e-01 -1.900769e-03 -1.150956e-03 6.684749e-04
N -1.603873e+00 8.723738e-01 4.306430e+00 8.700202e-04 -3.398642e-04 -2.828078e-04
N -1.602039e+00 9.295504e-01 -5.844174e+00 9.159045e-04 3.242226e-04 -2.207989e-04
N -1.606812e+00 8.730634e-01 -7.456713e-01 5.711265e-04 -5.557438e-04 4.344722e-06
N -3.177376e+00 3.595693e+00 4.307358e+00 2.055698e-04 -5.270529e-04 -4.325200e-04
N -3.173319e+00 3.549462e+00 -5.873188e+00 3.024545e-04 -1.145101e-04 9.912087e-04
N -3.178544e+00 3.589457e+00 -7.346902e-01 2.141552e-05 -7.565985e-04 1.481597e-04
N -2.477270e-02 -1.852678e+00 4.306493e+00 7.586729e-04 -7.417983e-04 -2.143262e-04
N 2.298526e-02 -1.828808e+00 -5.869192e+00 1.795560e-03 7.069020e-04 3.985996e-03
N -1.631042e-02 -1.854011e+00 -6.743714e-01 -1.395003e-03 -3.856141e-04 1.114046e-03
N -2.427201e-02 1.769209e+00 1.776403e+00 -1.589077e-04 4.087271e-04 5.899993e-04
N -2.338337e-02 1.771580e+00 6.826414e+00 -9.337760e-05 4.450688e-04 -3.492593e-04
N -2.251560e-02 1.771518e+00 -3.286959e+00 1.253348e-04 -4.389313e-04 -4.491119e-05
N 3.129144e+00 -3.675781e+00 1.779605e+00 -3.339782e-04 9.067458e-04 1.136268e-03
N 3.134312e+00 -3.678997e+00 6.828473e+00 -3.344578e-05 4.298704e-04 -6.387457e-04
N 3.127225e+00 -3.671619e+00 -3.232630e+00 -3.103392e-04 -7.002255e-04 8.064657e-04
N 1.561300e+00 -9.491274e-01 1.798473e+00 -6.502107e-04 3.330582e-04 1.441991e-04
N 1.557132e+00 -9.475376e-01 6.811986e+00 -8.369028e-04 8.406955e-04 -7.233792e-04
N 1.610734e+00 -9.290111e-01 -3.292948e+00 -5.763533e-03 3.184886e-03 -4.480668e-03
N 3.121843e+00 1.772011e+00 1.780248e+00 -3.461004e-04 2.710374e-05 -2.266913e-04
N 3.117591e+00 1.773519e+00 6.828837e+00 -3.725303e-04 -1.712226e-04 -1.682647e-04
N 3.122608e+00 1.774815e+00 -3.292340e+00 -3.022675e-04 -4.607959e-04 -3.478410e-04
N 6.275179e+00 -3.668184e+00 1.849577e+00 1.202759e-03 -1.060578e-03 1.376936e-03
N 6.275485e+00 -3.674341e+00 6.877472e+00 1.291934e-04 -2.212336e-04 -9.805711e-06
N 6.278524e+00 -3.673013e+00 -3.279374e+00 5.775435e-04 -4.764617e-04 -3.199958e-04
N 4.704891e+00 -9.414322e-01 1.835803e+00 -2.014533e-03 -2.022136e-03 1.992039e-03
N 4.703384e+00 -9.443934e-01 6.829244e+00 -5.354973e-04 3.043202e-04 -5.425429e-04
N 4.700461e+00 -9.594713e-01 -3.229305e+00 5.871511e-04 4.542341e-03 2.066121e-03
N -3.174859e+00 1.777394e+00 1.787432e+00 -6.324459e-04 1.388292e-04 6.872135e-04
N -3.177054e+00 1.774128e+00 6.812570e+00 -3.952157e-04 -6.065447e-05 -2.460605e-04
N -3.172194e+00 1.783385e+00 -3.287692e+00 1.238521e-04 -6.907661e-04 -5.341435e-04
N -1.894672e-02 -3.675032e+00 1.788002e+00 -2.205291e-04 4.884402e-04 1.247918e-03
N -2.374373e-02 -3.672374e+00 6.827650e+00 -3.689536e-04 -6.519554e-05 -5.335016e-04
N -5.838388e-03 -3.715677e+00 -3.247973e+00 -3.718078e-03 3.933222e-05 2.216906e-04
N -1.596101e+00 -9.413077e-01 1.789804e+00 -4.510602e-04 -3.075657e-04 -9.843555e-04
N -1.592179e+00 -9.425318e-01 6.832882e+00 -7.695756e-04 3.813296e-04 -6.892928e-04
N -1.625728e+00 -9.220641e-01 -3.254317e+00 -2.959770e-05 1.025932e-03 6.762491e-04
