108
Energy=-619761.917654 Lattice="9.476278 0.000000 0.000000 -4.738139 8.206697 0.000000 0.000000 0.000000 15.313968" Stress="0.000082 0.000027 0.000000 0.000027 0.000110 0.000000 0.000000 0.000000 0.000154" Properties=species:S:1:pos:R:3:forces:R:3
Al 1.564294 0.903146 2.504900 -0.001066 -0.014222 -0.011774
Al 1.564294 0.903146 7.521855 -0.001264 -0.014203 -0.006472
Al 1.564294 0.903146 -2.775158 -0.001278 -0.013996 -0.006218
Al 0.000000 3.612582 2.504900 -0.002734 -0.001167 -0.010607
Al 0.000000 3.612582 7.521855 -0.002952 -0.001113 -0.005234
Al 0.000000 3.612582 -2.775158 -0.002769 -0.001388 -0.003543
Al 3.173845 -1.884678 2.504900 -0.002999 0.001716 -0.011981
Al 3.173845 -1.884678 7.521855 -0.003052 0.001545 -0.006085
Al 3.173845 -1.884678 -2.775158 -0.002876 0.001628 -0.005021
Al -4.783396 0.903146 2.504900 0.001340 -0.013036 -0.010530
Al -4.783396 0.903146 7.521855 0.001369 -0.012978 -0.005387
Al -4.783396 0.903146 -2.775158 0.001408 -0.012858 -0.004967
Al -6.347690 3.612582 2.504900 -0.000390 -0.000078 -0.009347
Al -6.347690 3.612582 7.521855 -0.000234 0.000144 -0.003851
Al -6.347690 3.612582 -2.775158 -0.000248 -0.000035 -0.003203
Al -3.173845 -1.884678 2.504900 -0.000379 0.002932 -0.010702
Al -3.173845 -1.884678 7.521855 -0.000319 0.002983 -0.004997
Al -3.173845 -1.884678 -2.775158 -0.000641 0.002906 -0.003969
Al -1.654808 0.903146 2.504900 0.013601 -0.007874 -0.011698
Al -1.654808 0.903146 7.521855 0.013593 -0.007815 -0.007230
Al -1.654808 0.903146 -2.775158 0.013570 -0.007522 -0.006951
Al -3.219102 3.612582 2.504900 0.012158 0.005180 -0.010429
Al -3.219102 3.612582 7.521855 0.012148 0.005422 -0.005490
Al -3.219102 3.612582 -2.775158 0.012047 0.005230 -0.005052
Al -0.045257 -1.884678 2.504900 0.011759 0.008288 -0.011798
Al -0.045257 -1.884678 7.521855 0.011701 0.008166 -0.006201
Ga -0.045257 -1.884678 -2.775158 0.014795 0.010486 -0.007351
Al 0.000000 1.806291 5.013378 -0.011753 -0.008174 -0.006519
Al 0.000000 1.806291 -5.283635 -0.011835 -0.008739 -0.006164
Al 0.000000 1.806291 -0.266680 -0.011777 -0.008310 0.032969
Al 3.173845 -3.690969 5.013378 -0.011917 -0.005363 -0.005122
Ga 3.173845 -3.690969 -5.283635 -0.015492 -0.007895 -0.005832
Al 3.173845 -3.690969 -0.266680 -0.011946 -0.005211 0.034237
Al 1.609551 -0.981532 5.013378 -0.013551 0.007882 -0.007140
Al 1.609551 -0.981532 -5.283635 -0.014083 0.007836 -0.007333
Al 1.609551 -0.981532 -0.266680 -0.013615 0.007885 0.032447
Al 3.128588 1.806291 5.013378 0.000375 -0.003102 -0.004795
Al 3.128588 1.806291 -5.283635 0.000364 -0.003381 -0.004434
Al 3.128588 1.806291 -0.266680 0.000428 -0.003361 0.034966
Al 6.302433 -3.690969 5.013378 0.000143 -0.000092 -0.003456
Ga 6.302433 -3.690969 -5.283635 0.000634 0.000013 -0.002429
Al 6.302433 -3.690969 -0.266680 0.000104 0.000045 0.036202
Al 4.738139 -0.981532 5.013378 -0.001323 0.013058 -0.005346
Al 4.738139 -0.981532 -5.283635 -0.001316 0.013296 -0.005133
Al 4.738139 -0.981532 -0.266680 -0.001402 0.013113 0.033978
Al -3.219102 1.806291 5.013378 0.003033 -0.001793 -0.005878
Al -3.219102 1.806291 -5.283635 0.003180 -0.001918 -0.005488
Al -3.219102 1.806291 -0.266680 0.003046 -0.002002 0.033925
Al -0.045257 -3.690969 5.013378 0.002834 0.001196 -0.004439
Al -0.045257 -3.690969 -5.283635 0.002971 0.001785 -0.004509
Ga -0.045257 -3.690969 -0.266680 0.002936 0.001087 0.047327
Al -1.609551 -0.981532 5.013378 0.001168 0.014302 -0.006390
Al -1.609551 -0.981532 -5.283635 0.001675 0.014308 -0.006638
Al -1.609551 -0.981532 -0.266680 0.000979 0.014409 0.033661
N 1.564294 0.903146 4.418497 -0.000645 -0.013670 0.006322
N 1.564294 0.903146 -5.878516 -0.000517 -0.013171 0.005929
N 1.564294 0.903146 -0.861561 -0.000689 -0.013522 0.006872
N 0.000000 3.612582 4.418497 -0.002026 -0.000003 0.003801
N 0.000000 3.612582 -5.878516 -0.002275 -0.022012 -0.012232
N 0.000000 3.612582 -0.861561 -0.001931 -0.000039 0.004942
N 3.173845 -1.884678 4.418497 -0.002548 0.001557 0.003316
N 3.173845 -1.884678 -5.878516 -0.002300 0.023282 -0.004728
N 3.173845 -1.884678 -0.861561 -0.002692 0.001293 0.004468
N -4.783396 0.903146 4.418497 0.000855 -0.013457 0.006610
N -4.783396 0.903146 -5.878516 0.000791 -0.013273 0.006417
N -4.783396 0.903146 -0.861561 0.000876 -0.013175 0.007382
N -6.347690 3.612582 4.418497 -0.000359 0.000335 0.004187
N -6.347690 3.612582 -5.878516 0.018557 -0.011026 -0.004124
N -6.347690 3.612582 -0.861561 -0.019380 -0.010596 -0.001899
N -3.173845 -1.884678 4.418497 -0.001039 0.001833 0.003795
N -3.173845 -1.884678 -5.878516 -0.001285 0.023759 -0.004369
N -3.173845 -1.884678 -0.861561 -0.000669 0.001560 0.004867
N -1.654808 0.903146 4.418497 0.013505 -0.007889 0.009259
N -1.654808 0.903146 -5.878516 0.013368 -0.007496 0.008769
N -1.654808 0.903146 -0.861561 0.013713 -0.007864 0.009374
N -3.219102 3.612582 4.418497 0.011875 0.006007 0.006563
N -3.219102 3.612582 -5.878516 -0.003587 -0.002808 0.000033
N -3.219102 3.612582 -0.861561 0.030674 -0.004879 0.000229
N -0.045257 -1.884678 4.418497 0.011447 0.007274 0.006282
N -0.045257 -1.884678 -5.878516 0.011388 0.007165 0.005233
N -0.045257 -1.884678 -0.861561 0.011825 0.029068 0.023325
N 0.000000 1.806291 1.910020 -0.011722 -0.007549 -0.028912
N 0.000000 1.806291 6.926975 -0.011432 -0.007513 0.005945
N 0.000000 1.806291 -3.370038 -0.011429 -0.007266 0.005779
N 3.173845 -3.690969 1.910020 -0.012302 -0.006107 -0.028236
N 3.173845 -3.690969 6.926975 -0.012099 -0.005941 0.005494
N 3.173845 -3.690969 -3.370038 -0.012165 -0.005898 0.029744
N 1.609551 -0.981532 1.910020 -0.013917 0.008103 -0.025434
N 1.609551 -0.981532 6.926975 -0.013614 0.007911 0.008825
N 1.609551 -0.981532 -3.370038 0.002202 0.016413 0.002588
N 3.128588 1.806291 1.910020 0.001053 -0.001859 -0.031331
N 3.128588 1.806291 6.926975 0.001004 -0.001780 0.003544
N 3.128588 1.806291 -3.370038 0.001047 -0.001690 0.003182
N 6.302433 -3.690969 1.910020 0.000482 -0.000338 -0.030791
N 6.302433 -3.690969 6.926975 0.000600 -0.000305 0.003326
N 6.302433 -3.690969 -3.370038 0.000457 -0.000140 0.027550
N 4.738139 -0.981532 1.910020 -0.000912 0.013713 -0.028123
N 4.738139 -0.981532 6.926975 -0.000864 0.013549 0.006225
N 4.738139 -0.981532 -3.370038 -0.000853 0.013329 0.006137
N -3.219102 1.806291 1.910020 0.002791 -0.001494 -0.032004
N -3.219102 1.806291 6.926975 0.002520 -0.001493 0.003143
N -3.219102 1.806291 -3.370038 0.002441 -0.001455 0.002776
N -0.045257 -3.690969 1.910020 0.002289 0.000063 -0.019788
N -0.045257 -3.690969 6.926975 0.002007 0.000008 0.003373
N -0.045257 -3.690969 -3.370038 0.002117 -0.021987 -0.005247
N -1.609551 -0.981532 1.910020 0.000799 0.014018 -0.028761
N -1.609551 -0.981532 6.926975 0.000732 0.013694 0.005931
N -1.609551 -0.981532 -3.370038 -0.018313 0.024547 -0.002136
