108
Energy=-2313459.288018 Lattice="9.642925 0.000000 0.000000 -4.839321 8.344914 0.000000 0.000351 -0.058877 15.626125" Stress="0.000020 -0.000005 0.000000 -0.000005 0.000020 -0.000012 0.000000 -0.000012 0.000033" Properties=species:S:1:pos:R:3:forces:R:3
Al 1.570500 0.866225 2.471557 0.000878 0.001255 0.000621
Al 1.575630 0.841864 7.655873 0.000268 0.002078 0.002162
Al 1.577170 0.894817 -2.773543 0.001156 0.001049 0.002098
Al -0.033717 3.632832 2.431733 0.000414 0.000869 0.002568
Ga -0.027214 3.626727 7.657291 -0.000153 -0.000462 0.001604
Ga -0.023000 3.687376 -2.746918 0.000624 0.000487 0.001924
Ga 3.190116 -1.931736 2.442257 0.001026 -0.000002 0.000638
Al 3.186495 -1.916295 7.669774 0.000745 -0.000770 0.001487
Ga 3.179512 -1.866803 -2.747476 0.000562 -0.000479 0.002888
Ga -4.852087 0.876155 2.446889 0.000916 0.000343 0.000782
Ga -4.866282 0.849571 7.668243 0.001111 0.000926 0.000166
Ga -4.856940 0.913916 -2.738326 0.000528 0.000628 -0.000134
Ga -6.471401 3.635104 2.436819 0.000559 0.001007 0.001420
Ga -6.465308 3.635583 7.684634 0.000642 -0.000185 0.000527
Ga -6.474081 3.691794 -2.762531 0.000772 0.000530 0.001184
Ga -3.235299 -1.929349 2.453590 0.000743 0.000144 0.000165
Ga -3.242287 -1.932537 7.677619 0.000600 0.000473 0.000851
Ga -3.233440 -1.884898 -2.750096 0.000350 -0.000609 0.002158
Ga -1.623756 0.890861 2.451795 0.000222 -0.000849 0.000874
Ga -1.619787 0.867095 7.653342 0.000830 0.000562 0.000639
Ga -1.632866 0.918408 -2.733051 0.000800 -0.000093 0.000284
Al -3.225788 3.645237 2.430546 -0.000203 0.000067 0.001021
Ga -3.246874 3.652825 7.675549 0.000438 -0.001051 0.001225
Ga -3.244543 3.694052 -2.738895 -0.000711 -0.000007 0.002097
Ga -0.003605 -1.911990 2.462797 -0.000244 -0.001053 0.000320
Ga 0.004057 -1.916879 7.687756 0.000040 -0.000753 0.000498
Ga -0.002745 -1.856565 -2.776982 0.000640 -0.001641 0.001483
Al -0.017520 1.783885 5.037517 0.000791 0.002270 0.002279
Ga -0.008630 1.828456 -5.356049 -0.000398 0.001565 0.001849
Ga -0.021521 1.838560 -0.150670 0.000377 -0.000578 0.002487
Ga 3.207071 -3.791915 5.044996 0.000351 0.000209 0.001779
Ga 3.196564 -3.712491 -5.367551 0.000268 0.000192 0.001081
Al 3.204321 -3.758923 -0.128102 0.000022 0.002663 -0.001387
Ga 1.594293 -0.983192 5.071339 -0.000643 0.000922 0.001177
Al 1.592384 -0.940615 -5.376889 0.000382 -0.000094 0.001817
Ga 1.591271 -0.943336 -0.138744 0.000804 -0.000667 -0.001092
Ga 3.164162 1.780951 5.061832 0.000111 0.000617 0.001377
Ga 3.166868 1.838544 -5.358147 -0.000048 0.000663 0.000935
Ga 3.173295 1.831133 -0.160499 -0.000386 -0.001551 0.002811
Ga 6.404549 -3.790907 5.044131 -0.000274 -0.000157 0.001976
Al 6.420421 -3.725646 -5.358231 -0.000254 -0.000612 0.000867
Al 6.395827 -3.742885 -0.132932 0.000319 0.001317 -0.001316
Ga 4.799726 -1.000677 5.072485 -0.000214 -0.000022 0.000516
Ga 4.790784 -0.954086 -5.356510 -0.000435 -0.000523 0.000870
Ga 4.807198 -0.959641 -0.151938 -0.001133 -0.001823 0.001269
Ga -3.231835 1.798184 5.044000 -0.000897 0.000147 0.001889
Ga -3.246261 1.850666 -5.356027 -0.000471 0.000228 0.001531
Al -3.237813 1.840531 -0.132562 -0.001467 0.001007 -0.000690
Ga -0.005955 -3.780062 5.044572 -0.000751 -0.000267 0.001467
Al -0.016532 -3.714278 -5.348302 -0.001099 -0.000347 0.000600
Ga -0.008754 -3.734380 -0.150239 0.000515 -0.001494 0.002773
Ga -1.616969 -0.984889 5.067938 -0.001237 -0.000195 0.000411
Ga -1.615306 -0.952087 -5.353233 -0.001418 -0.000069 0.000160
Ga -1.631123 -0.948197 -0.150482 -0.001480 -0.002217 0.000821
N 1.535411 0.877512 4.396793 0.001051 -0.000145 -0.001178
N 1.573159 0.860821 -6.036184 0.000764 0.000889 -0.001458
N 1.573298 0.898373 -0.852867 0.000777 -0.000227 0.000134
N -0.032822 3.591427 4.379606 0.000026 -0.000160 -0.001929
N 0.009185 3.709948 -5.973211 0.000227 0.000112 -0.001149
N -0.033576 3.729814 -0.743284 0.000351 -0.000134 -0.001773
N 3.193262 -1.925940 4.424107 0.000397 -0.000415 -0.000798
N 3.150834 -1.843790 -6.024689 0.000739 -0.000631 -0.001241
N 3.185930 -1.929632 -0.747076 0.000889 -0.002107 -0.001773
N -4.852019 0.859941 4.434247 0.000669 0.000875 -0.000762
N -4.854994 0.911832 -5.979151 0.000545 0.000650 -0.001061
N -4.809567 0.931941 -0.751170 0.000734 0.000064 -0.000169
N -6.461821 3.638138 4.420942 0.000394 0.000142 -0.001275
N -6.459834 3.741579 -5.942708 0.000623 0.000336 -0.000844
N -6.507848 3.714400 -0.762843 0.000377 0.000077 -0.000654
N -3.230965 -1.921899 4.434353 0.000518 -0.000028 -0.000844
N -3.234024 -1.916630 -5.962609 0.000347 0.000306 -0.000980
N -3.232868 -1.931991 -0.758487 0.000581 -0.001290 -0.001868
N -1.590776 0.890502 4.444566 -0.000792 -0.000815 -0.001135
N -1.632675 0.919163 -5.988653 0.000181 -0.000465 -0.001268
N -1.678832 0.934888 -0.746781 0.001152 -0.000598 -0.000571
N -3.240648 3.645427 4.360104 0.000244 -0.000570 -0.001635
N -3.291390 3.724461 -5.965338 -0.000018 -0.000501 -0.001403
N -3.203906 3.665429 -0.736968 -0.000669 -0.001361 -0.002618
N -0.012109 -1.913867 4.440651 0.000136 -0.000909 -0.000984
N 0.027885 -1.887832 -5.942070 -0.000460 -0.001505 -0.000794
N -0.012816 -1.868072 -0.790011 -0.000429 -0.002215 -0.000737
N 0.026697 1.805757 1.852828 -0.001152 0.002941 -0.002503
N 0.021824 1.757135 6.983990 -0.000003 0.000704 -0.001895
N 0.015119 1.808270 -3.360724 -0.000700 0.001226 -0.001158
N 3.205479 -3.821802 1.802500 0.001017 -0.000122 0.001151
N 3.202339 -3.736644 7.049376 0.000296 0.000943 -0.001401
N 3.201545 -3.727323 -3.382068 0.000567 0.000455 -0.001747
N 1.593778 -0.935394 1.841883 -0.000970 0.000771 0.000857
N 1.634233 -0.971231 7.066977 -0.000460 -0.001240 -0.001437
N 1.598674 -0.893974 -3.437042 -0.000504 -0.000901 -0.002329
N 3.134594 1.756013 1.840896 0.000494 0.002215 -0.003283
N 3.138167 1.760580 7.058544 -0.000118 0.000572 -0.001322
N 3.141047 1.810988 -3.364896 0.000155 0.000351 -0.000963
N 6.370940 -3.792326 1.787515 -0.000477 -0.001042 0.001418
N 6.414392 -3.783315 7.026677 0.000072 -0.000077 -0.001531
N 6.409869 -3.726761 -3.439108 -0.000355 -0.000636 -0.001170
N 4.805834 -0.991536 1.831148 -0.000897 0.001765 -0.002214
N 4.761698 -1.024332 7.062119 -0.000420 -0.000684 -0.001419
N 4.799459 -0.945337 -3.369375 -0.000633 -0.000559 -0.001287
N -3.238461 1.843285 1.788741 -0.000573 -0.000636 0.001945
N -3.243043 1.791018 7.031161 -0.001019 -0.000008 -0.000630
N -3.241301 1.839706 -3.376909 -0.000926 -0.000092 -0.000948
N 0.033725 -3.795578 1.850286 -0.002262 0.001783 -0.003397
N -0.013646 -3.776072 7.032327 -0.001161 -0.000031 -0.001300
N -0.011619 -3.725426 -3.422336 -0.000631 -0.000609 -0.000301
N -1.619824 -0.987597 1.833554 -0.001040 0.001776 -0.000802
N -1.619292 -0.998676 7.051161 -0.001229 -0.001296 -0.000589
N -1.626289 -0.936809 -3.373245 -0.001312 -0.000590 -0.000784
