108
Energy=-1764153.258451 Lattice="9.559714 0.000000 0.000000 -4.783619 8.282248 0.000000 0.002070 -0.021311 15.428681" Stress="0.000002 0.000001 0.000001 0.000001 0.000008 -0.000005 0.000001 -0.000005 -0.000017" Properties=species:S:1:pos:R:3:forces:R:3
Al 1.580903 0.864268 2.395777 -0.000095 -0.000707 0.000115
Al 1.552750 0.882939 7.567007 0.000046 -0.001765 0.000368
Al 1.569694 0.898896 -2.699245 0.000231 -0.001352 -0.000078
Al -0.026141 3.636829 2.416734 0.001135 0.003957 0.001904
Al -0.010126 3.603704 7.569801 -0.002995 0.007761 -0.007839
Al -0.012952 3.641601 -2.708779 -0.000418 0.000153 0.000078
Al 3.137823 -1.889288 2.416283 0.006160 -0.002032 -0.003163
Ga 3.179276 -1.899937 7.552673 0.000324 -0.000846 0.000125
Ga 3.179274 -1.869907 -2.688495 -0.000187 0.000163 -0.000088
Al -4.821909 0.874576 2.428455 -0.000309 -0.002636 -0.000089
Ga -4.799390 0.868336 7.552472 0.000726 -0.001075 0.000465
Al -4.814235 0.884257 -2.703128 0.000279 -0.000983 -0.001048
Ga -6.415556 3.628947 2.398151 -0.000529 0.000673 0.000316
Ga -6.417362 3.633738 7.565464 -0.000092 0.000849 0.000400
Ga -6.406417 3.643847 -2.691699 0.000403 0.000293 -0.000187
Ga -3.210579 -1.901836 2.437909 -0.001976 0.000068 -0.000143
Al -3.197822 -1.895733 7.544531 -0.000092 -0.000233 -0.000504
Al -3.208557 -1.873451 -2.709923 -0.000274 0.000496 0.000380
Ga -1.617538 0.871001 2.434693 0.000718 -0.001174 0.001655
Al -1.610051 0.868927 7.555995 0.000665 -0.001456 -0.000136
Ga -1.613167 0.889761 -2.730654 0.001155 -0.000832 -0.000015
Ga -3.200567 3.640728 2.420874 0.000703 0.001002 0.000334
Ga -3.191514 3.626291 7.547452 0.000724 0.000665 -0.000263
Ga -3.214508 3.652014 -2.692328 0.000718 0.000237 0.000429
Al -0.006409 -1.878302 2.416956 -0.000256 0.000899 -0.000472
Ga -0.036971 -1.871783 7.572349 0.000618 -0.000143 0.000686
Ga -0.030437 -1.868670 -2.715065 0.001214 0.000182 0.000645
Ga -0.026721 1.803033 4.985910 -0.001537 0.000923 0.000648
Al -0.020887 1.807770 -5.305688 -0.000915 -0.000990 0.001113
Ga -0.002044 1.820325 -0.133175 -0.000899 -0.000432 -0.002883
Al 3.181969 -3.736813 4.970331 0.000302 -0.000444 0.001138
Ga 3.177351 -3.729313 -5.284805 -0.001713 0.000645 0.000962
Al 3.177650 -3.715185 -0.137090 -0.000974 0.000879 0.001744
Ga 1.572350 -0.974736 4.968060 -0.000908 0.000699 0.001478
Ga 1.560796 -0.942467 -5.284933 -0.001195 0.000672 0.000417
Al 1.578522 -0.962646 -0.133031 -0.001278 0.000577 0.000708
Ga 3.157534 1.794903 4.977418 0.000227 -0.000189 0.001235
Ga 3.147092 1.812141 -5.274271 0.000133 -0.000268 0.000753
Al 3.158070 1.799336 -0.150077 -0.000007 0.000294 0.001198
Al 6.336264 -3.726826 4.999202 -0.000935 -0.000210 0.001339
Ga 6.349607 -3.704582 -5.288756 0.000810 0.000482 0.001095
Al 6.342418 -3.723184 -0.165667 0.000491 0.000709 0.003140
Ga 4.770982 -0.978569 4.969939 -0.000866 0.000478 -0.000206
Ga 4.783036 -0.955143 -5.276745 -0.000542 0.000729 0.000504
Ga 4.753059 -0.954071 -0.137878 -0.000592 -0.000770 0.005054
Al -3.205580 1.788379 4.991003 0.000183 0.000009 0.000699
Ga -3.202670 1.811986 -5.288270 -0.000159 0.000059 0.000353
Ga -3.231065 1.817449 -0.137116 0.000156 -0.000546 -0.004391
Ga -0.026022 -3.722300 4.969937 0.000513 -0.000019 0.000503
Al -0.026568 -3.703783 -5.288356 0.000313 0.000273 0.000339
Al -0.021232 -3.709971 -0.126203 -0.000220 0.000189 0.000750
Al -1.618658 -0.973288 4.997243 -0.000479 0.001333 0.000579
Al -1.618063 -0.950935 -5.302026 -0.000194 0.000812 0.000222
Ga -1.605562 -0.975227 -0.134575 -0.000873 0.000119 -0.004501
N 1.566465 0.874729 4.302706 0.000050 -0.001253 -0.000568
N 1.528710 0.915744 -5.945309 -0.000294 -0.000265 -0.000987
N 1.604852 0.862219 -0.771876 0.000515 -0.001912 0.000243
N -0.019453 3.678923 4.342707 0.000039 -0.000178 -0.000507
N -0.018947 3.605907 -5.957520 0.000045 -0.001969 0.003027
N -0.026853 3.685671 -0.789546 -0.000008 0.000397 -0.000211
N 3.163191 -1.938781 4.318372 -0.001124 -0.001024 0.005095
N 3.171035 -1.874678 -5.901325 0.000024 0.000088 -0.000420
N 3.127653 -1.898079 -0.712970 -0.000234 -0.001309 0.000110
N -4.768269 0.901685 4.343028 0.000791 -0.000158 -0.000100
N -4.808685 0.893455 -5.910556 0.000297 -0.000532 -0.000172
N -4.847773 0.909155 -0.796840 -0.000125 -0.000662 0.000580
N -6.448525 3.656897 4.377287 -0.000489 0.000557 -0.000446
N -6.363765 3.672958 -5.884646 0.000096 0.000159 -0.000442
N -6.394391 3.645534 -0.698877 -0.000167 -0.000048 0.000279
N -3.161204 -1.921171 4.407968 0.001068 -0.000255 0.001092
N -3.166136 -1.851996 -5.959664 0.000783 0.000357 -0.001052
N -3.206919 -1.916750 -0.793100 -0.000068 -0.000825 -0.000588
N -1.659477 0.848022 4.411348 0.001148 -0.001275 0.000301
N -1.581548 0.870513 -5.928977 0.002146 -0.000928 -0.000356
N -1.616076 0.890015 -0.759580 0.001153 -0.000797 -0.000632
N -3.171253 3.607489 4.401645 0.001164 0.000345 0.000383
N -3.249318 3.676920 -5.901455 0.000124 0.000024 -0.000241
N -3.213482 3.699387 -0.711974 0.000769 0.000763 -0.000101
N -0.064461 -1.860856 4.331563 0.000371 0.000560 -0.000745
N -0.065184 -1.890240 -5.873346 0.000257 -0.000179 0.000030
N 0.018583 -1.900551 -0.733751 0.001972 0.000001 -0.000282
N 0.014461 1.818175 1.837809 0.000611 0.000200 0.002699
N -0.021983 1.796618 6.977997 -0.000358 -0.004359 0.001105
N 0.024526 1.833787 -3.360815 -0.000094 0.000330 -0.001163
N 3.211891 -3.703913 1.791552 -0.000769 -0.002352 -0.002566
N 3.218221 -3.755039 6.891365 0.001745 -0.002061 0.001623
N 3.211056 -3.739854 -3.308976 0.000299 -0.000530 -0.000730
N 1.583197 -0.970801 1.805644 -0.006482 0.002686 -0.002221
N 1.576948 -0.926082 6.953068 -0.001160 0.002100 -0.000298
N 1.579474 -0.904821 -3.309649 -0.001194 0.001618 -0.000135
N 3.163787 1.747417 1.779688 0.000153 -0.000663 -0.001858
N 3.118390 1.768297 6.954968 -0.000620 -0.000816 -0.000781
N 3.157573 1.765337 -3.291451 -0.000317 -0.000821 0.000001
N 6.301771 -3.744221 1.760272 -0.000197 -0.002177 -0.004392
N 6.306609 -3.715150 6.930092 -0.000201 0.000383 -0.000416
N 6.311964 -3.688462 -3.299683 -0.000593 -0.000066 -0.000616
N 4.710391 -0.955538 1.873300 0.002548 0.005040 -0.006553
N 4.800819 -0.994483 6.942852 0.000526 0.000408 -0.000248
N 4.803790 -0.931303 -3.291059 0.000273 0.000778 0.000096
N -3.254696 1.767253 1.815363 -0.000979 -0.000085 0.004500
N -3.169030 1.767071 6.910718 0.000560 -0.000655 -0.000493
N -3.254114 1.791195 -3.311370 -0.000415 -0.000475 -0.000248
N -0.020835 -3.679725 1.792318 -0.000032 0.000288 -0.001214
N -0.021900 -3.725378 6.936815 -0.000041 0.000012 -0.000262
N -0.024031 -3.714996 -3.375284 -0.000283 -0.000137 -0.000982
N -1.580907 -0.994924 1.813595 0.001293 0.001057 0.005110
N -1.648949 -0.948409 6.922141 -0.000963 0.001775 0.000082
N -1.657798 -0.977549 -3.376158 -0.001052 0.000667 -0.001191
