108
Energy=-1.535276e+06 Lattice="9.520903e+00 0.000000e+00 0.000000e+00 -4.762600e+00 8.243838e+00 0.000000e+00 1.306273e-03 -2.101350e-03 1.537783e+01" Stress="-2.336558e-03 -2.430461e-04 9.251253e-05 -2.248812e-04 -2.574064e-03 -5.946782e-05 8.092457e-05 -4.979817e-05 -2.729029e-03" Properties=species:S:1:pos:R:3:forces:R:3 Config_type=AlGaN_super3_24_0_20.xyz
Al 1.556936e+00 8.721768e-01 2.427740e+00 1.512103e-04 -1.974002e-04 1.270499e-04
Al 1.563374e+00 8.675994e-01 7.546182e+00 1.456418e-04 5.510229e-05 1.800061e-04
Al 1.564914e+00 8.731800e-01 -2.728416e+00 1.342772e-04 3.643263e-05 1.701793e-04
Al -2.497064e-02 3.623167e+00 2.411496e+00 -7.182732e-04 2.143014e-04 3.201944e-04
Al -2.531888e-02 3.623330e+00 7.550524e+00 -4.344724e-05 2.782046e-05 -1.958071e-04
Ga -1.422431e-02 3.620865e+00 -2.718488e+00 6.140712e-05 3.199436e-05 2.459320e-04
Al 3.146152e+00 -1.878947e+00 2.447696e+00 -7.313868e-04 3.304969e-04 -4.296929e-04
Ga 3.158348e+00 -1.870635e+00 7.523931e+00 -9.888398e-05 1.440854e-04 1.576659e-04
Al 3.150371e+00 -1.862980e+00 -2.731077e+00 -5.806549e-05 1.619552e-04 3.315524e-04
Ga -4.788650e+00 8.745640e-01 2.427400e+00 1.918625e-04 2.033127e-04 -1.444286e-04
Al -4.770628e+00 8.708551e-01 7.537835e+00 1.321718e-04 -1.366773e-05 2.114710e-04
Ga -4.791804e+00 8.757857e-01 -2.717033e+00 3.849775e-04 2.021740e-04 -5.013777e-05
Al -6.373210e+00 3.627210e+00 2.403546e+00 2.281048e-04 -4.275592e-05 1.215119e-04
Ga -6.373751e+00 3.623441e+00 7.560153e+00 3.673554e-06 8.186026e-05 2.051552e-04
Al -6.365801e+00 3.631394e+00 -2.718071e+00 3.605834e-05 3.236113e-04 -4.746229e-04
Ga -3.197314e+00 -1.877336e+00 2.395418e+00 -6.142874e-06 5.568171e-05 1.461665e-04
Al -3.214723e+00 -1.873874e+00 7.547676e+00 -1.329986e-04 6.709675e-05 4.173940e-05
Ga -3.208269e+00 -1.882575e+00 -2.689656e+00 -3.786693e-05 1.920605e-05 3.237824e-04
Al -1.601543e+00 8.821664e-01 2.427743e+00 -1.075014e-04 -4.611861e-05 1.003552e-04
Ga -1.620987e+00 8.976293e-01 7.548997e+00 3.427468e-04 -2.047739e-04 -2.217634e-04
Ga -1.605341e+00 8.927881e-01 -2.723003e+00 3.795409e-05 -6.075060e-05 9.782621e-05
Al -3.193401e+00 3.638558e+00 2.424123e+00 7.548501e-05 -1.482789e-03 3.612129e-04
Al -3.191845e+00 3.610484e+00 7.532670e+00 -1.915133e-05 2.652562e-04 2.335346e-04
Al -3.211881e+00 3.634849e+00 -2.714858e+00 -4.912722e-04 -1.123701e-03 8.146399e-04
Al -1.689436e-02 -1.871908e+00 2.396266e+00 7.048347e-04 -1.376722e-07 -2.710815e-04
Ga -3.654153e-03 -1.871355e+00 7.556170e+00 1.416806e-04 -1.742614e-04 2.116872e-04
Ga -2.355526e-03 -1.886442e+00 -2.703171e+00 3.884191e-06 -1.145987e-04 2.895212e-04
Ga -2.479564e-02 1.795940e+00 4.971497e+00 -2.645509e-04 3.256780e-04 -9.266995e-05
Al -1.522221e-02 1.794049e+00 -5.290539e+00 5.321515e-04 -4.009332e-04 -1.630802e-04
Ga -1.771379e-02 1.787266e+00 -1.168782e-01 -2.374668e-04 6.074980e-05 6.968294e-05
Al 3.148037e+00 -3.704136e+00 4.970444e+00 6.500403e-04 -4.380282e-04 -3.182061e-04
Ga 3.143675e+00 -3.708933e+00 -5.278952e+00 -5.285714e-04 -5.944336e-06 2.066662e-05
Ga 3.149743e+00 -3.686003e+00 -1.404222e-01 -2.850273e-04 5.979171e-05 1.907922e-04
Al 1.575401e+00 -9.602341e-01 4.951142e+00 -3.985749e-04 -4.534305e-04 4.549677e-04
Al 1.571141e+00 -9.495315e-01 -5.262143e+00 -1.962334e-04 1.699163e-04 1.959457e-04
Ga 1.576351e+00 -9.607662e-01 -1.340004e-01 -3.062827e-04 -1.537206e-04 3.640344e-04
Ga 3.153373e+00 1.774944e+00 4.992261e+00 7.154379e-05 1.334189e-04 2.036090e-04
Ga 3.145455e+00 1.786927e+00 -5.278865e+00 2.508606e-04 9.856965e-06 9.371179e-05
Ga 3.143460e+00 1.808531e+00 -1.511940e-01 -1.023283e-05 -4.028410e-04 -5.287109e-05
Ga 6.306785e+00 -3.699397e+00 4.980147e+00 1.238128e-05 -7.806040e-05 -2.294404e-05
Al 6.318269e+00 -3.699428e+00 -5.284204e+00 1.062677e-03 6.264784e-04 6.169655e-04
Al 6.341752e+00 -3.696543e+00 -1.360978e-01 -9.942182e-05 8.439647e-05 8.978916e-05
Al 4.730701e+00 -9.571903e-01 4.990290e+00 1.155737e-04 1.810694e-05 3.858944e-04
Al 4.741313e+00 -9.571316e-01 -5.290615e+00 6.840789e-05 8.153266e-04 -3.737090e-04
Al 4.737308e+00 -9.697078e-01 -1.402826e-01 -2.917499e-04 -8.726973e-05 8.036327e-06
Al -3.196659e+00 1.798668e+00 4.974431e+00 -1.180350e-04 2.565358e-04 1.136910e-04
Al -3.204271e+00 1.804145e+00 -5.284933e+00 -9.261022e-04 3.398812e-04 9.387432e-04
Ga -3.197476e+00 1.798302e+00 -1.310059e-01 7.410769e-05 -1.171608e-04 -1.400058e-04
Ga -2.028817e-03 -3.704050e+00 4.958291e+00 2.479997e-05 -6.486054e-05 2.434805e-04
Al -1.648124e-02 -3.710285e+00 -5.263942e+00 1.108706e-03 -1.103779e-03 -5.774562e-04
Al -3.803734e-02 -3.706985e+00 -1.358539e-01 1.314610e-03 1.763481e-03 4.978874e-04
Ga -1.609863e+00 -9.511913e-01 4.977136e+00 -1.397235e-04 -3.910202e-05 2.428387e-04
Ga -1.616852e+00 -9.612262e-01 -5.283716e+00 -2.161068e-04 -3.271966e-05 2.033652e-04
Al -1.611948e+00 -9.632115e-01 -1.293198e-01 5.137394e-05 -1.943055e-05 -7.705805e-05
N 1.565760e+00 8.309873e-01 4.330660e+00 2.143592e-05 1.069059e-04 -2.225422e-04
N 1.521692e+00 8.427240e-01 -5.915433e+00 -2.725201e-04 1.921959e-04 3.584148e-05
N 1.557453e+00 8.733046e-01 -8.204167e-01 1.472977e-04 7.291680e-05 -7.939875e-05
N -6.404310e-02 3.649477e+00 4.319896e+00 -3.866445e-04 3.296807e-04 4.338896e-04
N 1.369673e-02 3.604160e+00 -5.906265e+00 -5.377189e-04 -3.122220e-04 -1.457979e-04
N 1.958067e-02 3.646469e+00 -7.407313e-01 1.796552e-04 4.032169e-05 -1.076560e-04
N 3.158283e+00 -1.874725e+00 4.378216e+00 -1.099491e-04 2.892605e-05 -5.244278e-05
N 3.148405e+00 -1.825785e+00 -5.873371e+00 4.133220e-05 2.138644e-04 -8.765733e-05
N 3.193731e+00 -1.844220e+00 -8.167727e-01 8.037665e-05 -1.566184e-07 -1.243137e-04
N -4.742676e+00 8.481608e-01 4.401768e+00 1.876450e-04 1.115562e-04 6.765168e-05
N -4.739949e+00 8.541762e-01 -5.912727e+00 1.769370e-04 -8.807373e-04 -8.369297e-05
N -4.782437e+00 8.284503e-01 -7.418734e-01 1.638990e-05 -4.205752e-05 -3.716171e-05
N -6.374866e+00 3.622190e+00 4.315336e+00 -8.864321e-05 3.413266e-05 -2.673087e-04
N -6.371052e+00 3.674658e+00 -5.849279e+00 -3.514786e-05 9.419192e-05 -9.470575e-05
N -6.368647e+00 3.680755e+00 -7.885462e-01 -8.611679e-04 -3.893495e-04 -6.154073e-04
N -3.238736e+00 -1.846935e+00 4.364274e+00 -2.284695e-04 8.863851e-05 -1.433260e-04
N -3.242528e+00 -1.896190e+00 -5.916342e+00 -2.721763e-04 -1.243549e-04 9.958805e-05
N -3.196610e+00 -1.871608e+00 -6.964941e-01 -5.443929e-05 -7.970074e-05 1.482756e-05
N -1.651851e+00 8.991072e-01 4.339442e+00 2.766581e-04 -1.437386e-04 -1.542771e-04
N -1.616078e+00 9.308651e-01 -5.854017e+00 4.947736e-04 -2.517049e-04 -1.638181e-04
N -1.609188e+00 8.347510e-01 -7.481370e-01 3.419071e-04 -2.191975e-04 -1.113112e-05
N -3.153271e+00 3.601423e+00 4.340213e+00 -2.028316e-04 -9.636618e-05 -6.212375e-04
N -3.239269e+00 3.601364e+00 -5.926134e+00 -5.354237e-04 3.900966e-04 2.174314e-04
N -3.243975e+00 3.653550e+00 -7.919430e-01 1.043413e-04 -1.404070e-04 -1.227627e-03
N 1.413109e-02 -1.849460e+00 4.311012e+00 4.531841e-04 4.384932e-04 6.462631e-04
N 2.852461e-02 -1.897383e+00 -5.843827e+00 -9.493827e-05 3.010150e-04 -5.201489e-05
N -5.730983e-02 -1.895600e+00 -7.168980e-01 -3.505302e-05 -6.223415e-04 -3.639762e-05
N -2.046844e-02 1.790473e+00 1.864249e+00 9.496332e-05 -1.226273e-04 -2.232213e-04
N 2.169813e-02 1.815762e+00 6.952927e+00 -1.247910e-05 2.911602e-04 -2.636232e-05
N 2.191781e-02 1.770775e+00 -3.378850e+00 -9.834436e-05 2.421509e-04 -2.179212e-04
N 3.149459e+00 -3.696719e+00 1.849172e+00 -2.134072e-05 4.251939e-04 -1.638978e-04
N 3.153715e+00 -3.757225e+00 6.903784e+00 7.474525e-05 6.640651e-05 1.014340e-04
N 3.108319e+00 -3.684347e+00 -3.295735e+00 3.805171e-04 2.576699e-04 -9.197366e-05
N 1.573813e+00 -9.557859e-01 1.850856e+00 7.833630e-04 -5.737010e-04 3.156166e-04
N 1.566322e+00 -9.105521e-01 6.868467e+00 -3.621368e-04 1.011359e-04 -9.003620e-04
N 1.607005e+00 -9.311051e-01 -3.344315e+00 -1.401220e-04 9.005954e-05 -7.497116e-05
N 3.105112e+00 1.814602e+00 1.828802e+00 -1.589278e-04 1.414326e-05 3.153072e-05
N 3.150334e+00 1.743465e+00 6.976072e+00 5.576663e-05 -4.684665e-05 -2.049530e-04
N 3.108873e+00 1.818591e+00 -3.296764e+00 -7.164339e-05 4.274693e-05 1.301261e-04
N 6.326890e+00 -3.755128e+00 1.778223e+00 2.479298e-04 -1.138533e-04 -2.297627e-04
N 6.282969e+00 -3.683070e+00 6.957083e+00 -2.088538e-05 -1.130130e-05 -5.853758e-05
N 6.365387e+00 -3.720041e+00 -3.368865e+00 1.749657e-04 -2.529848e-04 -1.730755e-04
N 4.683585e+00 -9.830215e-01 1.767073e+00 -1.621181e-04 -8.011362e-05 1.290071e-04
N 4.779945e+00 -9.333665e-01 6.906180e+00 9.802211e-05 1.632011e-04 -3.921242e-04
N 4.705995e+00 -9.797793e-01 -3.377106e+00 -1.717383e-04 -1.254779e-04 -1.917994e-04
N -3.156888e+00 1.820118e+00 1.840019e+00 4.454004e-05 8.244206e-04 2.786140e-04
N -3.238024e+00 1.818767e+00 6.895953e+00 -2.963339e-04 -4.092320e-04 -4.574717e-04
N -3.202790e+00 1.845493e+00 -3.365558e+00 1.777063e-04 5.706622e-04 -5.447102e-04
N -2.188301e-02 -3.708641e+00 1.797617e+00 1.176867e-04 -1.582930e-04 4.979813e-05
N 1.972997e-02 -3.726353e+00 6.928502e+00 -1.077667e-05 -9.366230e-05 -3.115919e-04
N -1.868357e-02 -3.750986e+00 -3.349638e+00 -4.299331e-04 -1.807362e-04 3.924687e-04
N -1.566857e+00 -9.259333e-01 1.788812e+00 -3.391524e-04 -1.293968e-05 -1.092526e-04
N -1.644971e+00 -9.796085e-01 6.957801e+00 -2.537331e-04 -2.011376e-05 -1.428568e-04
N -1.610932e+00 -9.620723e-01 -3.320428e+00 -1.574852e-04 -5.343953e-05 -1.210806e-04
