108
Energy=-1.169071e+06 Lattice="9.481129e+00 0.000000e+00 0.000000e+00 -4.753354e+00 8.206219e+00 0.000000e+00 3.270868e-03 -2.785212e-03 1.529977e+01" Stress="-2.206197e-03 -9.559625e-04 4.773701e-04 -9.530083e-04 -2.294938e-03 7.433380e-05 4.531876e-04 7.558500e-05 3.470593e-03" Properties=species:S:1:pos:R:3:forces:R:3 Config_type=AlGaN_super3_16_1_4.xyz
Al 1.563295e+00 8.476489e-01 2.399644e+00 5.881518e-03 2.534166e-03 1.168795e-02
Al 1.566000e+00 8.424497e-01 7.507006e+00 7.387627e-04 4.846151e-03 1.365020e-03
Al 1.551721e+00 8.542864e-01 -2.707340e+00 8.256341e-04 4.631853e-03 -3.188170e-03
Al -2.968611e-02 3.637634e+00 2.300729e+00 5.312263e-04 -1.461619e-02 3.558766e-02
Al -2.742502e-02 3.612245e+00 7.535383e+00 -2.378141e-03 -3.714114e-03 -3.657250e-04
Al -3.767787e-02 3.616200e+00 -2.747217e+00 1.184792e-03 7.972279e-04 5.970135e-03
Al 3.114214e+00 -1.876612e+00 2.401158e+00 4.112997e-03 8.145674e-03 8.146035e-03
Al 3.139029e+00 -1.853831e+00 7.514226e+00 1.581791e-03 -1.293341e-03 2.904198e-03
Al 3.149481e+00 -1.872604e+00 -2.739597e+00 5.241799e-04 -1.166006e-03 5.217507e-03
Al -4.776190e+00 8.849281e-01 2.404979e+00 -8.266454e-03 -4.183220e-03 1.299858e-02
Al -4.779721e+00 8.661455e-01 7.495182e+00 4.408826e-03 3.877859e-03 3.694386e-03
Ga -4.793822e+00 8.636954e-01 -2.750594e+00 2.685723e-03 2.014260e-03 5.251398e-03
Al -6.380897e+00 3.594974e+00 2.417066e+00 -4.202186e-04 -4.870776e-03 7.130665e-03
Ga -6.345991e+00 3.598109e+00 7.508196e+00 1.764457e-03 7.034222e-04 8.966147e-04
Ga -6.367098e+00 3.598881e+00 -2.742935e+00 2.486511e-03 2.194760e-04 3.730592e-03
Ga -3.170539e+00 -1.878962e+00 2.420272e+00 -2.634302e-04 3.620357e-03 5.697416e-03
Ga -3.192484e+00 -1.867568e+00 7.475612e+00 6.382012e-04 -1.916341e-04 2.533583e-03
Al -3.189739e+00 -1.870667e+00 -2.723899e+00 1.002197e-04 -3.945630e-04 7.511870e-03
Al -1.606281e+00 8.689031e-01 2.435571e+00 2.132153e-04 -6.681231e-04 6.771971e-03
Ga -1.611172e+00 8.867392e-01 7.509995e+00 -1.763147e-03 1.636645e-03 1.908734e-03
Ga -1.609051e+00 8.920329e-01 -2.734901e+00 -1.244100e-04 1.654414e-03 2.275411e-03
Ga -3.192252e+00 3.622451e+00 2.444150e+00 -2.469310e-04 -2.878020e-03 5.140060e-03
Al -3.185113e+00 3.626319e+00 7.509523e+00 -1.715698e-03 -4.790961e-03 1.235787e-03
Al -3.173204e+00 3.627490e+00 -2.748672e+00 -2.007616e-03 -2.448060e-03 4.876168e-03
Al -1.363833e-02 -1.825243e+00 2.413886e+00 -2.670649e-03 3.229461e-04 7.187440e-03
Al 2.007562e-02 -1.850166e+00 7.485357e+00 -3.732052e-03 -5.791849e-03 3.036107e-03
Ga 6.706615e-03 -1.849081e+00 -2.720933e+00 -5.108165e-04 -3.808209e-03 5.437627e-03
Ga -1.601068e-02 1.768020e+00 4.978018e+00 -1.190560e-03 3.337840e-03 -4.163943e-03
Al 1.285873e-03 1.797457e+00 -5.262892e+00 -4.507019e-03 -1.657751e-03 -1.658472e-04
Ga -1.116759e-02 1.769900e+00 -1.188837e-01 1.238465e-03 2.043688e-03 -4.871103e-03
Ga 3.163496e+00 -3.676897e+00 4.998251e+00 5.469621e-03 1.005641e-03 8.824245e-04
Al 3.142605e+00 -3.687314e+00 -5.271181e+00 -2.245438e-04 3.131070e-03 -7.864662e-04
Al 3.143807e+00 -3.686769e+00 -1.732965e-01 2.987913e-03 5.183796e-03 -8.990845e-03
Al 1.572722e+00 -9.543400e-01 4.963832e+00 1.422282e-04 -3.265204e-04 2.922319e-03
Al 1.578701e+00 -9.353163e-01 -5.274118e+00 -1.754438e-03 -6.464600e-03 4.058584e-04
Al 1.568857e+00 -9.544264e-01 -1.384108e-01 3.599823e-03 -1.651308e-03 -4.899198e-03
Al 3.144777e+00 1.767222e+00 4.955252e+00 -1.142748e-03 3.654276e-04 1.615722e-03
Al 3.132013e+00 1.775245e+00 -5.292439e+00 -8.548783e-04 2.129240e-05 2.178871e-03
Al 3.116010e+00 1.773995e+00 -1.314343e-01 -7.832487e-04 2.579626e-03 -4.152557e-03
Al 6.323390e+00 -3.717466e+00 4.982504e+00 -6.268640e-04 8.263335e-03 -6.413860e-03
Al 6.286691e+00 -3.681357e+00 -5.256394e+00 1.971332e-03 -3.109883e-03 1.977651e-03
Al 6.301990e+00 -3.691863e+00 -1.543023e-01 2.924248e-04 2.798391e-03 -1.223463e-02
Al 4.717440e+00 -9.257305e-01 4.963224e+00 3.595676e-04 -3.646444e-03 -1.386956e-03
Al 4.713994e+00 -9.390540e-01 -5.259642e+00 -4.042855e-03 -3.171973e-03 -3.230131e-03
Ga 4.716568e+00 -9.579772e-01 -1.045334e-01 -1.382244e-03 -3.751517e-03 -1.415991e-02
Al -3.204568e+00 1.770868e+00 4.967324e+00 -2.075864e-03 -4.895031e-04 3.338969e-03
Al -3.203976e+00 1.806234e+00 -5.265753e+00 -2.016144e-03 1.230752e-03 -7.718995e-03
Ga -3.195106e+00 1.794522e+00 -1.177631e-01 -1.410038e-03 -4.020703e-04 -7.961606e-03
Al -1.379940e-02 -3.676109e+00 4.964442e+00 -1.911123e-03 -2.124834e-03 8.212454e-04
Al -5.246609e-03 -3.689103e+00 -5.273242e+00 2.595535e-03 -2.202161e-04 -8.041459e-04
Ga -1.614242e-02 -3.673656e+00 -9.562742e-02 -3.713707e-03 5.850649e-04 -8.725359e-03
Al -1.581235e+00 -9.810947e-01 4.992183e+00 -3.346673e-03 9.113772e-03 -1.261823e-02
Ga -1.606745e+00 -9.646078e-01 -5.274168e+00 1.775346e-03 -7.207583e-04 -4.536414e-04
Al -1.587284e+00 -9.367812e-01 -1.363186e-01 -4.346017e-03 -7.970766e-03 -5.197047e-03
N 1.594321e+00 8.297182e-01 4.344320e+00 2.932844e-03 2.282008e-03 -6.250742e-03
N 1.560586e+00 8.662566e-01 -5.873754e+00 -2.748894e-03 1.399425e-03 -4.064167e-03
N 1.597168e+00 8.288742e-01 -7.924838e-01 -1.261659e-03 4.632268e-03 5.572703e-03
N 3.448347e-02 3.633531e+00 4.365285e+00 -9.470764e-03 -1.783237e-03 -2.714796e-02
N -2.511321e-02 3.615816e+00 -5.855987e+00 -2.392073e-05 -2.402421e-03 1.327454e-03
N -3.023073e-02 3.646656e+00 -8.001411e-01 -4.898948e-05 -2.422615e-03 3.607928e-03
N 3.146352e+00 -1.813938e+00 4.345997e+00 -1.898300e-03 -4.408406e-03 -7.377742e-03
N 3.146748e+00 -1.854690e+00 -5.864004e+00 -9.570872e-04 -1.420699e-04 -2.867281e-04
N 3.102609e+00 -1.889350e+00 -7.918143e-01 6.020754e-04 1.175747e-03 -1.961612e-03
N -4.768934e+00 8.689894e-01 4.353599e+00 -2.200299e-04 4.400539e-03 -6.251794e-03
N -4.768571e+00 8.681836e-01 -5.871965e+00 7.257443e-04 2.519316e-03 -1.808713e-03
N -4.820261e+00 8.917577e-01 -7.546525e-01 3.687053e-03 1.652336e-03 -1.315227e-03
N -6.342790e+00 3.596824e+00 4.367859e+00 4.510855e-04 2.199282e-05 -5.125522e-03
N -6.342004e+00 3.615891e+00 -5.799087e+00 -5.670747e-03 -8.827727e-04 -5.454440e-03
N -6.389973e+00 3.579848e+00 -7.386283e-01 3.026313e-03 -3.951671e-04 -3.853619e-04
N -3.178078e+00 -1.860265e+00 4.431811e+00 2.978884e-03 -6.668902e-03 -6.325681e-03
N -3.243550e+00 -1.889745e+00 -5.845387e+00 5.615563e-03 1.476133e-03 -4.985782e-03
N -3.138616e+00 -1.880941e+00 -7.732841e-01 8.914241e-04 1.245555e-04 3.179702e-04
N -1.668247e+00 8.528706e-01 4.362412e+00 7.769414e-03 -7.036912e-03 -2.726745e-03
N -1.629265e+00 9.207198e-01 -5.818400e+00 9.077052e-03 9.060504e-04 -5.684741e-04
N -1.612541e+00 8.331133e-01 -7.496921e-01 4.908603e-04 5.114277e-03 -6.464815e-04
N -3.204347e+00 3.589552e+00 4.434140e+00 -3.040132e-03 9.632603e-04 -1.125446e-02
N -3.188795e+00 3.620360e+00 -5.868622e+00 9.223473e-05 -2.831952e-03 -3.348646e-03
N -3.150439e+00 3.643336e+00 -8.080506e-01 -4.514190e-03 -4.075228e-03 2.611685e-03
N -3.059688e-04 -1.857376e+00 4.364738e+00 -2.064182e-03 7.498634e-04 -6.421769e-03
N 2.259132e-02 -1.903615e+00 -5.905229e+00 1.806250e-03 1.026023e-02 3.850466e-03
N -7.802484e-03 -1.801044e+00 -7.228738e-01 -2.202676e-03 -4.769096e-03 -1.366210e-03
N -5.801183e-03 1.760879e+00 1.900895e+00 -8.542796e-03 8.834267e-03 -1.391096e-02
N 2.119591e-02 1.799330e+00 6.960111e+00 1.177112e-03 1.383114e-03 -3.729196e-03
N 2.384052e-02 1.810863e+00 -3.337925e+00 -1.968251e-04 -1.831329e-03 -2.115916e-04
N 3.180334e+00 -3.656301e+00 1.736217e+00 -6.644556e-03 -2.708765e-03 5.608864e-03
N 3.151216e+00 -3.688202e+00 6.979075e+00 1.678617e-03 3.715070e-03 -7.177194e-04
N 3.140616e+00 -3.692136e+00 -3.344114e+00 2.831513e-03 2.925068e-03 -4.694797e-04
N 1.559736e+00 -9.532657e-01 1.782477e+00 1.083180e-03 -2.878108e-03 1.536570e-03
N 1.572688e+00 -9.546050e-01 6.901043e+00 1.877586e-03 1.710248e-04 -5.438228e-03
N 1.618875e+00 -9.212049e-01 -3.350648e+00 -3.046349e-03 -2.733264e-03 -2.502999e-03
N 3.126050e+00 1.780565e+00 1.787733e+00 7.270585e-04 7.796003e-04 3.571223e-03
N 3.136099e+00 1.727633e+00 6.884962e+00 -2.595703e-03 1.961308e-03 -2.571289e-03
N 3.065454e+00 1.745307e+00 -3.397845e+00 4.439919e-03 3.025533e-03 5.982481e-03
N 6.293863e+00 -3.754622e+00 1.737778e+00 6.394287e-03 1.045838e-02 6.189433e-03
N 6.250791e+00 -3.729594e+00 6.858612e+00 7.222285e-03 2.936698e-03 7.193885e-03
N 6.257323e+00 -3.656483e+00 -3.349101e+00 4.082425e-04 -1.081774e-03 1.818414e-03
N 4.666530e+00 -9.266286e-01 1.847908e+00 3.581916e-03 -4.295490e-03 2.818531e-03
N 4.680141e+00 -9.150457e-01 6.882584e+00 -2.099464e-03 -4.454437e-03 -3.790369e-03
N 4.730313e+00 -1.004614e+00 -3.361450e+00 -2.286683e-03 1.479256e-03 6.427509e-03
N -3.202438e+00 1.730156e+00 1.857143e+00 7.093978e-03 9.341521e-03 -3.387793e-03
N -3.232886e+00 1.811199e+00 6.885890e+00 -9.806748e-04 -1.360725e-05 2.991868e-04
N -3.197800e+00 1.843202e+00 -3.392225e+00 -1.845761e-03 -1.965233e-03 1.275143e-02
N -9.150815e-02 -3.643564e+00 1.899103e+00 8.631783e-03 -3.552727e-03 -9.676815e-03
N 2.953380e-02 -3.656719e+00 6.886138e+00 -3.699183e-03 3.225499e-04 -3.562160e-03
N 3.257402e-02 -3.704691e+00 -3.375099e+00 -4.568732e-03 1.903765e-03 6.042782e-03
N -1.556589e+00 -9.087451e-01 1.768447e+00 -3.280825e-03 -5.025207e-03 7.169329e-03
N -1.542954e+00 -9.626935e-01 6.862584e+00 -1.658124e-03 -4.392697e-03 8.575145e-03
N -1.633381e+00 -9.701257e-01 -3.314788e+00 -4.088113e-04 -2.304682e-03 1.922262e-03
