108
Energy=-8.486435e+05 Lattice="9.445203e+00 0.000000e+00 0.000000e+00 -4.722687e+00 8.178605e+00 0.000000e+00 2.774623e-03 9.500693e-04 1.518378e+01" Stress="2.651193e-04 -4.312890e-04 2.575493e-04 -4.259133e-04 -5.813027e-04 -1.384514e-04 2.548649e-04 -1.432443e-04 4.105277e-04" Properties=species:S:1:pos:R:3:forces:R:3 Config_type=AlGaN_super3_9_2_20.xyz
Al 1.555140e+00 8.780798e-01 2.375195e+00 1.791350e-04 -2.059745e-04 -2.326270e-03
Al 1.556332e+00 8.770473e-01 7.450180e+00 -1.036764e-04 2.224629e-03 7.474787e-04
Al 1.564137e+00 8.752588e-01 -2.688430e+00 -3.716457e-04 9.513938e-05 3.789319e-04
Al -2.724060e-02 3.591103e+00 2.396289e+00 -4.050754e-03 -1.077534e-03 1.556043e-03
Al -1.345463e-02 3.596972e+00 7.438977e+00 -7.610638e-04 5.240098e-04 -9.067655e-04
Al -2.465516e-02 3.591136e+00 -2.692791e+00 -1.244301e-04 -6.751875e-05 -4.313553e-04
Al 3.133481e+00 -1.859015e+00 2.370285e+00 1.395633e-04 -2.906801e-04 6.851588e-04
Al 3.138953e+00 -1.855250e+00 7.453735e+00 -1.065863e-03 1.526367e-03 -1.017162e-03
Al 3.125692e+00 -1.855827e+00 -2.683393e+00 -1.014611e-04 5.842742e-06 4.009466e-04
Al -4.751804e+00 8.666314e-01 2.371213e+00 -1.942863e-04 -1.258154e-04 -1.329242e-04
Al -4.755692e+00 8.599092e-01 7.451564e+00 -4.403046e-05 5.719911e-05 -1.789351e-04
Al -4.760911e+00 8.745034e-01 -2.683167e+00 2.240104e-04 -2.395184e-04 3.200825e-04
Al -6.310579e+00 3.589105e+00 2.395458e+00 -3.585461e-03 1.713844e-03 -1.472137e-03
Al -6.324964e+00 3.593863e+00 7.437494e+00 2.326911e-04 5.969554e-04 -5.731386e-04
Al -6.318632e+00 3.575941e+00 -2.692437e+00 -5.532840e-05 3.496116e-04 5.058539e-03
Al -3.183324e+00 -1.855627e+00 2.404028e+00 -1.419729e-03 2.936269e-03 1.217990e-03
Al -3.178323e+00 -1.861960e+00 7.448084e+00 -6.705043e-04 -3.735852e-04 6.411735e-05
Ga -3.189229e+00 -1.865364e+00 -2.698081e+00 1.490168e-04 9.342219e-05 1.293477e-04
Al -1.587934e+00 8.818887e-01 2.372781e+00 -7.447822e-05 1.283303e-03 1.633725e-03
Al -1.583211e+00 8.695742e-01 7.464575e+00 -1.168287e-03 4.509433e-04 -6.338838e-04
Ga -1.597631e+00 8.890799e-01 -2.684576e+00 4.317933e-04 -3.102895e-04 -2.953906e-05
Al -3.168836e+00 3.602657e+00 2.373422e+00 1.982295e-04 9.717455e-05 -7.552828e-04
Ga -3.168619e+00 3.613344e+00 7.452014e+00 3.517120e-04 -6.354042e-04 3.165491e-04
Al -3.173341e+00 3.593490e+00 -2.686137e+00 3.566096e-04 -1.609888e-05 4.434870e-04
Al -1.306598e-02 -1.865114e+00 2.373750e+00 5.106235e-04 -1.813614e-04 9.271789e-04
Al -2.023582e-02 -1.858799e+00 7.464969e+00 6.955666e-05 2.093894e-03 -3.800618e-04
Ga -6.191776e-03 -1.866224e+00 -2.683306e+00 1.537723e-04 3.721601e-04 8.281171e-05
Al -1.114437e-02 1.793164e+00 4.919593e+00 7.171640e-04 -9.006120e-05 -8.448443e-04
Al -1.594334e-02 1.781875e+00 -5.222948e+00 8.050488e-05 -1.520920e-04 9.522858e-05
Al -1.453405e-02 1.784037e+00 -1.445882e-01 3.370133e-04 7.318805e-04 4.108909e-04
Al 3.139973e+00 -3.671214e+00 4.903926e+00 9.176933e-05 -6.136208e-04 -1.792693e-03
Al 3.132837e+00 -3.671597e+00 -5.200276e+00 7.916807e-05 6.685724e-04 2.177932e-04
Al 3.117344e+00 -3.676910e+00 -1.580996e-01 3.590377e-04 -6.174373e-05 4.135966e-04
Ga 1.565169e+00 -9.466659e-01 4.914991e+00 5.039048e-05 7.471120e-05 -2.118088e-04
Al 1.559400e+00 -9.461949e-01 -5.225120e+00 -2.231306e-04 3.975478e-05 2.918617e-04
Al 1.568024e+00 -9.421313e-01 -1.410011e-01 -5.982100e-05 -2.483352e-04 6.914535e-04
Al 3.125124e+00 1.784414e+00 4.913236e+00 -1.074964e-03 -8.298324e-04 -1.133011e-03
Al 3.124761e+00 1.777352e+00 -5.213135e+00 -1.017131e-04 -1.048177e-04 -2.195765e-04
Al 3.127544e+00 1.770940e+00 -1.552532e-01 2.402899e-04 -1.938828e-04 2.069318e-03
Al 6.271512e+00 -3.684100e+00 4.911835e+00 -3.733999e-04 5.615921e-05 -4.689875e-04
Al 6.273287e+00 -3.684142e+00 -5.228733e+00 5.162621e-05 2.240504e-04 7.246073e-04
Ga 6.262135e+00 -3.687403e+00 -1.214567e-01 4.162893e-04 -3.274566e-04 1.286579e-04
Al 4.693437e+00 -9.533928e-01 4.918907e+00 -3.289735e-04 -3.331688e-04 -1.155264e-04
Al 4.692138e+00 -9.463541e-01 -5.221938e+00 6.183837e-05 -5.265072e-05 -2.303624e-05
Al 4.680636e+00 -9.381176e-01 -1.437674e-01 -9.264254e-04 5.848477e-04 1.185839e-03
Ga -3.175454e+00 1.782790e+00 4.906599e+00 7.324373e-05 1.254960e-05 -1.657086e-04
Al -3.179092e+00 1.773497e+00 -5.212751e+00 -1.976788e-05 2.156748e-03 -9.823133e-04
Al -3.186233e+00 1.788944e+00 -1.394939e-01 7.041278e-06 3.815683e-04 4.769701e-04
Al -2.679427e-02 -3.678045e+00 4.908716e+00 8.833926e-04 -1.326240e-03 -1.298299e-03
Al -3.001563e-02 -3.679415e+00 -5.208434e+00 -4.056299e-04 8.032360e-04 -3.957668e-05
Al -1.311360e-02 -3.693177e+00 -1.441773e-01 1.874213e-03 9.247035e-04 2.425673e-03
Ga -1.597182e+00 -9.544422e-01 4.925011e+00 -4.873039e-05 2.270857e-04 -3.510225e-04
Al -1.596951e+00 -9.495992e-01 -5.244871e+00 -9.557498e-05 -1.351654e-04 3.805996e-05
Ga -1.595422e+00 -9.406370e-01 -1.115877e-01 5.897052e-05 -9.407620e-05 4.703769e-04
N 1.552093e+00 9.156958e-01 4.276840e+00 6.855305e-04 1.631184e-03 5.707844e-03
N 1.554161e+00 8.732390e-01 -5.819259e+00 1.600907e-04 1.298844e-04 3.310816e-04
N 1.550585e+00 8.688077e-01 -7.587492e-01 1.425297e-04 2.153313e-04 -2.078334e-04
N -2.243037e-02 3.592363e+00 4.314033e+00 -3.142995e-05 -5.806254e-04 5.920684e-04
N -2.716609e-02 3.596423e+00 -5.825485e+00 -2.241174e-04 9.724750e-05 -7.712812e-05
N -6.227666e-02 3.572650e+00 -7.853669e-01 -6.750089e-04 -3.742435e-04 2.455873e-03
N 3.168910e+00 -1.883393e+00 4.287847e+00 3.732862e-04 1.698145e-03 -1.916047e-03
N 3.128730e+00 -1.864402e+00 -5.816732e+00 9.751211e-05 1.711055e-04 -2.154172e-04
N 3.124943e+00 -1.857456e+00 -7.567952e-01 -1.726440e-06 -1.671367e-06 -1.720516e-04
N -4.789543e+00 8.432250e-01 4.287661e+00 -7.732969e-05 -1.683834e-04 9.502805e-05
N -4.752003e+00 8.682389e-01 -5.817955e+00 8.188621e-05 2.686883e-04 1.750015e-04
N -4.746931e+00 8.683393e-01 -7.558298e-01 -4.550771e-05 3.088814e-04 -4.000668e-04
N -6.314941e+00 3.592626e+00 4.315560e+00 -1.708793e-04 -1.189242e-04 -1.626253e-04
N -6.318918e+00 3.590881e+00 -5.826221e+00 1.573167e-04 3.156733e-07 4.525703e-05
N -6.278584e+00 3.575513e+00 -7.412668e-01 -2.723086e-03 -1.137875e-03 -1.060753e-02
N -3.215419e+00 -1.879266e+00 4.314382e+00 2.781590e-04 3.706338e-04 3.719419e-04
N -3.180440e+00 -1.862789e+00 -5.816435e+00 -1.595423e-04 -1.540698e-04 3.910353e-04
N -3.214847e+00 -1.832950e+00 -7.321119e-01 8.879219e-04 -6.687499e-04 -4.329074e-04
N -1.548484e+00 8.974088e-01 4.283620e+00 -3.502214e-04 -2.654699e-04 -1.174375e-03
N -1.595179e+00 8.774945e-01 -5.806995e+00 -8.903782e-05 3.632464e-04 1.025536e-04
N -1.599206e+00 9.207507e-01 -7.112103e-01 -1.425849e-04 -4.452463e-04 1.508893e-04
N -3.165413e+00 3.645469e+00 4.286156e+00 -1.128782e-03 4.623404e-04 1.805527e-03
N -3.169393e+00 3.612575e+00 -5.761082e+00 3.552932e-04 -4.556993e-03 1.020905e-03
N -3.172241e+00 3.593215e+00 -7.593399e-01 -8.920029e-05 2.656436e-06 -3.416939e-04
N -1.655391e-02 -1.905878e+00 4.282012e+00 7.136823e-05 1.481208e-03 -1.977352e-03
N -1.671531e-02 -1.865185e+00 -5.806444e+00 6.467948e-06 1.286051e-04 4.553884e-05
N 1.830863e-02 -1.881720e+00 -7.071682e-01 3.361772e-04 4.793660e-04 -3.656838e-04
N -1.312856e-02 1.785891e+00 1.771640e+00 -4.378473e-04 -8.292086e-05 -1.002619e-03
N -1.893608e-02 1.778276e+00 6.842922e+00 -8.622178e-05 2.613108e-04 8.481663e-05
N 2.271170e-02 1.799396e+00 -3.311814e+00 -5.895069e-05 -1.864170e-05 -2.808702e-04
N 3.131045e+00 -3.676343e+00 1.767896e+00 -1.005151e-03 -2.493197e-04 -7.388405e-04
N 3.168687e+00 -3.644307e+00 6.808341e+00 7.229163e-04 -9.263394e-04 3.437253e-03
N 3.126811e+00 -3.672692e+00 -3.278094e+00 -1.177360e-04 8.012839e-06 -5.261337e-04
N 1.559178e+00 -9.425960e-01 1.781972e+00 -1.179985e-04 -1.941119e-04 -5.801629e-04
N 1.553791e+00 -9.326132e-01 6.897483e+00 6.326610e-04 -5.582167e-03 5.680455e-04
N 1.595454e+00 -9.216599e-01 -3.306340e+00 9.162667e-05 -3.956094e-04 -9.618553e-04
N 3.127234e+00 1.781853e+00 1.767828e+00 -5.592423e-04 3.914100e-05 -9.625888e-05
N 3.128529e+00 1.777781e+00 6.835919e+00 -1.917622e-04 3.253285e-04 -2.352250e-04
N 3.124948e+00 1.774765e+00 -3.292352e+00 7.317938e-05 5.357417e-04 6.880635e-04
N 6.244387e+00 -3.665354e+00 1.858554e+00 1.169704e-02 -4.558756e-03 -2.664731e-03
N 6.276413e+00 -3.675465e+00 6.836932e+00 -6.383717e-05 -2.076771e-04 3.980487e-04
N 6.274846e+00 -3.729485e+00 -3.306939e+00 5.768558e-04 9.524797e-05 -1.645028e-03
N 4.700373e+00 -9.468219e-01 1.772010e+00 -3.252585e-04 9.570914e-04 -2.580639e-04
N 4.699861e+00 -9.469250e-01 6.840885e+00 4.834373e-05 2.343541e-04 3.925490e-04
N 4.653029e+00 -9.213045e-01 -3.310461e+00 -1.569472e-04 1.088365e-04 -2.552919e-04
N -3.175255e+00 1.781616e+00 1.784598e+00 -7.146525e-05 -1.778370e-04 -4.302837e-04
N -3.173807e+00 1.736802e+00 6.879377e+00 1.510397e-03 -1.020111e-03 6.365732e-04
N -3.218735e+00 1.797437e+00 -3.300602e+00 -2.273653e-04 3.286347e-04 -4.754864e-04
N -2.386960e-02 -3.682180e+00 1.773546e+00 -7.125296e-04 7.097117e-04 4.178015e-04
N -6.255492e-02 -3.642158e+00 6.816237e+00 -3.051300e-04 -1.888486e-03 1.926807e-03
N -2.723940e-02 -3.724268e+00 -3.301214e+00 -4.286753e-04 -4.393867e-04 4.745877e-04
N -1.599099e+00 -9.455217e-01 1.859274e+00 -1.998222e-04 -1.858912e-03 -9.596696e-04
N -1.597764e+00 -9.504984e-01 6.909485e+00 1.184983e-03 1.250082e-03 8.924865e-06
N -1.595003e+00 -9.482590e-01 -3.341693e+00 -1.266833e-04 1.904859e-04 -2.816380e-04
