108
Energy=-6.655417e+05 Lattice="9.423009e+00 0.000000e+00 0.000000e+00 -4.712405e+00 8.160281e+00 0.000000e+00 -1.813698e-03 -7.623306e-04 1.512624e+01" Stress="-8.200567e-04 -5.314390e-04 5.889060e-05 -5.276685e-04 2.785916e-04 -2.426310e-05 5.887730e-05 -2.734524e-05 7.361067e-04" Properties=species:S:1:pos:R:3:forces:R:3 Config_type=AlGaN_super3_5_0_21.xyz
Al 1.548936e+00 8.705068e-01 2.375607e+00 -1.555077e-04 -3.244728e-05 -3.802152e-04
Al 1.542820e+00 8.650340e-01 7.397506e+00 3.123146e-05 2.950478e-05 -1.755010e-04
Al 1.545231e+00 8.701403e-01 -2.661282e+00 -1.323379e-04 3.435692e-04 5.483398e-04
Al -2.326974e-02 3.580063e+00 2.399724e+00 -4.216034e-03 -2.809715e-03 7.959548e-04
Al -2.299602e-02 3.587310e+00 7.410789e+00 -1.081019e-05 -7.608296e-06 -2.362854e-04
Al -2.065409e-02 3.583251e+00 -2.698845e+00 -1.415538e-04 1.828608e-05 -1.097190e-04
Al 3.122483e+00 -1.846822e+00 2.390251e+00 -9.924042e-04 -3.090527e-03 -1.650781e-03
Al 3.118902e+00 -1.852501e+00 7.407418e+00 -3.137436e-05 -2.130681e-05 -1.930260e-04
Al 3.128062e+00 -1.846078e+00 -2.685184e+00 -1.519342e-04 2.374194e-05 2.843540e-03
Al -4.739206e+00 8.648678e-01 2.361044e+00 -1.654476e-04 -5.591472e-05 -2.536693e-04
Al -4.737089e+00 8.616226e-01 7.415593e+00 2.793236e-05 5.401187e-05 -1.102184e-04
Al -4.726436e+00 8.631602e-01 -2.663727e+00 1.580749e-04 4.547581e-04 2.678126e-04
Al -6.298114e+00 3.581906e+00 2.390230e+00 5.293818e-04 -1.446065e-03 4.493277e-04
Al -6.306636e+00 3.591720e+00 7.396653e+00 -7.869796e-06 -2.788099e-06 -2.122274e-04
Al -6.304187e+00 3.587503e+00 -2.670984e+00 -8.516734e-04 -2.321393e-04 1.258021e-03
Al -3.163866e+00 -1.843969e+00 2.390391e+00 -2.154003e-04 -1.989272e-03 -8.508206e-04
Al -3.164364e+00 -1.852959e+00 7.407152e+00 2.565693e-05 -1.118052e-05 -3.533883e-04
Al -3.170673e+00 -1.847787e+00 -2.685688e+00 -3.645673e-04 -2.249788e-04 4.324391e-03
Al -1.588889e+00 8.665510e-01 2.365790e+00 3.706571e-04 1.718624e-04 -3.701686e-04
Al -1.587896e+00 8.654273e-01 7.421997e+00 1.118018e-04 -1.568154e-05 -2.837393e-04
Al -1.596159e+00 8.753424e-01 -2.675916e+00 -1.082535e-04 2.397832e-03 1.380217e-03
Al -3.167821e+00 3.588974e+00 2.379680e+00 -3.923144e-03 -2.685684e-03 1.696875e-03
Al -3.163529e+00 3.594501e+00 7.421002e+00 -1.764596e-06 -2.884463e-06 -3.253541e-04
Al -3.164619e+00 3.578475e+00 -2.686117e+00 -1.126848e-03 7.805838e-04 -3.724899e-03
Al -2.298786e-02 -1.852743e+00 2.372939e+00 3.097046e-04 4.079997e-04 -4.489896e-04
Al -2.203726e-02 -1.851503e+00 7.410228e+00 5.895388e-07 -3.610193e-05 -3.524536e-04
Ga -2.090479e-02 -1.849387e+00 -2.659967e+00 3.278921e-04 -7.628099e-04 -5.421577e-04
Al -1.612896e-02 1.772599e+00 4.897254e+00 -3.506072e-05 1.231249e-04 -2.735761e-04
Al -2.841611e-02 1.771443e+00 -5.198986e+00 2.719773e-05 1.193200e-04 1.403795e-04
Al -2.247752e-02 1.761461e+00 -1.486856e-01 -3.118516e-04 2.777914e-04 5.393067e-04
Al 3.122328e+00 -3.659101e+00 4.898649e+00 -9.004683e-05 -3.145806e-04 -1.724672e-04
Al 3.119399e+00 -3.663237e+00 -5.199068e+00 9.110758e-05 6.735652e-05 3.738513e-05
Ga 3.107041e+00 -3.665032e+00 -1.508692e-01 -6.386985e-05 -3.008802e-04 6.422487e-04
Al 1.547134e+00 -9.464684e-01 4.889740e+00 -2.095338e-04 1.248050e-04 -3.339458e-04
Al 1.548596e+00 -9.490251e-01 -5.208326e+00 -8.004287e-05 2.364770e-05 4.452590e-04
Al 1.551684e+00 -9.366783e-01 -1.332878e-01 1.090766e-03 1.517398e-03 2.461541e-03
Al 3.110908e+00 1.771970e+00 4.895549e+00 -8.698904e-05 4.194972e-05 -2.203437e-04
Ga 3.115733e+00 1.774269e+00 -5.189498e+00 -1.376903e-05 4.747332e-05 1.232887e-04
Al 3.121552e+00 1.768295e+00 -1.543849e-01 -1.950656e-04 -3.214373e-04 6.266007e-04
Al 6.259240e+00 -3.665230e+00 4.891743e+00 -5.127676e-05 -1.999609e-04 -3.318482e-04
Al 6.258849e+00 -3.657239e+00 -5.201250e+00 -3.064194e-05 -1.795826e-04 -4.313291e-05
Ga 6.263628e+00 -3.667757e+00 -1.297990e-01 6.069952e-05 5.877241e-05 -9.137487e-05
Al 4.684970e+00 -9.508533e-01 4.897648e+00 -6.320076e-06 1.190507e-04 -2.265827e-04
Al 4.694120e+00 -9.534841e-01 -5.198338e+00 -1.993055e-04 8.531400e-05 -2.128133e-04
Al 4.690696e+00 -9.348847e-01 -1.486710e-01 4.004641e-04 1.781044e-03 2.738999e-03
Ga -3.164284e+00 1.772922e+00 4.897489e+00 -2.358318e-05 1.331383e-04 -1.078839e-04
Al -3.154688e+00 1.773881e+00 -5.197979e+00 -6.222716e-05 -3.915415e-05 1.931130e-04
Al -3.165803e+00 1.767915e+00 -1.495214e-01 -7.088950e-05 2.511606e-03 -9.838268e-04
Al -2.482500e-02 -3.656860e+00 4.896893e+00 3.828106e-05 -1.174581e-04 -1.845290e-04
Al -1.889033e-02 -3.661080e+00 -5.209091e+00 -3.324483e-04 1.505263e-04 1.584418e-03
Al -2.446399e-02 -3.672479e+00 -1.336835e-01 9.388807e-04 -3.410929e-04 -2.904704e-04
Al -1.587059e+00 -9.511606e-01 4.895801e+00 -3.373954e-06 4.875831e-05 -2.170487e-04
Al -1.595020e+00 -9.431724e-01 -5.207052e+00 4.138775e-05 2.071989e-04 2.621426e-03
Al -1.595153e+00 -9.365722e-01 -1.410536e-01 1.317798e-03 5.696256e-04 1.643126e-03
N 1.547163e+00 8.683275e-01 4.295198e+00 6.896211e-05 -7.335467e-05 3.306591e-04
N 1.506780e+00 8.460967e-01 -5.821611e+00 -6.964567e-05 -2.362118e-04 7.106101e-05
N 1.544795e+00 8.645492e-01 -7.424817e-01 -1.004805e-04 2.342260e-04 -1.744479e-04
N -2.457706e-02 3.583643e+00 4.311286e+00 -3.768070e-04 2.013569e-04 4.583131e-04
N -2.143971e-02 3.587636e+00 -5.792086e+00 -2.806107e-05 -2.350358e-06 3.017005e-05
N -2.395568e-02 3.543029e+00 -7.940728e-01 2.190810e-04 -7.144546e-04 8.319696e-04
N 3.119759e+00 -1.850330e+00 4.303689e+00 2.114060e-04 -2.787880e-04 -9.605177e-05
N 3.121397e+00 -1.852464e+00 -5.800329e+00 -1.171966e-05 8.255307e-05 1.552998e-04
N 3.123063e+00 -1.796100e+00 -7.508744e-01 -1.289286e-03 -2.358641e-03 -6.870747e-03
N -4.777273e+00 8.427781e-01 4.273194e+00 5.523613e-05 -9.870495e-05 1.476954e-04
N -4.695655e+00 8.429411e-01 -5.804902e+00 1.611444e-04 -2.031589e-04 2.470134e-05
N -4.730430e+00 8.659225e-01 -7.440002e-01 2.763460e-04 2.927341e-04 -1.320060e-04
N -6.301346e+00 3.584895e+00 4.306889e+00 2.567416e-04 1.133731e-04 3.503120e-04
N -6.306688e+00 3.634005e+00 -5.820715e+00 3.366862e-05 9.433794e-05 2.502874e-05
N -6.267243e+00 3.568370e+00 -7.588030e-01 1.961533e-04 4.304284e-04 -3.978026e-04
N -3.163433e+00 -1.847268e+00 4.305429e+00 7.802951e-05 -1.630671e-05 1.698643e-05
N -3.163467e+00 -1.852622e+00 -5.802031e+00 3.093111e-04 2.378530e-04 6.949315e-04
N -3.164556e+00 -1.803899e+00 -7.466582e-01 7.838993e-04 -1.988954e-03 -7.390988e-03
N -1.551607e+00 8.437916e-01 4.275440e+00 2.000920e-04 -1.756290e-04 1.672098e-04
N -1.590233e+00 8.684603e-01 -5.793546e+00 1.556604e-04 -3.804242e-04 3.244855e-04
N -1.593092e+00 8.680279e-01 -7.508859e-01 8.280792e-05 4.683433e-04 3.992265e-04
N -3.165952e+00 3.635080e+00 4.285576e+00 -2.155729e-04 4.394949e-05 5.196912e-04
N -3.161226e+00 3.590042e+00 -5.791300e+00 -8.179002e-05 9.887116e-05 4.197489e-04
N -3.209799e+00 3.574693e+00 -7.957565e-01 -2.986637e-05 -4.439162e-03 8.873070e-03
N -2.327396e-02 -1.852106e+00 4.292384e+00 4.904859e-05 -4.879476e-05 2.529289e-04
N -2.203389e-02 -1.850719e+00 -5.797384e+00 -1.139122e-04 2.215541e-04 5.550708e-04
N -1.087744e-02 -1.852546e+00 -6.784618e-01 -3.848586e-03 1.190725e-04 -1.565888e-03
N -2.040616e-02 1.777557e+00 1.771803e+00 -5.481122e-05 -8.060293e-04 -3.753558e-04
N -2.612429e-02 1.775240e+00 6.811056e+00 -9.465953e-05 -1.157942e-04 2.534949e-04
N -2.074120e-02 1.768226e+00 -3.281250e+00 9.815822e-05 1.689388e-05 -2.693765e-04
N 3.102377e+00 -3.688788e+00 1.828175e+00 7.961327e-03 8.888528e-03 -3.865481e-04
N 3.118808e+00 -3.666341e+00 6.816832e+00 -7.909582e-05 8.883064e-05 3.028172e-04
N 3.117398e+00 -3.663157e+00 -3.277045e+00 9.525920e-05 6.264402e-04 -4.010641e-04
N 1.553473e+00 -9.448179e-01 1.786329e+00 -4.314713e-05 1.236631e-04 4.851088e-04
N 1.547858e+00 -9.487819e-01 6.806949e+00 -1.080490e-04 1.164602e-05 2.256098e-04
N 1.587983e+00 -9.190302e-01 -3.294016e+00 2.109056e-04 -3.022805e-04 -6.076995e-04
N 3.115859e+00 1.776981e+00 1.768623e+00 4.447655e-04 -3.791331e-04 -1.752125e-04
N 3.118787e+00 1.772513e+00 6.813502e+00 3.204751e-05 -8.859706e-05 1.822503e-04
N 3.118225e+00 1.771778e+00 -3.213539e+00 1.450042e-04 -5.170617e-05 -1.225671e-04
N 6.252532e+00 -3.685644e+00 1.851505e+00 2.301810e-03 7.654330e-03 -2.028866e-03
N 6.256363e+00 -3.664716e+00 6.807891e+00 1.870190e-05 9.289668e-05 2.876877e-04
N 6.264562e+00 -3.663495e+00 -3.279091e+00 -1.009749e-04 5.652568e-04 1.186539e-04
N 4.690326e+00 -9.505417e-01 1.771225e+00 -1.823074e-04 -8.852697e-04 9.239478e-04
N 4.688736e+00 -9.462861e-01 6.811234e+00 -2.491355e-05 -3.929857e-05 1.782225e-04
N 4.690491e+00 -9.430640e-01 -3.282252e+00 6.199281e-05 -3.015498e-04 5.099276e-04
N -3.162905e+00 1.775658e+00 1.775971e+00 -6.705939e-04 -2.471748e-04 -1.028567e-03
N -3.163017e+00 1.774951e+00 6.869098e+00 -9.313738e-06 -4.139956e-05 3.772232e-04
N -3.163564e+00 1.771338e+00 -3.277487e+00 -1.235435e-04 -6.006353e-05 -6.698768e-04
N -2.393971e-02 -3.668986e+00 1.781966e+00 -6.886598e-04 -3.902153e-04 -5.704834e-04
N -1.953720e-02 -3.663687e+00 6.812227e+00 6.308258e-05 8.599562e-05 3.765871e-04
N -3.022133e-02 -3.707081e+00 -3.293610e+00 2.246103e-03 1.811672e-05 -3.097009e-03
N -1.596837e+00 -9.466675e-01 1.777001e+00 -2.033372e-05 -5.020738e-04 1.311610e-04
N -1.592305e+00 -9.446198e-01 6.814961e+00 -1.281313e-05 5.090290e-05 2.535860e-04
N -1.631937e+00 -9.131752e-01 -3.276254e+00 1.259156e-04 -3.085433e-03 -5.992392e-03
