108
Energy=-2405010.074481 Lattice="9.653001 0.000000 0.000000 -4.849863 8.341677 0.000000 -0.136877 0.079069 15.677495" Stress="0.000021 -0.000009 -0.000026 -0.000009 0.000004 0.000014 -0.000026 0.000014 0.000047" Properties=species:S:1:pos:R:3:forces:R:3
Al 1.525612 0.939484 2.510268 0.002781 0.000192 -0.001067
Al 1.505043 0.918098 7.655382 0.002200 0.001087 0.002203
Ga 1.638074 0.840390 -2.760759 0.001023 0.000493 0.002759
Al -0.076254 3.710576 2.480635 -0.000644 -0.001218 0.003028
Ga -0.091177 3.711106 7.672297 0.000602 -0.000090 0.001131
Ga 0.023297 3.628992 -2.770406 0.000643 -0.000209 0.000249
Ga 3.144420 -1.824913 2.508582 0.000890 -0.001857 -0.000507
Ga 3.126234 -1.834162 7.659604 0.001100 -0.000401 0.000983
Ga 3.266384 -1.927697 -2.772934 0.000146 -0.000504 0.000318
Ga -4.935300 0.940865 2.510216 0.002498 0.000052 -0.000673
Ga -4.941799 0.922571 7.662245 0.000340 -0.000254 0.000827
Al -4.803323 0.832615 -2.779700 -0.000118 0.001585 0.000451
Ga -6.554285 3.715430 2.507569 0.002344 -0.000604 -0.001006
Ga -6.557168 3.718178 7.659954 0.000077 -0.000796 0.000439
Ga -6.417898 3.623350 -2.770081 -0.000595 -0.000183 -0.000040
Ga -3.308984 -1.841958 2.502518 0.001833 -0.000713 -0.000274
Al -3.304779 -1.851891 7.653923 -0.000379 -0.000457 0.001368
Al -3.183380 -1.927148 -2.780233 -0.000228 -0.000832 0.000902
Ga -1.688385 0.951776 2.485860 0.001070 -0.000635 -0.000412
Ga -1.705536 0.922980 7.690685 0.001260 -0.000147 -0.001022
Ga -1.602989 0.838620 -2.766091 0.001900 -0.000133 -0.000727
Ga -3.309684 3.728667 2.488959 0.001265 -0.000838 -0.001187
Ga -3.330458 3.725160 7.691267 0.000245 -0.001017 -0.000287
Ga -3.208824 3.623101 -2.763375 0.000704 -0.000172 -0.000522
Ga -0.072936 -1.814463 2.506184 0.001931 -0.001914 -0.001271
Al -0.090173 -1.829592 7.671633 0.000887 -0.001029 -0.000032
Ga 0.025455 -1.929263 -2.770866 0.000825 -0.000575 0.000105
Ga -0.064409 1.858088 5.070153 -0.001625 0.001903 0.001518
Ga 0.040556 1.765682 -5.396034 0.000058 0.001227 0.000863
Ga 0.012335 1.779926 -0.119782 0.000762 -0.001757 0.002601
Ga 3.157331 -3.686949 5.075907 0.000170 -0.000274 -0.000229
Ga 3.268927 -3.787024 -5.384526 0.000026 0.000792 -0.000153
Ga 3.259083 -3.798845 -0.129710 -0.003831 0.004631 0.002960
Al 1.533909 -0.899649 5.096401 0.000198 -0.000511 0.000132
Ga 1.651130 -1.003560 -5.409724 -0.001328 0.000661 0.001225
Ga 1.642589 -1.018725 -0.129499 -0.003650 0.005925 0.004826
Al 3.103097 1.845399 5.084485 0.000761 0.002039 0.000065
Ga 3.240455 1.765311 -5.394797 -0.000703 0.000963 0.001491
Ga 3.240431 1.754370 -0.138355 -0.004327 0.003073 0.002984
Al 6.347518 -3.693292 5.080605 0.000199 -0.000365 0.000770
Ga 6.481459 -3.772821 -5.390513 0.000209 -0.000003 0.000979
Ga 6.468485 -3.789801 -0.147045 -0.002050 0.003361 0.002754
Al 4.736730 -0.917552 5.097456 0.000071 -0.000738 -0.000426
Ga 4.880843 -1.006457 -5.385786 -0.000351 -0.000696 0.000704
Ga 4.867151 -1.015888 -0.168748 -0.003765 0.003577 0.003620
Ga -3.329524 1.857730 5.089368 -0.000087 0.000690 0.000281
Ga -3.198507 1.773678 -5.376008 -0.000213 0.000778 0.000916
Ga -3.215263 1.758378 -0.160998 -0.004364 0.003502 0.005276
Ga -0.087528 -3.685824 5.097522 -0.000476 -0.000629 -0.000075
Ga 0.043846 -3.774573 -5.399260 -0.000714 0.000337 0.000792
Ga 0.033644 -3.792779 -0.138368 -0.004306 0.003185 0.003795
Ga -1.697387 -0.927146 5.108102 -0.001193 0.000542 -0.000071
Ga -1.572112 -1.014271 -5.404365 -0.000741 -0.000347 0.001228
Ga -1.583462 -1.020948 -0.154060 -0.004275 0.003373 0.004929
N 1.553529 0.907562 4.440835 0.002346 0.000119 -0.001581
N 1.639983 0.846462 -6.088454 0.000937 0.000174 -0.001890
N 1.619996 0.840289 -0.767329 -0.000363 0.000986 -0.003946
N -0.056290 3.738381 4.419759 0.001047 -0.000154 -0.002498
N 0.029521 3.630029 -6.022586 0.000199 -0.000469 -0.000465
N 0.010509 3.622288 -0.786132 0.000059 0.000510 0.000519
N 3.132830 -1.789296 4.501940 0.000745 0.000419 0.000553
N 3.265736 -1.926375 -6.029512 0.000690 -0.000557 -0.000351
N 3.247191 -1.942807 -0.787211 -0.000408 0.000205 0.001194
N -4.967594 0.910811 4.501769 -0.000553 0.000083 -0.000241
N -4.801724 0.846316 -6.032289 0.000550 0.000373 -0.000715
N -4.814841 0.835632 -0.852834 -0.000430 0.001371 0.000969
N -6.578903 3.698356 4.503174 -0.000651 -0.001986 0.000519
N -6.416457 3.629192 -6.028511 -0.000042 -0.000500 -0.000635
N -6.423685 3.616411 -0.781188 -0.000343 0.000857 0.000247
N -3.342394 -1.859705 4.492055 -0.000827 -0.001025 0.000235
N -3.178905 -1.930088 -6.091785 -0.000244 -0.000245 -0.001231
N -3.184163 -1.942493 -0.852068 -0.000323 0.000473 0.000942
N -1.706108 0.939309 4.465780 0.001250 -0.000737 -0.000743
N -1.584600 0.854126 -6.009976 0.000517 -0.000369 -0.000215
N -1.595371 0.846068 -0.776888 0.001467 0.000289 -0.000347
N -3.322121 3.725361 4.461029 0.000283 -0.000703 -0.000231
N -3.194315 3.634257 -6.011076 0.000012 -0.001179 -0.000343
N -3.206597 3.625445 -0.780809 -0.000073 0.000447 0.001019
N -0.042064 -1.805150 4.485618 0.000823 -0.001068 0.000262
N 0.041843 -1.921283 -6.081135 0.000555 -0.000851 -0.000681
N 0.030874 -1.934550 -0.787380 0.000292 -0.000430 0.001287
N -0.024318 1.866837 1.892959 -0.002439 0.004748 -0.000972
N -0.056516 1.831069 7.059501 -0.000935 0.000486 -0.000376
N 0.028971 1.762805 -3.408026 -0.001439 0.000644 -0.000660
N 3.194466 -3.711005 1.881373 0.003486 -0.004118 -0.002846
N 3.139591 -3.708004 7.050705 -0.000243 0.000982 -0.000555
N 3.260654 -3.793678 -3.405379 -0.000650 0.000867 -0.000010
N 1.541551 -0.856853 1.885266 0.001361 -0.006697 -0.006890
N 1.483169 -0.897165 7.031827 -0.002068 -0.000060 -0.001045
N 1.647039 -1.012689 -3.419893 -0.000979 0.000366 -0.000968
N 3.087798 1.842933 1.870943 0.002962 -0.002049 -0.002594
N 3.071304 1.832268 7.011365 -0.001129 0.000006 -0.000703
N 3.276724 1.743365 -3.397094 0.000925 -0.000121 -0.000564
N 6.324686 -3.707821 1.856414 0.002209 -0.003529 -0.003115
N 6.346273 -3.658692 7.008260 0.000196 0.001437 -0.001666
N 6.477380 -3.741529 -3.396088 0.000107 0.001158 -0.000113
N 4.751884 -0.904828 1.835822 0.002279 -0.003773 -0.003421
N 4.778954 -0.945558 7.014868 0.000574 -0.000327 -0.000235
N 4.907155 -0.986287 -3.381899 0.000549 -0.000776 -0.000438
N -3.316174 1.867156 1.850109 0.002115 -0.003289 -0.004496
N -3.319092 1.860486 7.060538 -0.000418 0.000352 0.000093
N -3.236641 1.748745 -3.386878 -0.001504 -0.000123 0.000193
N -0.080065 -3.682637 1.866908 0.001719 -0.003414 -0.004065
N -0.084878 -3.651822 7.075637 -0.000538 0.001257 0.000508
N 0.040392 -3.784887 -3.413257 -0.000756 0.000087 -0.000662
N -1.691317 -0.913132 1.856083 0.001164 -0.003675 -0.005486
N -1.696850 -0.965661 7.091589 -0.001168 -0.000821 0.000357
N -1.611108 -1.035606 -3.405332 -0.001950 0.000280 -0.000397
