108
Energy=-573990.754950 Lattice="9.412552 0.000000 0.000000 -4.706488 8.151954 0.000000 0.000139 -0.000057 15.096451" Stress="-0.000000 -0.000000 0.000000 -0.000000 0.000000 0.000000 0.000000 0.000000 -0.000000" Properties=species:S:1:pos:R:3:forces:R:3
Al 1.545419 0.866989 2.366214 -0.000007 -0.000009 -0.000031
Al 1.545587 0.866851 7.397425 -0.000006 0.000004 -0.000013
Al 1.547874 0.867368 -2.667890 -0.000014 0.000000 -0.000010
Al -0.021811 3.583450 2.366587 -0.000018 -0.000007 -0.000008
Al -0.022477 3.583439 7.397733 -0.000005 -0.000000 -0.000011
Al -0.023058 3.585116 -2.667926 -0.000017 -0.000004 -0.000002
Al 3.109330 -1.853223 2.380965 -0.000019 0.000012 -0.000033
Al 3.114911 -1.850964 7.396597 -0.000007 -0.000004 -0.000014
Al 3.110246 -1.854351 -2.678243 -0.000017 0.000000 -0.000025
Al -4.728472 0.873670 2.380137 -0.000025 -0.000007 -0.000002
Al -4.728611 0.867097 7.396363 -0.000009 0.000002 -0.000008
Al -4.730050 0.873655 -2.678333 -0.000005 -0.000013 0.000007
Al -6.297582 3.585084 2.365590 -0.000010 -0.000014 0.000011
Al -6.301737 3.581934 7.386916 -0.000008 -0.000000 -0.000007
Al -6.305413 3.578624 -2.653254 -0.000018 -0.000009 -0.000009
Al -3.158786 -1.856637 2.370528 -0.000017 0.000008 0.000006
Al -3.166776 -1.855114 7.410775 -0.000007 -0.000007 -0.000006
Al -3.154627 -1.853513 -2.679045 -0.000016 -0.000003 -0.000006
Al -1.591155 0.872922 2.355862 -0.000016 0.000002 -0.000007
Al -1.591093 0.875059 7.411781 -0.000012 -0.000001 -0.000011
Al -1.591939 0.866685 -2.668639 -0.000010 0.000001 -0.000001
Al -3.161054 3.584182 2.365969 -0.000012 -0.000002 0.000000
Al -3.155807 3.581711 7.387184 -0.000016 -0.000003 -0.000008
Al -3.151748 3.580303 -2.653212 -0.000011 -0.000005 -0.000008
Al -0.017641 -1.853403 2.355388 -0.000004 0.000007 -0.000006
Al -0.015436 -1.849995 7.401687 -0.000015 -0.000009 -0.000007
Al -0.022499 -1.841340 -2.653878 -0.000014 -0.000000 -0.000014
Al -0.018550 1.779739 4.882653 -0.000015 0.000005 -0.000008
Al -0.021166 1.773756 -5.179509 -0.000010 0.000006 -0.000008
Al -0.021098 1.773413 -0.156217 -0.000004 -0.000004 -0.000015
Al 3.116160 -3.663139 4.881207 -0.000014 -0.000002 -0.000010
Al 3.123567 -3.663875 -5.185741 -0.000010 0.000002 -0.000010
Al 3.112913 -3.668638 -0.146184 -0.000004 -0.000003 0.000022
Al 1.554279 -0.943823 4.883705 -0.000021 0.000003 -0.000023
Al 1.551199 -0.936450 -5.181396 -0.000008 0.000002 -0.000009
Al 1.541169 -0.942761 -0.150083 -0.000015 0.000017 0.000143
Al 3.113735 1.772478 4.881221 -0.000020 0.000007 -0.000009
Al 3.109432 1.766574 -5.186260 -0.000013 0.000003 -0.000003
Al 3.110672 1.778102 -0.145274 -0.000086 -0.000011 0.000041
Al 6.247713 -3.670135 4.883788 -0.000015 -0.000000 -0.000002
Al 6.244161 -3.665650 -5.181731 -0.000013 -0.000001 -0.000009
Al 6.255104 -3.669873 -0.149606 -0.000029 -0.000007 -0.000066
Al 4.675997 -0.944852 4.884845 -0.000016 -0.000000 -0.000005
Al 4.682247 -0.944279 -5.181999 -0.000013 -0.000001 -0.000009
Ga 4.682545 -0.944434 -0.150400 -0.000015 -0.000008 0.000021
Al -3.162965 1.779712 4.883409 -0.000017 0.000001 -0.000009
Al -3.155949 1.767841 -5.181673 -0.000016 0.000000 -0.000012
Al -3.157313 1.778816 -0.149858 0.000022 -0.000018 0.000006
Al -0.018240 -3.668862 4.881464 -0.000021 -0.000003 -0.000002
Ga -0.021955 -3.664520 -5.172176 -0.000021 -0.000007 -0.000010
Al -0.022532 -3.663456 -0.155800 -0.000018 -0.000002 -0.000039
Ga -1.590410 -0.943563 4.888683 -0.000036 -0.000007 -0.000010
Al -1.593622 -0.937139 -5.184883 -0.000014 -0.000002 -0.000011
Al -1.584560 -0.943445 -0.148032 -0.000014 0.000010 -0.000026
N 1.544993 0.866905 4.285029 0.000026 -0.000002 0.000021
N 1.544730 0.867434 -5.781589 0.000017 -0.000001 0.000009
N 1.548450 0.867144 -0.749148 0.000010 0.000001 0.000016
N -0.022541 3.583400 4.283545 0.000021 -0.000002 0.000006
N -0.022216 3.582201 -5.781586 0.000017 -0.000002 0.000010
N -0.023284 3.585657 -0.749325 0.000022 0.000001 -0.000001
N 3.112902 -1.852415 4.293787 0.000024 -0.000002 0.000025
N 3.114663 -1.850970 -5.779043 0.000018 -0.000003 0.000013
N 3.072911 -1.876397 -0.768913 0.000020 0.000003 0.000022
N -4.728387 0.869555 4.294860 0.000025 -0.000005 0.000009
N -4.728664 0.867567 -5.779042 0.000014 0.000001 0.000006
N -4.730307 0.916725 -0.768743 0.000047 0.000027 -0.000038
N -6.298010 3.584721 4.286325 0.000022 -0.000001 -0.000001
N -6.338627 3.560754 -5.800269 0.000019 0.000001 0.000008
N -6.301448 3.580753 -0.740427 0.000023 -0.000003 -0.000005
N -3.199213 -1.876394 4.275828 0.000028 0.000004 -0.000000
N -3.162927 -1.853368 -5.769135 0.000014 -0.000003 0.000011
N -3.117649 -1.875238 -0.767629 0.000015 0.000004 -0.000005
N -1.590919 0.916110 4.265045 0.000021 -0.000007 0.000006
N -1.590142 0.871792 -5.771609 0.000013 -0.000003 0.000011
N -1.592430 0.866700 -0.747877 0.000007 -0.000002 0.000002
N -3.159821 3.584170 4.284879 0.000017 -0.000004 0.000007
N -3.119361 3.560275 -5.800149 0.000013 -0.000002 0.000008
N -3.155686 3.582676 -0.740627 0.000007 -0.000014 -0.000007
N 0.019561 -1.874488 4.266511 0.000023 -0.000003 0.000014
N -0.018491 -1.806031 -5.789616 0.000012 -0.000008 0.000009
N -0.022383 -1.846374 -0.739251 0.000015 -0.000000 0.000008
N -0.019737 1.774340 1.762434 0.000011 0.000008 0.000005
N -0.023073 1.772440 6.801462 0.000008 0.000006 0.000012
N -0.021666 1.773274 -3.260567 0.000007 0.000004 0.000008
N 3.115936 -3.660948 1.774084 0.000018 0.000008 -0.000021
N 3.117954 -3.661385 6.797453 0.000010 0.000007 0.000011
N 3.115058 -3.665360 -3.269674 0.000013 -0.000000 0.000011
N 1.550303 -0.942872 1.767864 0.000014 -0.000007 -0.000151
N 1.547971 -0.943494 6.799017 0.000010 0.000002 0.000010
N 1.544429 -0.942722 -3.266085 0.000010 -0.000000 0.000019
N 3.115307 1.772046 1.774740 0.000025 0.000026 -0.000014
N 3.114282 1.770130 6.797052 0.000006 0.000001 0.000010
N 3.112005 1.774908 -3.270226 0.000015 0.000009 0.000010
N 6.252044 -3.663816 1.767479 0.000023 0.000011 0.000071
N 6.249981 -3.661011 6.799005 0.000006 0.000005 0.000006
N 6.252916 -3.666260 -3.266459 0.000014 0.000004 0.000008
N 4.681432 -0.943051 1.826068 0.000025 -0.000008 -0.000004
N 4.684231 -0.945151 6.804680 0.000005 0.000002 0.000009
N 4.683161 -0.944207 -3.262476 0.000011 0.000008 0.000009
N -3.163640 1.773389 1.767470 -0.000006 0.000001 -0.000002
N -3.159106 1.769950 6.798694 0.000007 0.000003 0.000008
N -3.158292 1.775309 -3.266355 0.000007 0.000011 0.000007
N -0.022835 -3.664865 1.764397 -0.000001 0.000006 0.000050
N -0.022310 -3.661634 6.801122 0.000009 0.000004 0.000007
N -0.022534 -3.662731 -3.196983 0.000014 0.000004 0.000005
N -1.592571 -0.944556 1.772886 0.000004 -0.000017 0.000032
N -1.593334 -0.943499 6.861146 0.000009 0.000003 0.000008
N -1.588274 -0.943196 -3.267616 0.000011 0.000003 0.000008
