108
Energy=-2.816990e+06 Lattice="9.701078e+00 0.000000e+00 0.000000e+00 -4.859106e+00 8.384893e+00 0.000000e+00 -1.186184e-01 -4.513689e-02 1.577319e+01" Stress="1.308210e-04 1.196563e-04 -4.134261e-03 1.138883e-04 1.346410e-04 -1.365583e-03 -4.126379e-03 -1.349866e-03 4.966381e-03" Properties=species:S:1:pos:R:3:forces:R:3 Config_type=AlGaN_super3_52_1_6.xyz
Al 1.539952e+00 8.504374e-01 2.485660e+00 9.966635e-04 2.350173e-04 1.193667e-03
Ga 1.520258e+00 8.712815e-01 7.735236e+00 1.190985e-03 -1.232207e-03 7.934588e-04
Ga 1.631279e+00 9.191334e-01 -2.780901e+00 1.257010e-03 -8.841330e-04 1.419708e-03
Ga -6.970211e-02 3.638087e+00 2.490089e+00 -1.155123e-04 1.604903e-03 -9.470874e-04
Al -8.943158e-02 3.654508e+00 7.732690e+00 6.920912e-04 -2.767519e-04 1.269387e-03
Ga 1.663386e-02 3.710418e+00 -2.777349e+00 6.077609e-04 -3.543545e-05 2.355827e-03
Ga 3.161407e+00 -1.939034e+00 2.494398e+00 7.399962e-04 -5.275538e-04 -7.612214e-04
Ga 3.157302e+00 -1.939392e+00 7.735175e+00 4.886227e-04 -3.941267e-04 8.530746e-04
Ga 3.260251e+00 -1.876844e+00 -2.783773e+00 5.645941e-04 -8.179850e-04 9.708459e-04
Ga -4.938955e+00 8.509547e-01 2.490178e+00 1.248456e-03 -5.655668e-04 -1.189935e-03
Ga -4.944949e+00 8.672860e-01 7.739065e+00 8.025563e-04 -8.389565e-04 1.556308e-04
Ga -4.837598e+00 9.245130e-01 -2.777834e+00 4.564198e-04 -1.098023e-03 3.033968e-05
Ga -6.551106e+00 3.638472e+00 2.492876e+00 1.332616e-04 7.084491e-04 -6.712543e-04
Ga -6.567962e+00 3.657641e+00 7.737175e+00 4.287487e-04 5.002453e-05 3.296023e-04
Ga -6.452480e+00 3.715857e+00 -2.780238e+00 -1.092705e-04 -3.644922e-04 5.950146e-04
Ga -3.302278e+00 -1.943281e+00 2.496361e+00 4.809148e-04 5.371452e-06 -1.026005e-03
Ga -3.319877e+00 -1.936081e+00 7.739455e+00 7.326763e-04 -5.387987e-04 5.974241e-04
Ga -3.208189e+00 -1.874079e+00 -2.786485e+00 1.776617e-04 -9.350235e-04 3.786872e-04
Ga -1.685457e+00 8.613117e-01 2.480533e+00 1.908949e-03 -6.992510e-04 8.370123e-04
Ga -1.708043e+00 8.791730e-01 7.738177e+00 2.142960e-03 -1.389539e-03 -4.302293e-04
Ga -1.605159e+00 9.274961e-01 -2.783536e+00 1.591640e-03 -1.230639e-03 -7.569405e-04
Ga -3.315694e+00 3.649276e+00 2.497132e+00 1.506000e-03 4.812662e-04 -1.488562e-03
Ga -3.320290e+00 3.662178e+00 7.740929e+00 1.016934e-03 4.833364e-05 -1.459703e-04
Ga -3.219654e+00 3.720963e+00 -2.784072e+00 9.611047e-04 -4.466690e-04 -1.490486e-04
Ga -6.901555e-02 -1.931755e+00 2.490600e+00 1.697632e-03 -3.317411e-04 -1.101507e-03
Ga -8.417588e-02 -1.924861e+00 7.737370e+00 1.300687e-03 -8.074207e-04 5.747511e-04
Ga 2.424579e-02 -1.868029e+00 -2.779361e+00 1.086037e-03 -1.037153e-03 4.710983e-04
Ga -7.503544e-02 1.787885e+00 5.107408e+00 -8.314205e-04 -2.683376e-04 1.549340e-03
Ga 2.658764e-02 1.847996e+00 -5.420596e+00 -1.123688e-03 1.074329e-03 1.163171e-03
Ga 4.695256e-03 1.837233e+00 -1.419186e-01 2.585542e-04 2.724650e-03 2.478937e-03
Ga 3.167513e+00 -3.807387e+00 5.127129e+00 -1.362632e-03 3.620047e-04 4.275874e-07
Ga 3.276500e+00 -3.750959e+00 -5.420179e+00 -6.408320e-04 9.003027e-05 6.530250e-04
Ga 3.251670e+00 -3.731412e+00 -1.479665e-01 -1.787125e-03 -2.338554e-03 3.097221e-03
Ga 1.546614e+00 -1.005040e+00 5.106361e+00 -1.638083e-03 1.805586e-03 -1.500880e-04
Ga 1.654440e+00 -9.543968e-01 -5.407816e+00 -1.504014e-03 1.035808e-03 -7.472248e-05
Ga 1.641402e+00 -9.369972e-01 -1.349946e-01 -3.240250e-03 -1.232130e-03 1.581842e-03
Ga 3.142687e+00 1.784135e+00 5.101873e+00 -3.106583e-04 3.536576e-04 1.295814e-03
Ga 3.255359e+00 1.843752e+00 -5.409212e+00 -2.099763e-04 6.127014e-04 9.740170e-04
Ga 3.236478e+00 1.858197e+00 -1.367159e-01 -2.735215e-03 -2.098311e-03 2.122281e-03
Ga 6.385981e+00 -3.803769e+00 5.126596e+00 7.002710e-04 3.696578e-04 4.759291e-04
Ga 6.492793e+00 -3.749073e+00 -5.420568e+00 -2.612715e-04 -5.373382e-05 9.936420e-04
Ga 6.484583e+00 -3.729341e+00 -1.455472e-01 -2.697667e-03 -2.686778e-03 1.999336e-03
Ga 4.776635e+00 -1.007684e+00 5.117822e+00 -5.274016e-04 9.683785e-04 2.145412e-04
Ga 4.883413e+00 -9.506460e-01 -5.406950e+00 -6.210442e-04 8.453810e-04 2.246963e-05
Ga 4.870151e+00 -9.365349e-01 -1.498479e-01 -2.500015e-03 -1.887185e-03 2.453948e-03
Ga -3.319520e+00 1.791438e+00 5.111657e+00 -3.904921e-04 6.484529e-05 1.120954e-03
Ga -3.213113e+00 1.847838e+00 -5.411065e+00 -7.065146e-04 4.512948e-04 1.059105e-03
Ga -3.227647e+00 1.864354e+00 -1.570918e-01 -3.205419e-03 -1.414454e-03 4.151640e-03
Ga -7.715340e-02 -3.796832e+00 5.115203e+00 -5.191262e-04 5.864742e-05 6.660950e-04
Ga 3.037818e-02 -3.739743e+00 -5.409604e+00 -6.014108e-04 -1.414269e-04 7.287188e-04
Ga 1.721945e-02 -3.725056e+00 -1.500164e-01 -2.781776e-03 -2.582727e-03 2.497155e-03
Ga -1.691440e+00 -1.002866e+00 5.115440e+00 -1.046011e-03 1.143793e-03 2.000970e-04
Ga -1.583012e+00 -9.472371e-01 -5.410196e+00 -1.260999e-03 8.004489e-04 4.347400e-04
Ga -1.601722e+00 -9.335062e-01 -1.544964e-01 -2.939746e-03 -2.826627e-03 3.273805e-03
N 1.530780e+00 8.585558e-01 4.423565e+00 7.416606e-04 -1.188563e-03 -2.780868e-03
N 1.638975e+00 9.133933e-01 -6.051309e+00 1.007508e-03 -9.182434e-04 -4.916905e-04
N 1.624519e+00 9.230887e-01 -7.900736e-01 1.753542e-04 -6.326269e-04 -1.528992e-03
N -8.189579e-02 3.651607e+00 4.473039e+00 2.860353e-04 1.418606e-04 -6.242344e-04
N 2.494056e-02 3.706205e+00 -6.105439e+00 1.968427e-04 -3.435632e-04 -2.372807e-03
N 7.729651e-03 3.714862e+00 -7.796874e-01 -2.291128e-04 -1.296462e-03 -2.389506e-03
N 3.160058e+00 -1.941100e+00 4.479787e+00 7.272908e-04 -4.922806e-04 -8.152521e-05
N 3.267456e+00 -1.881504e+00 -6.051451e+00 4.034804e-04 -4.838389e-04 -3.768383e-04
N 3.252132e+00 -1.865689e+00 -7.954345e-01 -5.177844e-04 -1.373548e-03 1.134447e-03
N -4.936676e+00 8.585026e-01 4.473707e+00 9.980615e-04 -4.405513e-04 -4.987656e-04
N -4.830149e+00 9.162807e-01 -6.048701e+00 7.022083e-04 -6.118407e-04 -5.999237e-04
N -4.846213e+00 9.324470e-01 -7.914226e-01 -2.226686e-04 -1.143797e-03 8.620355e-04
N -6.554239e+00 3.654784e+00 4.480379e+00 2.696700e-04 3.455509e-04 -7.544763e-04
N -6.444170e+00 3.709125e+00 -6.049380e+00 2.141014e-04 1.971669e-05 -6.728392e-04
N -6.458860e+00 3.722889e+00 -7.896872e-01 -4.124143e-04 -7.115826e-04 1.935976e-04
N -3.309012e+00 -1.937659e+00 4.481569e+00 5.955940e-04 -3.844082e-04 -4.318626e-04
N -3.201949e+00 -1.878709e+00 -6.048203e+00 4.429146e-04 -3.394819e-04 -3.615112e-04
N -3.216176e+00 -1.865478e+00 -8.008375e-01 -5.442875e-04 -1.113196e-03 8.739301e-04
N -1.703302e+00 8.654213e-01 4.472211e+00 1.717052e-03 -8.278873e-04 -6.040582e-04
N -1.598646e+00 9.211221e-01 -6.050493e+00 1.513648e-03 -1.053522e-03 -2.989797e-04
N -1.615408e+00 9.314184e-01 -7.983129e-01 4.606882e-04 -1.309832e-03 1.409622e-03
N -3.319339e+00 3.658413e+00 4.481554e+00 1.212066e-03 1.130602e-04 -3.570839e-04
N -3.213441e+00 3.713982e+00 -6.048209e+00 8.195710e-04 -2.068561e-04 -3.228082e-04
N -3.227159e+00 3.730069e+00 -7.993698e-01 -3.395302e-05 -1.008928e-03 9.588803e-04
N -7.913421e-02 -1.931369e+00 4.474127e+00 1.384561e-03 -6.239727e-04 -3.226744e-04
N 2.969201e-02 -1.874580e+00 -6.050156e+00 1.183288e-03 -6.336391e-04 -5.141466e-04
N 1.774428e-02 -1.858059e+00 -7.921763e-01 5.032837e-04 -1.373177e-03 1.077110e-03
N -2.186844e-02 1.766887e+00 1.859565e+00 -6.979099e-04 -1.976068e-03 -1.018417e-03
N -8.288441e-02 1.833996e+00 7.106515e+00 -1.624895e-03 2.406980e-03 -1.510991e-04
N 2.152258e-02 1.848313e+00 -3.427414e+00 -1.417032e-03 5.332875e-04 -1.169598e-03
N 3.168037e+00 -3.811695e+00 1.853010e+00 1.308153e-03 2.747747e-03 -3.370447e-03
N 3.196301e+00 -3.823212e+00 7.118354e+00 2.096685e-04 -4.838689e-04 -2.866928e-05
N 3.267543e+00 -3.745295e+00 -3.428449e+00 -1.105464e-03 5.617994e-04 -8.112137e-04
N 1.554916e+00 -9.681448e-01 1.868287e+00 4.072882e-04 3.224342e-03 -1.773825e-03
N 1.542347e+00 -1.003248e+00 7.093547e+00 -1.428713e-03 1.164448e-03 -4.665405e-04
N 1.649379e+00 -9.498600e-01 -3.423314e+00 -1.750341e-03 1.185627e-03 -3.197572e-04
N 3.115928e+00 1.754582e+00 1.866188e+00 1.858816e-03 2.886589e-03 -2.441381e-03
N 3.141408e+00 1.791113e+00 7.091842e+00 -2.886002e-04 4.279183e-04 -1.108451e-03
N 3.250799e+00 1.849514e+00 -3.421314e+00 -6.453110e-04 3.471418e-04 -6.303757e-04
N 6.398630e+00 -3.807046e+00 1.847986e+00 3.209650e-03 2.660442e-03 -2.319958e-03
N 6.346480e+00 -3.818872e+00 7.119036e+00 -1.680322e-03 -6.515436e-04 -2.988945e-04
N 6.490832e+00 -3.743263e+00 -3.427188e+00 -3.758003e-04 2.332918e-04 -9.870663e-04
N 4.783448e+00 -1.019613e+00 1.846411e+00 1.925114e-03 3.739105e-03 -2.387774e-03
N 4.772052e+00 -1.001447e+00 7.100427e+00 -8.548798e-04 7.006513e-04 -5.565991e-04
N 4.878550e+00 -9.451613e-01 -3.421468e+00 -8.735355e-04 1.027205e-03 -3.209741e-04
N -3.313382e+00 1.782581e+00 1.845502e+00 2.533974e-03 2.657905e-03 -3.093200e-03
N -3.324711e+00 1.796023e+00 7.097950e+00 -8.534441e-04 4.359040e-04 -6.460787e-04
N -3.217581e+00 1.852778e+00 -3.423782e+00 -8.710934e-04 3.684658e-04 -9.321005e-06
N -7.115405e-02 -3.807427e+00 1.847481e+00 2.170202e-03 2.896675e-03 -1.988345e-03
N -8.235602e-02 -3.794153e+00 7.100670e+00 -4.247589e-04 4.250745e-05 -2.223918e-04
N 2.532350e-02 -3.735825e+00 -3.421737e+00 -8.109045e-04 3.013561e-04 -3.927778e-04
N -1.685625e+00 -1.014330e+00 1.843130e+00 1.745638e-03 4.374227e-03 -2.525836e-03
N -1.697223e+00 -9.985620e-01 7.100551e+00 -1.397925e-03 1.177960e-03 -3.060428e-04
N -1.587536e+00 -9.429726e-01 -3.424267e+00 -1.363850e-03 9.886669e-04 7.979352e-05
