108
Energy=-2.542337e+06 Lattice="9.655945e+00 0.000000e+00 0.000000e+00 -4.828441e+00 8.361521e+00 0.000000e+00 -1.615659e-03 -1.059315e-03 1.567131e+01" Stress="6.543903e-06 2.039970e-06 1.149444e-05 -2.942336e-06 -1.344944e-06 -1.232636e-05 -2.086814e-06 -9.332638e-06 1.108698e-06" Properties=species:S:1:pos:R:3:forces:R:3 Config_type=AlGaN_super3_46_0_14.xyz
Al 1.582728e+00 8.963895e-01 2.459748e+00 -3.160791e-06 1.149225e-05 1.956995e-06
Al 1.584977e+00 8.900914e-01 7.686582e+00 -3.564023e-06 8.399678e-06 4.961337e-06
Ga 1.595796e+00 8.901888e-01 -2.752117e+00 -7.791483e-06 9.997562e-06 -1.652457e-06
Al -1.907036e-02 3.667252e+00 2.465559e+00 -9.986251e-06 3.925482e-06 2.579368e-06
Ga -1.938453e-02 3.664125e+00 7.684772e+00 -5.423924e-06 4.339024e-06 2.563231e-06
Ga -2.204380e-02 3.674790e+00 -2.752938e+00 -4.965660e-06 2.543346e-06 1.919525e-06
Ga 3.198422e+00 -1.894287e+00 2.473248e+00 -1.640131e-05 6.266046e-06 5.591273e-06
Ga 3.204816e+00 -1.883066e+00 7.684994e+00 -5.494486e-06 2.174656e-06 7.711423e-06
Ga 3.204507e+00 -1.885559e+00 -2.764729e+00 -6.170157e-06 3.235745e-06 4.933467e-06
Ga -4.856155e+00 8.882056e-01 2.467085e+00 1.149940e-06 1.528875e-05 -3.747449e-06
Ga -4.861611e+00 8.741839e-01 7.686707e+00 -6.586839e-06 9.759919e-06 -5.620458e-06
Al -4.847373e+00 8.852581e-01 -2.759284e+00 -8.026787e-06 -7.380190e-06 -2.621916e-06
Ga -6.475324e+00 3.664097e+00 2.463703e+00 2.021771e-06 8.357025e-06 5.414089e-06
Ga -6.466522e+00 3.665610e+00 7.685243e+00 -6.317406e-06 3.365841e-06 1.040826e-05
Ga -6.457613e+00 3.665515e+00 -2.752265e+00 -3.493947e-06 3.609397e-06 5.273911e-06
Ga -3.245688e+00 -1.898750e+00 2.459557e+00 -1.783724e-06 2.434898e-06 -4.587075e-06
Ga -3.257369e+00 -1.891078e+00 7.690937e+00 -4.598824e-06 -1.501744e-06 4.356924e-06
Ga -3.246860e+00 -1.885171e+00 -2.754151e+00 -8.937646e-06 2.448275e-06 2.380432e-06
Ga -1.628661e+00 8.935060e-01 2.440390e+00 -9.409678e-06 8.112392e-06 1.292811e-05
Ga -1.621892e+00 8.913998e-01 7.685281e+00 -5.216971e-06 -2.382810e-07 2.364160e-06
Ga -1.642654e+00 8.880254e-01 -2.731735e+00 -4.277608e-06 1.032593e-05 6.207622e-06
Ga -3.234096e+00 3.665615e+00 2.450340e+00 -2.158730e-06 8.808072e-08 1.920129e-05
Ga -3.242084e+00 3.674687e+00 7.691425e+00 -6.657111e-06 -1.490633e-06 6.648051e-06
Ga -3.243053e+00 3.663638e+00 -2.740361e+00 -5.530512e-06 3.386582e-06 9.884946e-06
Ga -2.545705e-02 -1.885472e+00 2.457992e+00 -5.475419e-06 5.306786e-06 4.670442e-06
Ga -1.836012e-02 -1.890911e+00 7.684508e+00 -8.255367e-06 -9.331414e-06 6.978058e-06
Ga -2.386720e-02 -1.891816e+00 -2.742749e+00 -5.462762e-06 -5.834070e-06 6.190266e-06
Ga -1.393786e-02 1.816541e+00 5.056103e+00 3.282010e-06 1.825502e-05 6.018192e-06
Ga -1.797150e-02 1.813191e+00 -5.372560e+00 5.333525e-06 8.987998e-06 1.779681e-06
Ga -3.110185e-02 1.814118e+00 -1.238550e-01 4.650515e-06 2.199890e-05 6.876233e-06
Ga 3.204623e+00 -3.752388e+00 5.063949e+00 1.026865e-06 1.412623e-05 5.136741e-06
Ga 3.200879e+00 -3.746686e+00 -5.369528e+00 6.908881e-07 9.106896e-06 3.939278e-06
Ga 3.197001e+00 -3.763163e+00 -1.326311e-01 -4.761014e-06 2.289651e-05 1.089511e-05
Ga 1.595472e+00 -9.561497e-01 5.075129e+00 -2.050538e-06 9.485974e-06 1.271926e-05
Ga 1.596562e+00 -9.614709e-01 -5.381514e+00 4.341337e-07 6.505144e-06 4.403528e-06
Ga 1.580260e+00 -9.646350e-01 -1.321218e-01 5.747785e-06 1.339628e-05 1.014525e-05
Ga 3.189584e+00 1.801309e+00 5.075510e+00 8.075534e-06 1.055614e-05 3.411667e-06
Ga 3.199912e+00 1.802368e+00 -5.371607e+00 1.895778e-06 5.471165e-06 7.534208e-06
Ga 3.210890e+00 1.810164e+00 -1.445466e-01 5.219475e-06 1.177955e-05 3.978038e-06
Ga 6.402419e+00 -3.748489e+00 5.064611e+00 1.639497e-07 1.385005e-05 3.388083e-07
Ga 6.410214e+00 -3.745274e+00 -5.371039e+00 1.117848e-06 5.805570e-06 1.279258e-05
Ga 6.414627e+00 -3.747834e+00 -1.327018e-01 1.414344e-06 2.032983e-05 3.310854e-06
Al 4.805568e+00 -9.687726e-01 5.068852e+00 2.345398e-06 6.706543e-06 -1.650331e-06
Al 4.806111e+00 -9.615267e-01 -5.354149e+00 3.788146e-06 -4.586043e-06 3.029142e-06
Ga 4.819047e+00 -9.523904e-01 -1.570691e-01 -4.204858e-06 1.878320e-05 -8.803129e-06
Ga -3.248246e+00 1.808255e+00 5.074910e+00 -7.759795e-06 2.176656e-06 4.696177e-06
Ga -3.249481e+00 1.806071e+00 -5.358069e+00 -2.239083e-06 2.735111e-06 -3.988527e-06
Al -3.246614e+00 1.803712e+00 -1.581738e-01 1.241961e-06 1.099350e-05 -1.938583e-06
Ga -2.280062e-02 -3.757772e+00 5.070513e+00 -1.849400e-06 1.329447e-05 8.498679e-06
Ga -2.124614e-02 -3.754787e+00 -5.360002e+00 -2.787224e-06 6.806955e-07 3.931090e-06
Ga -2.147876e-02 -3.754126e+00 -1.443081e-01 3.526614e-06 1.500535e-05 9.395841e-06
Ga -1.646354e+00 -9.689116e-01 5.074923e+00 2.983205e-06 3.975274e-07 4.079340e-06
Ga -1.641766e+00 -9.669104e-01 -5.369069e+00 -2.689803e-06 -6.469513e-06 1.533402e-06
Al -1.637809e+00 -9.609926e-01 -1.452556e-01 7.362079e-06 1.058383e-05 5.371350e-07
N 1.587350e+00 8.883761e-01 4.375238e+00 -1.482665e-06 -1.351936e-05 -8.857901e-06
N 1.587049e+00 8.924547e-01 -6.062685e+00 -1.062581e-06 -1.344592e-05 -8.833857e-06
N 1.585562e+00 8.923756e-01 -7.776495e-01 1.183650e-06 -2.122364e-05 -4.027582e-06
N -2.402127e-02 3.673868e+00 4.384681e+00 -5.849647e-07 -1.584847e-05 -6.981451e-06
N -2.264715e-02 3.674608e+00 -6.008234e+00 4.928902e-07 -1.132208e-05 -5.766316e-06
N -2.122535e-02 3.674084e+00 -7.776184e-01 3.933222e-06 -1.735783e-05 -5.575009e-06
N 3.235988e+00 -1.871877e+00 4.458889e+00 9.106984e-06 -7.697251e-06 -3.194679e-06
N 3.246344e+00 -1.868551e+00 -5.991619e+00 2.943019e-06 -9.313977e-06 -1.470353e-06
N 3.196827e+00 -1.896280e+00 -7.804135e-01 4.305482e-06 -2.485668e-05 -2.029093e-06
N -4.852159e+00 8.415176e-01 4.452972e+00 2.347868e-06 -3.550403e-06 -7.002188e-06
N -4.849972e+00 8.357731e-01 -5.997547e+00 1.865534e-06 -7.983239e-06 -1.236608e-06
N -4.810283e+00 9.128512e-01 -8.303091e-01 7.032533e-06 -1.209149e-05 7.431002e-07
N -6.464141e+00 3.670726e+00 4.443725e+00 3.310424e-06 -1.262986e-05 -1.577232e-06
N -6.460310e+00 3.673602e+00 -6.001999e+00 3.092250e-06 -7.941278e-06 -8.239081e-06
N -6.462603e+00 3.674792e+00 -7.736853e-01 -2.372038e-06 -1.211850e-05 -7.043321e-06
N -3.284538e+00 -1.871329e+00 4.445016e+00 -2.244205e-06 -1.069119e-05 1.087036e-06
N -3.290483e+00 -1.868190e+00 -5.989266e+00 -7.710612e-08 -8.078492e-06 -6.437550e-06
N -3.199570e+00 -1.873684e+00 -7.677357e-01 9.560906e-06 -2.409520e-05 2.553352e-06
N -1.635383e+00 8.885915e-01 4.424238e+00 2.916866e-06 -8.098541e-06 -4.476552e-06
N -1.632945e+00 8.923501e-01 -6.007418e+00 3.041842e-06 -9.079686e-06 2.388844e-06
N -1.671165e+00 8.669861e-01 -7.348781e-01 -6.859535e-06 -2.408399e-05 -2.788356e-06
N -3.240995e+00 3.670444e+00 4.430906e+00 3.474766e-06 -6.552131e-06 -1.586499e-06
N -3.240634e+00 3.673241e+00 -5.999135e+00 4.772474e-06 -8.823493e-06 1.561826e-06
N -3.239083e+00 3.626775e+00 -7.538720e-01 1.605613e-06 -1.324913e-05 -1.185225e-05
N -2.446818e-02 -1.892748e+00 4.439963e+00 3.904032e-06 -1.199324e-05 -9.175179e-06
N -2.273415e-02 -1.896590e+00 -6.007231e+00 5.856967e-06 -9.711025e-06 -3.691073e-06
N -6.364946e-02 -1.869716e+00 -7.561575e-01 -8.772883e-06 -2.108034e-05 -4.458106e-06
N 1.934305e-02 1.842983e+00 1.865448e+00 3.177806e-06 3.877681e-06 -3.896593e-06
N 2.242655e-02 1.792186e+00 7.049163e+00 2.639494e-06 3.933878e-06 2.723674e-07
N -2.467861e-02 1.812485e+00 -3.389519e+00 2.024025e-06 -2.135195e-06 -6.666349e-07
N 3.240347e+00 -3.778156e+00 1.853343e+00 6.861049e-06 -3.108551e-06 -1.455512e-05
N 3.197861e+00 -3.754925e+00 7.049061e+00 -6.908633e-07 1.421176e-06 -2.241217e-06
N 3.193783e+00 -3.755697e+00 -3.388465e+00 1.113743e-06 -3.410078e-06 -4.115796e-06
N 1.588602e+00 -9.206730e-01 1.851707e+00 2.839284e-06 -3.502715e-06 -2.960908e-06
N 1.589134e+00 -9.177659e-01 7.066825e+00 3.912393e-06 4.523411e-06 -9.038595e-06
N 1.585461e+00 -9.662097e-01 -3.399621e+00 2.165666e-06 -1.068635e-06 -3.028960e-06
N 3.157680e+00 1.788686e+00 1.840832e+00 -2.944687e-06 -8.504142e-06 -3.293227e-06
N 3.151642e+00 1.788423e+00 7.065486e+00 -1.133629e-06 1.077175e-09 -3.914880e-06
N 3.239073e+00 1.789987e+00 -3.380313e+00 3.880441e-06 -8.322306e-07 2.830443e-06
N 6.370834e+00 -3.778829e+00 1.850961e+00 2.870511e-06 -1.072723e-05 -1.051532e-06
N 6.411321e+00 -3.753551e+00 7.047326e+00 4.009667e-06 2.268953e-07 -8.311832e-06
N 6.416284e+00 -3.752835e+00 -3.390209e+00 3.088009e-06 -6.781824e-06 -3.852797e-06
N 4.803287e+00 -9.655338e-01 1.816004e+00 5.636333e-06 -5.256838e-06 5.317637e-06
N 4.805612e+00 -9.690808e-01 6.984944e+00 2.352905e-06 -2.860778e-06 -8.290626e-06
N 4.807560e+00 -9.178565e-01 -3.422947e+00 6.642881e-06 9.018707e-07 -4.429113e-06
N -3.250930e+00 1.811850e+00 1.765029e+00 -5.384097e-07 -6.530139e-06 -1.595882e-05
N -3.245163e+00 1.814419e+00 7.054143e+00 6.276778e-06 1.040299e-05 2.158254e-06
N -3.281243e+00 1.791856e+00 -3.371099e+00 3.012773e-06 8.702405e-07 2.212619e-07
N -2.560806e-02 -3.756581e+00 1.833197e+00 -6.666085e-07 -5.266526e-07 -9.592040e-06
N -2.401778e-02 -3.757477e+00 7.050184e+00 5.053362e-06 3.253360e-06 -6.732053e-06
N -1.950055e-02 -3.754323e+00 -3.378927e+00 1.788791e-06 -1.270386e-07 -9.054218e-06
N -1.636232e+00 -9.705976e-01 1.773887e+00 -4.010388e-07 -1.000314e-05 -2.565166e-06
N -1.637582e+00 -9.707690e-01 7.053553e+00 8.947529e-07 1.581322e-05 -7.306351e-06
N -1.631209e+00 -9.652580e-01 -3.391167e+00 4.860593e-06 4.651907e-06 -7.470880e-06
