108
Energy=-1489500.240675 Lattice="9.521139 0.000000 0.000000 -4.762131 8.244529 0.000000 0.003533 0.000073 15.376457" Stress="-0.000001 -0.000000 0.000000 -0.000000 -0.000002 -0.000000 0.000000 -0.000000 -0.000001" Properties=species:S:1:pos:R:3:forces:R:3
Al 1.576615 0.874249 2.421963 0.000137 -0.000046 0.000395
Al 1.569259 0.882470 7.528891 0.000109 0.000041 -0.000107
Al 1.562207 0.883527 -2.704263 0.000064 0.000001 0.000041
Al -0.028518 3.639658 2.429962 0.000026 0.000159 0.000037
Al -0.035055 3.621190 7.520320 0.000072 0.000108 -0.000041
Al -0.028863 3.619546 -2.706278 -0.000008 0.000030 -0.000047
Al 3.158360 -1.877635 2.393320 -0.000091 0.000004 0.000072
Al 3.160136 -1.877394 7.510043 -0.000003 0.000030 -0.000068
Ga 3.163225 -1.871879 -2.667294 -0.000024 0.000019 0.000106
Al -4.795393 0.867843 2.430178 -0.000054 0.000239 -0.000223
Al -4.787009 0.874168 7.515287 -0.000241 -0.000154 0.000304
Al -4.778213 0.874190 -2.706316 0.000063 0.000015 -0.000043
Al -6.370009 3.622589 2.419590 0.000158 0.000095 0.000253
Ga -6.374544 3.606679 7.526842 -0.000040 0.000009 -0.000035
Ga -6.364097 3.622623 -2.700648 -0.000026 -0.000027 -0.000056
Al -3.212098 -1.877371 2.432508 0.000018 0.000161 0.000311
Ga -3.214215 -1.868895 7.520159 -0.000045 -0.000038 -0.000002
Al -3.206768 -1.864401 -2.702973 -0.000035 -0.000011 -0.000008
Ga -1.611020 0.881077 2.418625 -0.000026 -0.000048 -0.000000
Al -1.608542 0.893418 7.569751 0.000055 -0.000065 0.000057
Ga -1.615348 0.889936 -2.741586 0.000072 -0.000031 -0.000035
Al -3.192193 3.639385 2.410848 0.000005 -0.000003 0.000068
Al -3.180011 3.619336 7.539235 0.000040 0.000095 0.000007
Al -3.199301 3.618871 -2.707218 -0.000044 0.000026 -0.000067
Al -0.010599 -1.880340 2.395040 0.000038 -0.000049 0.000060
Ga -0.010585 -1.868538 7.559259 0.000028 -0.000043 0.000025
Ga -0.020233 -1.879662 -2.701633 0.000045 -0.000075 0.000010
Ga -0.008668 1.811637 4.991429 0.000019 -0.000016 0.000037
Al -0.026842 1.793044 -5.292934 0.000065 -0.000048 -0.000094
Ga -0.013253 1.800470 -0.134415 0.000050 -0.000019 -0.000009
Al 3.165182 -3.694884 4.969560 -0.000119 0.000122 -0.000006
Ga 3.142309 -3.721008 -5.279873 -0.000011 0.000052 0.000035
Al 3.142575 -3.699286 -0.137075 -0.000079 0.000180 -0.000007
Ga 1.588890 -0.957665 4.965191 -0.000143 0.000056 -0.000007
Ga 1.559338 -0.949335 -5.280179 -0.000047 0.000048 0.000014
Al 1.573388 -0.961931 -0.121960 0.000038 0.000444 0.000124
Al 3.151727 1.787111 4.960456 -0.000170 0.000140 -0.000143
Ga 3.154126 1.786202 -5.269320 0.000036 -0.000007 -0.000033
Ga 3.155879 1.776684 -0.130571 -0.000038 -0.000031 0.000068
Al 6.312363 -3.706737 4.947308 0.000177 -0.000215 0.000167
Ga 6.320414 -3.704299 -5.260531 0.000028 0.000027 -0.000022
Ga 6.311429 -3.691626 -0.126777 0.000014 -0.000023 0.000016
Al 4.727118 -0.961512 4.957202 0.000048 -0.000158 0.000035
Ga 4.745385 -0.943879 -5.274844 -0.000047 0.000007 0.000012
Al 4.734622 -0.955810 -0.126908 0.000020 -0.000221 0.000010
Ga -3.209702 1.799484 4.990200 0.000120 0.000037 -0.000005
Al -3.201510 1.799637 -5.293944 0.000088 0.000003 0.000016
Ga -3.215420 1.808763 -0.138948 0.000032 -0.000046 0.000061
Ga -0.018798 -3.713141 4.954222 -0.000057 0.000060 -0.000031
Al -0.011160 -3.710719 -5.275261 0.000002 -0.000030 -0.000026
Al -0.000911 -3.700900 -0.115602 -0.000011 -0.000054 0.000097
Ga -1.617405 -0.965082 4.973092 -0.000020 -0.000052 0.000037
Al -1.610806 -0.946552 -5.271815 -0.000032 -0.000018 -0.000006
Ga -1.614273 -0.971490 -0.131305 -0.000057 0.000003 -0.000042
N 1.601765 0.898362 4.329685 -0.000061 -0.000068 -0.000419
N 1.526912 0.903350 -5.936605 -0.000033 0.000023 0.000036
N 1.561550 0.827502 -0.789212 -0.000026 -0.000121 0.000016
N -0.031669 3.671389 4.343904 0.000076 -0.000013 -0.000071
N -0.024275 3.583706 -5.939792 -0.000021 0.000040 0.000039
N -0.068350 3.648547 -0.792288 0.000044 -0.000018 -0.000005
N 3.195106 -1.900930 4.320657 0.000045 -0.000088 -0.000109
N 3.156466 -1.876425 -5.952345 -0.000014 -0.000009 -0.000027
N 3.153511 -1.870026 -0.679737 0.000167 -0.000232 0.000014
N -4.821739 0.851244 4.346851 0.000130 -0.000194 0.000049
N -4.748561 0.898746 -5.945018 -0.000042 -0.000043 -0.000168
N -4.781973 0.826315 -0.793883 0.000019 0.000087 -0.000004
N -6.410598 3.598528 4.341960 -0.000025 0.000185 -0.000117
N -6.335715 3.645845 -5.872687 -0.000036 0.000019 0.000023
N -6.326165 3.652211 -0.722488 -0.000031 0.000037 -0.000002
N -3.241189 -1.892853 4.349978 -0.000066 0.000204 -0.000243
N -3.159039 -1.851112 -5.887467 -0.000001 0.000014 -0.000011
N -3.241559 -1.845521 -0.790458 -0.000038 0.000037 0.000041
N -1.608237 0.883891 4.372306 0.000063 0.000011 -0.000097
N -1.612326 0.880403 -5.871360 0.000069 -0.000019 -0.000006
N -1.612738 0.879681 -0.764484 0.000019 -0.000022 0.000007
N -3.145364 3.649425 4.320982 -0.000030 -0.000009 -0.000056
N -3.236621 3.604106 -5.921387 -0.000006 -0.000032 -0.000001
N -3.200019 3.675709 -0.780293 0.000018 -0.000004 0.000037
N -0.015466 -1.869699 4.300661 0.000048 -0.000053 -0.000040
N -0.064911 -1.896755 -5.843227 -0.000003 -0.000024 0.000007
N 0.021768 -1.897253 -0.714341 -0.000104 -0.000091 -0.000047
N 0.024929 1.823203 1.839805 -0.000035 -0.000008 -0.000012
N -0.023731 1.791130 6.975026 -0.000029 -0.000121 -0.000045
N 0.025192 1.820620 -3.361536 -0.000058 0.000057 0.000081
N 3.154172 -3.710134 1.787856 -0.000002 0.000031 -0.000081
N 3.150921 -3.705990 6.904952 0.000003 -0.000001 0.000004
N 3.149149 -3.748207 -3.294786 0.000045 -0.000007 0.000006
N 1.569050 -0.949997 1.804029 0.000023 0.000072 -0.000017
N 1.606483 -0.933388 6.946331 -0.000068 0.000070 0.000037
N 1.573740 -0.910632 -3.306502 -0.000079 0.000002 -0.000059
N 3.153504 1.790259 1.850736 0.000015 -0.000341 -0.000032
N 3.151096 1.743285 6.883252 0.000046 -0.000037 0.000266
N 3.151804 1.741531 -3.287809 -0.000004 -0.000015 0.000016
N 6.322215 -3.701814 1.859712 -0.000179 -0.000132 -0.000146
N 6.283826 -3.730942 6.867455 -0.000045 0.000008 -0.000069
N 6.280877 -3.680245 -3.279974 0.000028 0.000001 0.000014
N 4.744380 -0.951622 1.800697 -0.000018 0.000058 -0.000001
N 4.694963 -0.931423 6.877947 0.000044 0.000084 0.000013
N 4.772344 -0.931500 -3.297945 -0.000029 -0.000022 -0.000038
N -3.248040 1.819761 1.837180 -0.000013 -0.000093 -0.000034
N -3.193965 1.792940 6.976671 0.000112 0.000026 -0.000106
N -3.246967 1.822295 -3.360355 -0.000017 -0.000021 0.000086
N -0.018563 -3.709910 1.808440 0.000018 0.000055 -0.000053
N 0.022959 -3.728127 6.924948 -0.000016 -0.000009 -0.000000
N 0.023957 -3.729509 -3.364217 0.000013 -0.000001 0.000024
N -1.617337 -1.007628 1.842121 -0.000058 -0.000014 -0.000020
N -1.604961 -0.904278 6.943883 -0.000010 0.000056 -0.000044
N -1.649921 -0.981853 -3.355403 -0.000050 0.000003 0.000053
