108
Energy=-7.113167e+05 Lattice="9.457361e+00 0.000000e+00 0.000000e+00 -4.736573e+00 8.183696e+00 0.000000e+00 7.092654e-03 -1.853765e-03 1.523160e+01" Stress="1.033469e-02 1.527816e-03 7.351737e-04 1.523305e-03 1.059446e-02 -3.305159e-04 7.311025e-04 -3.324954e-04 1.719148e-02" Properties=species:S:1:pos:R:3:forces:R:3 Config_type=AlGaN_super3_6_0_5.xyz
Al 1.556692e+00 8.720669e-01 2.398102e+00 5.945568e-04 -1.242758e-03 -7.682668e-04
Al 1.561737e+00 8.572043e-01 7.479097e+00 1.275275e-04 5.759281e-03 1.459804e-03
Al 1.550859e+00 8.753388e-01 -2.712543e+00 -2.047287e-03 -1.392582e-03 2.631575e-03
Al -1.707831e-02 3.591062e+00 2.382159e+00 1.446361e-03 1.378840e-03 -3.177261e-04
Al -1.346578e-02 3.592965e+00 7.489624e+00 1.079639e-03 -8.399629e-04 8.214098e-05
Al -1.522128e-02 3.598784e+00 -2.711428e+00 -5.035348e-05 -1.082598e-03 2.634740e-03
Al 3.153978e+00 -1.866007e+00 2.401085e+00 6.251037e-04 4.037547e-05 -1.541287e-03
Al 3.155502e+00 -1.862915e+00 7.481604e+00 -2.559261e-03 3.251408e-03 -1.429252e-03
Al 3.151480e+00 -1.858475e+00 -2.709634e+00 -1.822975e-04 4.650732e-05 3.536240e-03
Al -4.760646e+00 8.744305e-01 2.401700e+00 8.189579e-04 -1.778233e-03 -2.294233e-03
Al -4.761208e+00 8.745495e-01 7.470433e+00 1.536563e-03 -1.048095e-03 -2.330188e-04
Al -4.765691e+00 8.676900e-01 -2.711894e+00 1.068161e-03 -1.322485e-03 1.442422e-03
Al -6.338503e+00 3.596970e+00 2.391862e+00 9.762222e-04 7.872052e-05 -1.982720e-03
Al -6.342169e+00 3.589014e+00 7.478637e+00 6.352675e-04 -5.925817e-04 4.848810e-04
Al -6.341204e+00 3.601236e+00 -2.711082e+00 -4.477327e-04 -4.585203e-04 2.756442e-03
Al -3.167083e+00 -1.861456e+00 2.400580e+00 1.692099e-03 9.979085e-04 -2.633852e-03
Al -3.171662e+00 -1.857141e+00 7.468861e+00 5.128546e-04 -7.604183e-04 8.309341e-04
Al -3.168937e+00 -1.856699e+00 -2.711520e+00 -6.210110e-04 -4.721893e-04 2.510697e-03
Al -1.619938e+00 8.785755e-01 2.395588e+00 2.972691e-03 -3.830775e-03 -2.504111e-03
Al -1.620652e+00 8.822312e-01 7.476871e+00 2.742194e-03 -1.276511e-03 1.501200e-05
Al -1.615859e+00 8.769020e-01 -2.713873e+00 3.814223e-03 -2.029542e-04 2.592881e-03
Al -3.186309e+00 3.602617e+00 2.370353e+00 1.142018e-03 -1.307823e-03 1.212321e-03
Al -3.177332e+00 3.595895e+00 7.493818e+00 1.179913e-03 -2.001065e-03 -3.220549e-04
Ga -3.193598e+00 3.609189e+00 -2.690795e+00 3.705927e-03 1.748296e-04 1.627339e-03
Al -2.566336e-02 -1.852932e+00 2.401522e+00 -1.096144e-03 -4.145761e-04 -5.522293e-03
Ga -1.814971e-02 -1.849144e+00 7.476213e+00 2.583444e-03 1.503281e-03 -2.917332e-04
Al -3.295964e-02 -1.845704e+00 -2.698564e+00 2.695690e-03 -1.863604e-03 1.131349e-02
Ga -1.326786e-02 1.770992e+00 4.943155e+00 -3.496436e-03 -8.290002e-04 1.521654e-04
Al -2.611100e-02 1.776521e+00 -5.239358e+00 -1.757405e-03 1.512013e-05 8.758195e-04
Al -2.441166e-02 1.783946e+00 -1.739168e-01 -1.048325e-02 3.256844e-03 7.876448e-03
Ga 3.152383e+00 -3.681330e+00 4.948318e+00 -3.340971e-03 -3.957613e-04 -6.809002e-04
Al 3.144079e+00 -3.679291e+00 -5.236915e+00 -2.146927e-03 -9.619102e-05 1.522393e-04
Al 3.150517e+00 -3.688689e+00 -1.461774e-01 1.737009e-03 4.239771e-03 -1.970173e-03
Al 1.579965e+00 -9.493215e-01 4.924787e+00 -3.281595e-03 8.198669e-04 7.196613e-04
Al 1.572634e+00 -9.542233e-01 -5.222801e+00 -2.388590e-03 1.887553e-03 8.598657e-04
Ga 1.576601e+00 -9.589901e-01 -1.131005e-01 -5.361288e-03 -6.053475e-04 -9.455435e-03
Al 3.124925e+00 1.773692e+00 4.942811e+00 5.712454e-04 3.253729e-04 6.526174e-04
Al 3.121165e+00 1.783105e+00 -5.239368e+00 -4.628953e-04 -3.719317e-04 6.583051e-04
Al 3.126136e+00 1.783272e+00 -1.718715e-01 -4.787588e-03 -1.326357e-03 1.406881e-03
Al 6.289151e+00 -3.673571e+00 4.945892e+00 3.401501e-03 2.523527e-03 -9.072216e-05
Al 6.287126e+00 -3.674766e+00 -5.236113e+00 -5.139086e-04 3.544576e-04 1.360728e-03
Al 6.297969e+00 -3.675812e+00 -1.614577e-01 -8.138727e-04 8.856667e-04 -7.328843e-04
Al 4.721967e+00 -9.454691e-01 4.942750e+00 -4.756591e-04 1.167899e-03 -6.918111e-04
Al 4.716797e+00 -9.488887e-01 -5.238205e+00 -1.102652e-03 1.494186e-03 1.019141e-03
Al 4.733090e+00 -9.532456e-01 -1.588037e-01 -1.907900e-03 5.655500e-04 2.617931e-04
Al -3.196542e+00 1.780773e+00 4.942456e+00 7.428898e-04 -4.472264e-03 1.960697e-03
Al -3.193275e+00 1.783460e+00 -5.241182e+00 2.645490e-05 3.684061e-04 1.161907e-03
Al -3.187467e+00 1.772966e+00 -1.521480e-01 1.089356e-03 2.824797e-03 -2.110280e-03
Ga -3.037409e-02 -3.683878e+00 4.936513e+00 6.436476e-04 9.728895e-04 -5.237789e-04
Al -3.039225e-02 -3.670759e+00 -5.233892e+00 3.158416e-04 -3.955383e-04 2.829005e-05
Al -2.207575e-02 -3.701708e+00 -1.390343e-01 -7.481128e-03 2.809787e-03 4.236468e-03
Al -1.605311e+00 -9.420279e-01 4.934249e+00 -7.474033e-04 6.515595e-04 -9.158485e-04
Al -1.599421e+00 -9.418414e-01 -5.231072e+00 -1.591233e-03 1.661247e-03 6.204412e-04
Al -1.591425e+00 -9.507644e-01 -1.727147e-01 -8.502525e-03 4.311354e-03 1.096402e-02
N 1.586368e+00 8.506240e-01 4.325532e+00 4.165420e-03 -1.997714e-03 -5.713893e-03
N 1.548897e+00 8.672987e-01 -5.829704e+00 1.000011e-03 -2.105324e-03 5.716836e-04
N 1.494825e+00 9.040195e-01 -7.762892e-01 2.193684e-02 -1.133176e-03 -4.919797e-03
N 2.563323e-02 3.620133e+00 4.312466e+00 -1.189955e-03 -1.378387e-03 -7.513724e-03
N -1.986599e-02 3.597888e+00 -5.830088e+00 -7.606490e-05 -5.679790e-04 7.238060e-04
N -1.622392e-02 3.599709e+00 -7.774489e-01 -1.019486e-03 -4.473480e-04 1.536090e-03
N 3.149587e+00 -1.831323e+00 4.324017e+00 3.639531e-04 3.758336e-03 -2.918532e-03
N 3.142401e+00 -1.859394e+00 -5.832144e+00 -1.194197e-03 6.077213e-04 4.963062e-06
N 3.177587e+00 -1.880065e+00 -7.800953e-01 3.058509e-03 -9.407950e-04 -1.033000e-03
N -4.762088e+00 8.751007e-01 4.340695e+00 7.783834e-04 -1.947712e-03 -2.519000e-03
N -4.767138e+00 8.741173e-01 -5.838502e+00 1.259105e-03 -1.198101e-03 -4.378874e-04
N -4.759679e+00 8.704274e-01 -7.817211e-01 -7.549156e-04 -7.372238e-04 1.956711e-03
N -6.370594e+00 3.576369e+00 4.320949e+00 -3.229655e-03 -2.656877e-03 -3.795874e-03
N -6.339209e+00 3.600872e+00 -5.835451e+00 5.326903e-04 -5.260200e-04 4.325231e-04
N -6.328029e+00 3.596350e+00 -7.827335e-01 -6.922312e-04 -2.750821e-03 1.666851e-03
N -3.169515e+00 -1.861855e+00 4.336278e+00 -2.078336e-04 6.669433e-05 -1.249081e-03
N -3.170058e+00 -1.857532e+00 -5.837447e+00 7.079181e-04 3.741301e-04 -7.289732e-05
N -3.162504e+00 -1.859201e+00 -7.843294e-01 -6.020903e-04 6.969121e-05 1.815905e-03
N -1.652011e+00 8.643422e-01 4.326538e+00 7.804254e-04 -2.571853e-03 -3.861000e-03
N -1.621290e+00 8.799532e-01 -5.833213e+00 3.011038e-03 -1.734184e-03 2.890644e-04
N -1.612084e+00 8.786610e-01 -7.819428e-01 7.038570e-04 -7.271329e-04 2.003287e-03
N -3.181677e+00 3.550475e+00 4.314281e+00 2.730077e-03 2.762977e-03 -1.083509e-02
N -3.189214e+00 3.606700e+00 -5.822866e+00 1.794826e-03 -3.214421e-04 1.069788e-03
N -3.186899e+00 3.634835e+00 -7.053874e-01 5.316430e-03 -1.423706e-02 -3.207461e-04
N -2.222766e-02 -1.819619e+00 4.329080e+00 1.928612e-03 3.969797e-03 -2.276055e-03
N -2.208636e-02 -1.846037e+00 -5.791224e+00 1.905499e-03 -8.907954e-05 5.213593e-03
N -7.315524e-02 -1.906459e+00 -6.518054e-01 9.259930e-03 7.232275e-03 -3.752063e-02
N -2.139147e-02 1.773019e+00 1.795990e+00 -2.524031e-03 -2.457887e-04 -4.855419e-03
N -1.842363e-02 1.771142e+00 6.917348e+00 -1.902502e-03 8.003632e-04 4.275872e-03
N -2.539621e-02 1.779066e+00 -3.313387e+00 -1.889728e-03 -1.097624e-04 -4.375426e-04
N 3.148334e+00 -3.680608e+00 1.773460e+00 -2.104454e-03 -2.723471e-04 5.187380e-03
N 3.146385e+00 -3.687016e+00 6.920920e+00 -2.403852e-03 1.443032e-03 3.899514e-03
N 3.171802e+00 -3.663308e+00 -3.321407e+00 1.028286e-03 1.852221e-03 -1.061586e-03
N 1.574696e+00 -9.638303e-01 1.828790e+00 -6.187807e-04 4.001178e-03 1.323431e-02
N 1.601543e+00 -9.159734e-01 6.848222e+00 4.201020e-03 -8.279250e-03 -1.085370e-03
N 1.570846e+00 -9.556337e-01 -3.298254e+00 -3.857802e-03 7.233891e-04 3.441209e-03
N 3.126714e+00 1.781497e+00 1.772993e+00 -4.223708e-05 -1.360220e-03 -8.562606e-04
N 3.123924e+00 1.779683e+00 6.872750e+00 -1.318794e-04 -9.509694e-05 -1.420339e-03
N 3.124651e+00 1.784650e+00 -3.316982e+00 -4.475845e-04 -9.161613e-04 2.367936e-03
N 6.291178e+00 -3.675913e+00 1.773018e+00 -8.206782e-04 2.178160e-04 -4.928649e-04
N 6.289846e+00 -3.677976e+00 6.873253e+00 -5.014102e-04 5.331077e-04 -1.016852e-03
N 6.287560e+00 -3.674783e+00 -3.313739e+00 -3.413725e-05 7.058516e-04 4.569413e-04
N 4.720674e+00 -9.517925e-01 1.784467e+00 -1.065738e-03 2.090696e-03 -4.546794e-04
N 4.720721e+00 -9.511070e-01 6.872410e+00 -1.838902e-03 1.262996e-03 -1.436574e-03
N 4.718162e+00 -9.489574e-01 -3.314057e+00 -1.029488e-03 1.285578e-03 -5.854489e-04
N -3.189791e+00 1.778344e+00 1.769355e+00 3.115712e-05 4.118925e-04 2.324776e-03
N -3.186901e+00 1.787897e+00 6.873563e+00 1.830839e-04 -2.498257e-04 -8.143524e-04
N -3.192149e+00 1.752991e+00 -3.322139e+00 1.682327e-04 -3.751142e-03 -7.170304e-04
N -2.942400e-02 -3.671069e+00 1.775291e+00 8.150895e-04 -3.977039e-03 1.054039e-02
N -1.911551e-02 -3.717112e+00 6.902540e+00 -1.464644e-04 -2.274456e-03 2.455059e-03
N -5.956038e-02 -3.653320e+00 -3.319950e+00 -3.230610e-03 3.868035e-03 6.876594e-04
N -1.597175e+00 -9.477592e-01 1.783778e+00 -2.373253e-03 3.423798e-03 1.073939e-03
N -1.624572e+00 -9.285430e-01 6.858011e+00 -4.734126e-03 3.501496e-03 -3.130729e-03
N -1.598065e+00 -9.421353e-01 -3.310230e+00 1.736541e-04 6.493637e-04 3.036981e-03
