108
Energy=-1535275.816920 Lattice="9.515830 0.000000 0.000000 -4.762220 8.238457 0.000000 0.002319 -0.002149 15.366966" Stress="-0.000024 -0.000003 0.000001 -0.000003 -0.000027 -0.000000 0.000001 0.000000 -0.000028" Properties=species:S:1:pos:R:3:forces:R:3
Al 1.554501 0.872580 2.425486 -0.000069 0.000049 -0.000155
Al 1.562184 0.866196 7.540028 0.000173 -0.000113 0.000321
Al 1.563389 0.872333 -2.728386 0.000076 0.000022 0.000061
Al -0.023534 3.626071 2.417945 -0.001018 -0.001471 -0.002986
Al -0.025408 3.619711 7.545139 0.000205 -0.000221 0.000444
Ga -0.015090 3.618028 -2.717971 -0.000026 -0.000090 0.000260
Al 3.145030 -1.886422 2.443248 -0.000880 0.002286 0.000017
Ga 3.159412 -1.871741 7.516581 -0.000120 0.000641 0.000588
Al 3.150511 -1.862606 -2.730828 -0.000104 0.000146 -0.000244
Ga -4.787403 0.874715 2.427572 -0.000020 0.000042 -0.000574
Al -4.769362 0.869491 7.533228 0.000006 -0.000042 0.000066
Ga -4.791624 0.875930 -2.715902 0.000745 0.000080 -0.000105
Al -6.370716 3.626002 2.404344 0.000669 0.000320 -0.000943
Ga -6.370580 3.620511 7.553968 -0.000282 0.000002 0.000404
Al -6.363435 3.630104 -2.718929 -0.000094 -0.000044 0.000238
Ga -3.193816 -1.874859 2.395741 0.000962 0.000444 -0.000743
Al -3.210593 -1.873742 7.542395 -0.000255 0.000231 0.000332
Ga -3.205557 -1.881664 -2.690759 -0.000035 0.000264 0.000663
Al -1.603358 0.885412 2.427717 0.000581 -0.000814 -0.001005
Ga -1.622442 0.897734 7.543803 0.000703 -0.000350 0.000046
Ga -1.607083 0.893866 -2.720860 0.000084 -0.000293 -0.000323
Al -3.191656 3.632180 2.425597 -0.001808 -0.001484 0.000112
Al -3.191435 3.608899 7.528143 -0.000239 -0.000340 -0.000470
Al -3.213638 3.632642 -2.713093 0.000014 -0.000734 0.000444
Al -0.001523 -1.869501 2.416338 -0.005426 -0.000156 -0.007979
Ga -0.002972 -1.869945 7.548930 0.000365 0.000047 0.000732
Ga -0.001801 -1.884128 -2.702571 -0.000134 -0.000129 0.000237
Ga -0.025755 1.794909 4.968243 -0.000170 -0.000075 -0.000134
Al -0.014728 1.790908 -5.288120 -0.000274 -0.000148 0.000366
Ga -0.018165 1.786350 -0.119038 -0.000675 0.000252 0.001186
Al 3.148278 -3.703010 4.972188 0.000468 -0.000662 -0.002366
Ga 3.142940 -3.709354 -5.276673 0.000216 0.000453 0.000782
Ga 3.148067 -3.682837 -0.142694 -0.000098 -0.001062 0.001320
Al 1.577368 -0.962107 4.947601 0.000163 0.000659 0.000529
Al 1.572112 -0.950452 -5.260675 -0.000465 0.000308 0.000533
Ga 1.577597 -0.960170 -0.136731 -0.001388 0.000038 0.001195
Ga 3.150274 1.773943 4.988815 -0.000030 -0.000136 0.000296
Ga 3.143218 1.785274 -5.276615 0.000039 -0.000227 0.000473
Ga 3.140045 1.808482 -0.151942 0.000300 -0.000130 0.000184
Ga 6.304244 -3.697849 4.977284 0.000215 0.000112 0.000135
Al 6.319128 -3.696602 -5.280576 0.000136 0.000064 0.000576
Al 6.339095 -3.693386 -0.139134 0.000069 -0.000190 0.000955
Al 4.731392 -0.956716 4.987920 -0.000437 0.000216 -0.000126
Al 4.739638 -0.956979 -5.289354 0.000102 0.000328 0.000582
Al 4.735314 -0.969132 -0.142395 0.000233 0.000413 0.000825
Al -3.196208 1.796781 4.972720 -0.000481 0.000760 0.000075
Al -3.208207 1.810352 -5.287171 0.000479 -0.003534 0.004022
Ga -3.198641 1.799777 -0.132141 0.000149 -0.000220 -0.000045
Ga -0.001632 -3.701887 4.954446 0.000420 -0.000782 0.000281
Al -0.012279 -3.710284 -5.263216 -0.000343 0.000273 0.000668
Al -0.034759 -3.697068 -0.134691 0.000152 -0.000059 0.001292
Ga -1.607910 -0.949901 4.973877 -0.000411 0.000393 0.000168
Ga -1.615218 -0.960590 -5.281582 -0.000385 0.000552 0.000690
Al -1.611014 -0.961292 -0.129918 0.000319 0.000052 0.001481
N 1.563366 0.830607 4.327570 0.000163 -0.000502 0.000092
N 1.520481 0.841804 -5.911323 -0.000099 -0.000220 -0.000475
N 1.556207 0.873091 -0.821859 0.000133 -0.000186 0.000206
N -0.063638 3.645806 4.315077 -0.000836 0.001118 0.003153
N 0.012537 3.600238 -5.901367 -0.000028 0.000066 -0.000653
N 0.017716 3.644068 -0.741861 0.000196 0.000468 -0.000045
N 3.159588 -1.875522 4.375414 -0.000286 -0.000126 0.000015
N 3.148041 -1.827093 -5.870821 -0.000133 0.000143 -0.000388
N 3.193214 -1.843142 -0.818788 0.000035 0.000014 0.000726
N -4.741340 0.849406 4.401060 0.000268 -0.000652 -0.000109
N -4.738934 0.850964 -5.907850 0.000109 0.000139 -0.000842
N -4.781796 0.829314 -0.742548 -0.000037 -0.000501 0.000235
N -6.372963 3.619510 4.313979 -0.000114 0.000278 -0.000096
N -6.366688 3.670924 -5.846060 -0.000075 0.000313 -0.000258
N -6.366683 3.678098 -0.790290 -0.000055 0.000527 0.000086
N -3.234408 -1.846353 4.362909 -0.000428 0.000098 0.000170
N -3.239357 -1.895705 -5.911099 -0.000292 -0.000086 -0.000660
N -3.194117 -1.870175 -0.698591 -0.000217 0.000107 0.000138
N -1.653637 0.900722 4.338582 0.000873 -0.000694 -0.000185
N -1.618168 0.931837 -5.849934 0.000404 -0.000159 -0.000321
N -1.611305 0.836555 -0.748163 0.000676 -0.000480 0.000148
N -3.152821 3.597748 4.338078 0.000023 0.000260 0.000599
N -3.239615 3.595987 -5.920205 -0.000243 0.002501 -0.001638
N -3.244285 3.653381 -0.795112 -0.000013 0.000222 0.000019
N 0.016161 -1.847819 4.308009 0.000702 0.000447 0.004931
N 0.028450 -1.895763 -5.841146 0.000428 -0.000306 -0.000260
N -0.056944 -1.892003 -0.718107 0.000213 -0.000123 -0.000455
N -0.021527 1.794889 1.863816 0.000220 -0.000937 -0.000220
N 0.020721 1.813234 6.948664 0.000027 0.000460 -0.000315
N 0.020472 1.769246 -3.376809 0.000088 0.000027 -0.000455
N 3.142487 -3.705638 1.853943 0.002553 0.003545 -0.002558
N 3.154121 -3.756952 6.898359 -0.000097 -0.000000 0.001037
N 3.108886 -3.683020 -3.294896 -0.000387 0.000298 -0.000135
N 1.568267 -0.956056 1.850237 0.004579 -0.000207 0.000214
N 1.568323 -0.912092 6.862449 -0.000594 0.000307 -0.000701
N 1.607816 -0.931687 -3.343829 -0.000187 0.000272 -0.000048
N 3.102613 1.814206 1.828031 -0.000287 -0.000051 0.000058
N 3.147525 1.742469 6.971554 0.000208 -0.000301 -0.000251
N 3.105927 1.817782 -3.296290 -0.000181 0.000079 0.000006
N 6.325215 -3.750659 1.777609 0.000008 -0.000151 -0.000388
N 6.281199 -3.681512 6.953236 -0.000122 -0.000020 -0.000319
N 6.362645 -3.718208 -3.367328 0.000318 -0.000147 -0.000449
N 4.682676 -0.981785 1.767918 -0.001313 -0.001055 -0.000695
N 4.779948 -0.932983 6.902074 -0.000093 -0.000131 -0.000376
N 4.704726 -0.978884 -3.375895 -0.000476 -0.000179 -0.000429
N -3.158956 1.820067 1.837683 0.000279 0.000082 0.000560
N -3.238697 1.816440 6.891464 -0.000131 0.000327 0.000141
N -3.203598 1.845590 -3.360677 0.000032 0.000579 -0.002540
N -0.017665 -3.703752 1.803024 -0.000115 -0.000250 -0.000627
N 0.019788 -3.723519 6.923208 0.000606 -0.000189 -0.000248
N -0.019698 -3.747502 -3.347688 0.000314 -0.000187 -0.000613
N -1.564431 -0.923474 1.790863 0.001295 -0.000780 0.000469
N -1.642716 -0.978613 6.953177 -0.000279 -0.000111 -0.000439
N -1.609743 -0.960743 -3.319337 -0.000007 0.000115 -0.000193
