108
Energy=-1.077521e+06 Lattice="9.474534e+00 0.000000e+00 0.000000e+00 -4.742399e+00 8.198898e+00 0.000000e+00 -2.673120e-04 2.428607e-04 1.527004e+01" Stress="1.058220e-03 -3.815169e-04 -4.409428e-05 -3.887579e-04 -1.603635e-04 4.246702e-05 -4.049539e-05 4.084693e-05 2.503831e-03" Properties=species:S:1:pos:R:3:forces:R:3 Config_type=AlGaN_super3_14_2_13.xyz
Al 1.556357e+00 8.661260e-01 2.378285e+00 2.141020e-04 -3.518015e-04 2.421807e-05
Al 1.549925e+00 8.559552e-01 7.491069e+00 4.602335e-05 -1.131947e-04 4.664112e-04
Al 1.555288e+00 8.562825e-01 -2.687581e+00 4.115089e-04 -5.513973e-05 2.471037e-04
Al -1.549033e-02 3.595597e+00 2.387284e+00 1.329489e-03 9.570724e-04 2.406511e-04
Al -2.669509e-02 3.603427e+00 7.495469e+00 -3.136469e-04 4.379646e-04 2.287414e-04
Al -3.889455e-02 3.602709e+00 -2.691734e+00 -3.044823e-04 -1.946565e-04 3.251036e-04
Al 3.134387e+00 -1.848920e+00 2.384338e+00 5.365340e-04 1.064922e-03 4.002693e-04
Al 3.136370e+00 -1.854112e+00 7.501745e+00 -5.172390e-05 -2.614906e-04 4.144966e-04
Al 3.130506e+00 -1.861710e+00 -2.706209e+00 3.641133e-06 -2.327296e-04 -2.540961e-05
Al -4.782857e+00 8.626280e-01 2.386880e+00 4.232925e-04 -2.380059e-04 4.805795e-04
Al -4.765197e+00 8.580060e-01 7.508703e+00 -5.310343e-05 -7.417590e-05 8.508525e-05
Al -4.777762e+00 8.623539e-01 -2.700090e+00 7.351181e-04 2.301185e-04 -9.622313e-04
Al -6.342636e+00 3.601156e+00 2.360522e+00 -2.238138e-03 2.331990e-04 2.917153e-03
Ga -6.348272e+00 3.604512e+00 7.521377e+00 -1.541370e-04 7.510354e-05 -2.803930e-04
Ga -6.338628e+00 3.592563e+00 -2.701446e+00 -5.040051e-05 5.799282e-04 6.895367e-04
Ga -3.191508e+00 -1.870969e+00 2.406713e+00 -1.679099e-04 1.926593e-04 7.647347e-04
Al -3.182723e+00 -1.853793e+00 7.487122e+00 -1.151588e-04 -6.115585e-05 3.627033e-04
Ga -3.189162e+00 -1.856087e+00 -2.707833e+00 1.482446e-04 3.231725e-04 1.102611e-03
Ga -1.585625e+00 8.772702e-01 2.413710e+00 6.126772e-04 1.040994e-04 7.652281e-04
Al -1.597377e+00 8.675998e-01 7.484802e+00 -1.582523e-04 -4.924795e-05 -1.766740e-04
Al -1.595144e+00 8.745189e-01 -2.698705e+00 1.314409e-04 -6.412442e-05 2.420190e-04
Ga -3.186870e+00 3.626987e+00 2.380232e+00 8.182018e-04 -8.585934e-04 -2.165089e-04
Al -3.175322e+00 3.614364e+00 7.518821e+00 6.688139e-05 -4.033966e-04 2.493792e-04
Al -3.173727e+00 3.621381e+00 -2.698865e+00 1.807025e-04 2.039490e-06 4.665968e-04
Al -1.414914e-03 -1.858279e+00 2.400913e+00 -6.481519e-04 1.532371e-03 2.099125e-04
Al -1.514119e-02 -1.841579e+00 7.505624e+00 2.427829e-04 -4.925120e-04 3.186322e-04
Al -3.737386e-04 -1.852930e+00 -2.714388e+00 -4.614066e-04 -3.486106e-04 -9.720567e-05
Al -9.495582e-03 1.779984e+00 4.959706e+00 -2.692942e-04 -2.173878e-04 1.859462e-04
Ga -1.187448e-02 1.780168e+00 -5.234159e+00 8.122931e-05 2.934473e-04 7.043949e-04
Al -5.966061e-03 1.794703e+00 -1.654406e-01 -6.906218e-04 -6.905375e-04 -2.085028e-03
Ga 3.161873e+00 -3.671883e+00 4.959957e+00 1.795626e-04 5.476165e-04 3.056719e-04
Al 3.143338e+00 -3.668955e+00 -5.240490e+00 1.934155e-05 2.428201e-04 7.498357e-04
Al 3.150535e+00 -3.668679e+00 -1.642987e-01 5.107227e-04 3.075281e-05 -4.801679e-04
Al 1.556507e+00 -9.448525e-01 4.943444e+00 -2.209570e-04 2.021252e-04 6.607442e-04
Al 1.566228e+00 -9.583910e-01 -5.239196e+00 -4.455430e-04 3.848029e-04 8.477435e-04
Al 1.571435e+00 -9.526445e-01 -1.635101e-01 -1.186051e-03 -8.342242e-04 -1.076872e-04
Ga 3.116580e+00 1.771369e+00 4.933238e+00 3.792966e-04 5.880115e-04 -2.419357e-04
Al 3.127550e+00 1.768229e+00 -5.234762e+00 3.967914e-05 -3.665482e-04 5.803028e-04
Al 3.125172e+00 1.772932e+00 -1.461979e-01 -5.270733e-04 5.080755e-04 -8.985794e-04
Al 6.290320e+00 -3.682190e+00 4.948770e+00 -2.986186e-04 5.511410e-05 -1.900252e-04
Al 6.288578e+00 -3.674930e+00 -5.244444e+00 -2.792025e-05 -2.037493e-05 5.543686e-04
Al 6.281954e+00 -3.695690e+00 -1.450827e-01 6.168888e-04 -8.008228e-05 -8.716186e-04
Al 4.712195e+00 -9.550525e-01 4.961823e+00 -1.462489e-05 -4.371356e-04 -4.105472e-06
Al 4.707083e+00 -9.576042e-01 -5.250688e+00 7.234213e-05 -3.300566e-04 5.562504e-04
Al 4.694521e+00 -9.539632e-01 -1.584295e-01 1.079593e-05 -8.894639e-05 -2.113570e-04
Ga -3.185403e+00 1.764467e+00 4.975257e+00 -2.519539e-04 1.707242e-04 3.762045e-04
Ga -3.194397e+00 1.783012e+00 -5.230331e+00 9.880259e-05 -5.470885e-05 4.456943e-04
Ga -3.195351e+00 1.786575e+00 -1.755489e-01 9.265365e-04 -3.628842e-04 -5.631714e-04
Ga -3.505840e-02 -3.658991e+00 4.958415e+00 -4.152256e-04 -5.061640e-04 4.161232e-04
Al -1.686257e-02 -3.665912e+00 -5.235590e+00 1.803357e-04 -6.316579e-05 2.142201e-04
Al -1.883787e-02 -3.673968e+00 -1.602369e-01 -3.020581e-04 1.107910e-03 -6.588954e-04
Al -1.593370e+00 -9.573026e-01 4.966917e+00 -7.379235e-05 1.108044e-04 -2.557862e-04
Al -1.597372e+00 -9.622317e-01 -5.247248e+00 -1.316462e-04 8.727284e-05 -4.234139e-04
Ga -1.583114e+00 -9.609953e-01 -1.576153e-01 -7.087965e-05 -6.830656e-05 4.225423e-05
N 1.507299e+00 8.438943e-01 4.303839e+00 2.124948e-04 1.244474e-04 -9.022877e-04
N 1.591352e+00 8.411051e-01 -5.865957e+00 5.084811e-04 1.072577e-06 -6.833824e-04
N 1.558856e+00 8.671913e-01 -7.628429e-01 1.596013e-04 -1.466916e-05 3.785352e-04
N 1.721526e-02 3.576329e+00 4.315536e+00 -2.775967e-04 -2.849626e-04 -9.743737e-04
N -2.453582e-02 3.646651e+00 -5.864096e+00 -3.260759e-04 1.343224e-04 -4.410290e-04
N -2.567444e-02 3.609199e+00 -7.724220e-01 -5.473290e-04 -2.141402e-04 3.187905e-04
N 3.137631e+00 -1.812194e+00 4.315153e+00 -1.677187e-05 1.933238e-04 -8.789738e-04
N 3.135832e+00 -1.860185e+00 -5.847308e+00 -2.139979e-04 -6.561948e-05 -4.813504e-04
N 3.138978e+00 -1.860388e+00 -7.801878e-01 -6.576610e-04 6.968188e-06 9.578726e-07
N -4.763081e+00 8.197892e-01 4.299825e+00 -2.213733e-05 2.347749e-04 -2.896701e-04
N -4.805388e+00 8.449501e-01 -5.854953e+00 2.701092e-04 4.613373e-04 -4.140142e-04
N -4.813846e+00 8.443033e-01 -7.911644e-01 1.823466e-04 3.305472e-05 1.117111e-03
N -6.382891e+00 3.630539e+00 4.292997e+00 6.801396e-04 -3.927595e-04 -1.792748e-03
N -6.343144e+00 3.603574e+00 -5.772190e+00 2.241244e-04 -5.678639e-05 -3.231281e-05
N -6.343851e+00 3.603763e+00 -7.116542e-01 5.584240e-04 -8.634531e-04 1.652637e-04
N -3.181808e+00 -1.859658e+00 4.399012e+00 -4.901726e-05 1.346693e-04 -3.241730e-04
N -3.179320e+00 -1.860036e+00 -5.850651e+00 -1.127455e-04 2.878943e-04 -4.564521e-04
N -3.220676e+00 -1.885109e+00 -7.291449e-01 -6.468535e-04 9.071813e-06 -1.864412e-04
N -1.560241e+00 8.507597e-01 4.393651e+00 5.166491e-04 1.034364e-04 -1.766972e-04
N -1.603043e+00 8.280179e-01 -5.877533e+00 1.387854e-04 -3.319617e-04 3.479865e-05
N -1.561537e+00 8.922067e-01 -7.949388e-01 8.761650e-04 6.786404e-04 2.685428e-04
N -3.182373e+00 3.608192e+00 4.344219e+00 -2.185263e-04 4.024528e-05 -1.062150e-03
N -3.181210e+00 3.655126e+00 -5.841620e+00 -4.734774e-05 -1.768201e-04 -4.453903e-04
N -3.179845e+00 3.662315e+00 -7.767449e-01 -5.702568e-05 -1.184836e-04 -1.673707e-04
N -1.712858e-02 -1.809005e+00 4.320105e+00 1.928720e-05 -2.610106e-04 -6.784887e-04
N -1.804615e-02 -1.851987e+00 -5.844507e+00 3.322753e-04 -5.132199e-04 -1.989581e-04
N 2.642929e-02 -1.884411e+00 -8.023950e-01 8.676781e-04 8.077715e-04 7.056238e-04
N 1.873388e-02 1.804462e+00 1.749901e+00 -2.023369e-04 3.616797e-04 1.025133e-03
N -1.684036e-02 1.784331e+00 6.888074e+00 -2.903606e-05 1.643186e-04 -5.011885e-04
N -1.766797e-02 1.780153e+00 -3.254593e+00 -3.736498e-05 6.933486e-04 6.352908e-06
N 3.190778e+00 -3.652533e+00 1.764096e+00 -7.727417e-04 -8.186528e-04 -5.316150e-04
N 3.141067e+00 -3.679864e+00 6.939011e+00 3.022184e-04 1.883177e-04 -1.544780e-04
N 3.142564e+00 -3.682489e+00 -3.312451e+00 -1.619167e-05 1.783490e-04 2.375456e-04
N 1.559745e+00 -9.542619e-01 1.768978e+00 1.645775e-04 3.190360e-04 -3.644948e-04
N 1.561182e+00 -9.547049e-01 6.876130e+00 -5.515260e-04 2.904481e-04 -1.118508e-03
N 1.564403e+00 -9.502283e-01 -3.315862e+00 -2.851599e-04 4.265761e-04 2.740089e-04
N 3.133448e+00 1.776031e+00 1.778839e+00 -1.084336e-04 5.995129e-04 1.132838e-03
N 3.130712e+00 1.735695e+00 6.909744e+00 5.402068e-04 2.389968e-04 -1.678721e-04
N 3.125927e+00 1.728352e+00 -3.323159e+00 4.701660e-05 9.446264e-05 4.783478e-05
N 6.289413e+00 -3.728513e+00 1.765135e+00 6.692637e-04 -6.120385e-04 5.096575e-04
N 6.256540e+00 -3.662807e+00 6.869800e+00 8.579223e-05 -1.368799e-04 -7.578776e-04
N 6.249864e+00 -3.709641e+00 -3.339603e+00 3.183276e-04 5.381684e-05 -4.637998e-05
N 4.676350e+00 -9.273024e-01 1.757787e+00 -6.940980e-04 -4.264735e-04 1.241031e-04
N 4.712493e+00 -9.495200e-01 6.888234e+00 -2.565147e-04 -1.699218e-04 -5.084361e-04
N 4.672755e+00 -9.296676e-01 -3.336208e+00 -3.460443e-04 -3.007748e-05 -3.639634e-04
N -3.220849e+00 1.759246e+00 1.796430e+00 -7.381163e-04 -8.411141e-06 3.399691e-05
N -3.191254e+00 1.786362e+00 6.957290e+00 4.954063e-04 -1.551008e-04 -6.300345e-05
N -3.185920e+00 1.785396e+00 -3.242600e+00 -6.650700e-04 -5.312240e-04 -6.422376e-05
N -6.059889e-02 -3.644269e+00 1.758812e+00 2.481266e-05 -1.686791e-03 -2.544956e-04
N 1.458288e-02 -3.654756e+00 6.932674e+00 1.826740e-04 1.741965e-04 -1.732155e-04
N 2.002683e-02 -3.658025e+00 -3.323256e+00 1.141265e-04 -1.086915e-04 -3.093430e-04
N -1.558754e+00 -9.736262e-01 1.807198e+00 1.348891e-04 -6.143488e-04 6.255847e-04
N -1.596450e+00 -9.546802e-01 6.889617e+00 -8.335541e-05 -2.898573e-04 -2.741259e-04
N -1.559317e+00 -9.277840e-01 -3.329281e+00 -2.019963e-05 -2.945049e-04 3.420796e-04
