108
Energy=-1.672600e+06 Lattice="9.490164e+00 0.000000e+00 0.000000e+00 -4.751688e+00 8.214217e+00 0.000000e+00 -4.378721e-04 1.500927e-04 1.530703e+01" Stress="-2.962484e-02 3.389217e-03 1.813830e-04 3.383140e-03 -2.492515e-02 4.685815e-04 1.822397e-04 4.574706e-04 -2.561420e-02" Properties=species:S:1:pos:R:3:forces:R:3 Config_type=AlGaN_super3_27_1_2.xyz
Al 1.549258e+00 9.327556e-01 2.448426e+00 6.097335e-03 -2.293789e-02 -7.903836e-03
Al 1.559505e+00 8.866871e-01 7.506459e+00 -1.220098e-03 -8.683812e-03 1.136134e-03
Al 1.549633e+00 8.790446e-01 -2.738347e+00 2.506547e-03 -6.688733e-03 4.653840e-03
Al -2.302103e-02 3.612447e+00 2.397692e+00 1.004982e-02 -8.036773e-03 1.419194e-02
Al -1.785056e-02 3.609784e+00 7.511445e+00 -1.673914e-03 -6.327967e-04 1.766121e-03
Ga -2.054423e-02 3.601602e+00 -2.734974e+00 -6.649441e-04 1.530912e-03 7.304187e-03
Al 3.166866e+00 -1.870301e+00 2.433597e+00 -3.903275e-03 -4.604065e-03 -1.965672e-03
Ga 3.165818e+00 -1.881550e+00 7.506509e+00 -3.256688e-03 -9.598962e-04 1.593093e-03
Ga 3.157082e+00 -1.878684e+00 -2.731767e+00 5.013911e-04 -4.888212e-04 8.344909e-03
Al -4.789393e+00 8.916641e-01 2.425368e+00 -5.444805e-04 -8.782243e-03 -5.096312e-04
Ga -4.785858e+00 8.948385e-01 7.515906e+00 1.044975e-03 -7.811683e-03 3.214873e-03
Ga -4.785562e+00 8.903629e-01 -2.741983e+00 3.094485e-03 -7.021119e-03 4.559195e-03
Al -6.308795e+00 3.626127e+00 2.397326e+00 -2.194347e-02 -1.279029e-03 9.676592e-03
Ga -6.364775e+00 3.606396e+00 7.519223e+00 1.599783e-03 2.305321e-03 5.729936e-04
Ga -6.355075e+00 3.612316e+00 -2.739223e+00 2.602686e-04 1.080704e-04 4.067978e-03
Al -3.181162e+00 -1.878235e+00 2.421426e+00 -1.997765e-03 -1.589522e-03 6.856807e-04
Ga -3.182018e+00 -1.876218e+00 7.513122e+00 3.524007e-03 6.466725e-04 2.993734e-03
Ga -3.172624e+00 -1.869766e+00 -2.729405e+00 -2.287355e-05 5.314633e-04 8.402714e-03
Ga -1.641287e+00 8.837606e-01 2.424633e+00 9.522845e-03 -4.370277e-03 2.960596e-05
Ga -1.641874e+00 9.044344e-01 7.504204e+00 1.043303e-02 -7.158073e-03 -5.355376e-04
Al -1.630185e+00 8.946244e-01 -2.734026e+00 4.670980e-03 -4.267542e-03 3.191740e-03
Al -3.228350e+00 3.570770e+00 2.459277e+00 1.514222e-02 2.085143e-02 -7.329305e-03
Al -3.200403e+00 3.615405e+00 7.503932e+00 6.219281e-03 5.565675e-03 2.670339e-03
Al -3.205822e+00 3.621203e+00 -2.743249e+00 6.804901e-03 2.069502e-04 4.544850e-03
Al -2.197557e-02 -1.854377e+00 2.446044e+00 2.223871e-03 -4.547276e-03 -4.570805e-03
Ga -2.582200e-02 -1.863331e+00 7.500742e+00 6.789342e-03 3.674492e-03 -3.430001e-04
Al -2.499755e-02 -1.861349e+00 -2.729204e+00 5.408572e-03 1.809509e-03 5.159475e-03
Ga -2.260488e-02 1.786063e+00 4.976552e+00 -7.446037e-03 -4.625149e-04 -2.415374e-03
Ga -1.398639e-02 1.794863e+00 -5.271787e+00 -5.870970e-03 -3.120162e-03 7.451167e-04
Al -8.252622e-03 1.791275e+00 -2.007558e-01 -6.112844e-03 -4.083170e-03 1.411271e-02
Al 3.163020e+00 -3.704414e+00 4.977819e+00 -6.701777e-03 1.427560e-03 -2.879774e-03
Al 3.167734e+00 -3.700865e+00 -5.274822e+00 -6.868417e-03 -2.093175e-03 1.949426e-03
Ga 3.154232e+00 -3.704833e+00 -1.361972e-01 -3.534614e-03 -6.061214e-04 1.600351e-03
Al 1.588898e+00 -9.684970e-01 4.974982e+00 -5.721248e-03 2.212167e-03 -2.976874e-03
Ga 1.599629e+00 -9.682117e-01 -5.263076e+00 -7.235484e-03 5.417050e-03 6.378009e-04
Ga 1.588969e+00 -9.662061e-01 -1.421913e-01 -9.051104e-03 3.493306e-03 -2.273053e-03
Ga 3.132372e+00 1.785145e+00 4.968247e+00 7.169366e-05 1.035410e-03 -5.103989e-04
Al 3.129393e+00 1.790955e+00 -5.271043e+00 9.931180e-04 -7.557152e-04 1.797904e-03
Al 3.130344e+00 1.797971e+00 -1.944875e-01 -2.169176e-03 -2.709855e-03 1.570785e-02
Ga 6.300447e+00 -3.689787e+00 4.971385e+00 -1.082604e-03 -1.671749e-03 -2.484681e-03
Al 6.303216e+00 -3.692373e+00 -5.268737e+00 3.853544e-04 -2.968947e-04 1.590852e-03
Ga 6.318153e+00 -3.703030e+00 -1.299968e-01 -3.641512e-03 1.557662e-03 3.144729e-03
Ga 4.744823e+00 -9.626779e-01 4.965160e+00 -2.619527e-03 6.312143e-03 -2.749808e-03
Al 4.740853e+00 -9.697142e-01 -5.263905e+00 -1.842732e-03 8.035131e-03 3.630339e-04
Ga 4.737625e+00 -9.616114e-01 -1.217426e-01 -1.885521e-03 5.711236e-03 -3.697363e-03
Al -3.221117e+00 1.807822e+00 5.022668e+00 5.805045e-03 -5.548429e-03 -1.935428e-02
Al -3.207907e+00 1.803482e+00 -5.269779e+00 -1.934815e-03 3.848316e-04 4.006558e-03
Ga -3.212557e+00 1.810341e+00 -1.510752e-01 1.495911e-03 -1.869329e-03 -4.948879e-03
Ga -2.137203e-02 -3.686642e+00 4.972977e+00 -2.670062e-03 1.286122e-03 -8.248182e-04
Ga -2.412011e-02 -3.692583e+00 -5.268781e+00 4.125984e-04 -1.263076e-03 1.258351e-03
Al -3.011226e-02 -3.691936e+00 -2.002533e-01 2.018400e-03 4.127021e-03 1.518658e-02
Al -1.600292e+00 -9.603945e-01 4.968292e+00 -1.957959e-03 5.821024e-03 -6.620174e-04
Ga -1.607218e+00 -9.584175e-01 -5.258449e+00 -1.386093e-03 7.337361e-03 1.567535e-03
Ga -1.592866e+00 -9.605287e-01 -1.417359e-01 2.615991e-04 6.914107e-03 -6.238722e-03
N 1.554512e+00 8.541600e-01 4.359975e+00 -3.546490e-05 -1.507398e-02 -9.702423e-03
N 1.574630e+00 8.921126e-01 -5.885916e+00 9.538195e-03 -1.976054e-03 -8.764115e-03
N 1.557794e+00 9.021045e-01 -8.039839e-01 1.758328e-03 4.050756e-03 -3.755592e-04
N -4.963336e-02 3.625395e+00 4.357525e+00 -5.701723e-03 2.617663e-04 -1.398515e-02
N -1.605911e-02 3.630915e+00 -5.874668e+00 -5.238615e-04 1.072823e-02 -6.795035e-03
N -1.580246e-02 3.594543e+00 -7.735366e-01 1.625276e-04 -1.157709e-02 4.622874e-04
N 3.145933e+00 -1.887564e+00 4.366751e+00 -1.151847e-02 -4.794170e-03 -6.343715e-03
N 3.182150e+00 -1.888984e+00 -5.853254e+00 9.409228e-03 -5.461989e-03 5.591025e-03
N 3.164554e+00 -1.878756e+00 -7.660244e-01 -1.053781e-04 8.204984e-04 -5.362010e-03
N -4.759364e+00 9.027506e-01 4.353132e+00 1.073269e-02 -1.108200e-03 -8.775983e-03
N -4.783590e+00 8.887454e-01 -5.843736e+00 2.394868e-03 -6.614865e-03 1.140399e-02
N -4.801894e+00 8.969565e-01 -7.788049e-01 -8.139599e-03 -1.816415e-03 4.970667e-03
N -6.362971e+00 3.612557e+00 4.361899e+00 3.853930e-03 7.667583e-04 -2.175859e-02
N -6.375891e+00 3.603374e+00 -5.849212e+00 -9.489042e-03 -5.204306e-03 7.936615e-03
N -6.342564e+00 3.604031e+00 -7.808689e-01 1.058939e-02 -5.762936e-03 1.044074e-02
N -3.159139e+00 -1.864419e+00 4.353319e+00 1.107883e-02 7.377624e-03 -1.354633e-02
N -3.194122e+00 -1.882549e+00 -5.849850e+00 -9.398001e-03 -5.054120e-03 5.825173e-03
N -3.178085e+00 -1.874500e+00 -7.659690e-01 -4.773708e-04 4.935168e-04 -2.976624e-03
N -1.660945e+00 8.717205e-01 4.387958e+00 -4.467340e-03 -5.191418e-03 7.572413e-03
N -1.658377e+00 9.041686e-01 -5.860763e+00 -1.253558e-03 5.774561e-04 4.221848e-03
N -1.622394e+00 9.055933e-01 -7.995319e-01 1.628326e-02 7.695896e-04 -3.464973e-03
N -3.188447e+00 3.599739e+00 4.383536e+00 1.519332e-02 -4.066012e-03 -9.601710e-03
N -3.188316e+00 3.607925e+00 -5.881428e+00 1.619276e-02 -3.953060e-03 -5.912408e-03
N -3.225246e+00 3.629675e+00 -8.063210e-01 -2.704605e-03 8.271850e-03 -5.725852e-03
N -2.680031e-02 -1.843281e+00 4.374124e+00 5.539872e-03 1.319903e-02 -7.259441e-03
N -2.875449e-02 -1.864055e+00 -5.869301e+00 6.697074e-03 3.498535e-03 -9.179911e-05
N -2.885069e-02 -1.885050e+00 -7.986359e-01 6.054331e-03 -9.009019e-03 -8.175580e-03
N 1.134070e-02 1.798012e+00 1.826552e+00 -4.915186e-03 1.348297e-03 -2.000973e-02
N 3.678489e-03 1.802534e+00 6.926444e+00 3.225001e-03 2.011118e-03 7.268772e-03
N -1.454325e-02 1.767896e+00 -3.325656e+00 -6.291791e-03 -1.499280e-02 7.593355e-03
N 3.265129e+00 -3.682258e+00 1.817779e+00 -4.624367e-02 -2.261335e-03 1.057549e-02
N 3.165642e+00 -3.719234e+00 6.900992e+00 -6.951333e-03 -1.322775e-02 -5.027541e-03
N 3.145142e+00 -3.710033e+00 -3.353885e+00 -1.596029e-02 -6.994379e-03 -9.118490e-03
N 1.563149e+00 -1.025544e+00 1.803679e+00 3.071478e-03 2.328058e-02 2.072065e-02
N 1.595325e+00 -9.483013e-01 6.895127e+00 -7.158285e-03 1.584405e-02 -8.911561e-03
N 1.573619e+00 -9.581165e-01 -3.317825e+00 -1.793377e-02 1.056258e-02 8.416491e-03
N 3.134263e+00 1.804119e+00 1.838158e+00 4.224183e-04 -2.456595e-03 -1.773077e-02
N 3.113842e+00 1.782789e+00 6.916019e+00 -8.944230e-03 -6.753502e-03 -1.087022e-04
N 3.111420e+00 1.782894e+00 -3.357464e+00 -1.118657e-02 -6.682790e-03 -7.573406e-03
N 6.273407e+00 -3.697858e+00 1.834416e+00 2.130935e-02 8.652435e-04 7.272046e-03
N 6.289627e+00 -3.703117e+00 6.916576e+00 -9.825162e-03 -5.908532e-03 1.923993e-03
N 6.309295e+00 -3.693107e+00 -3.357808e+00 -5.590950e-04 -1.655254e-06 -1.277500e-02
N 4.730267e+00 -9.666790e-01 1.826907e+00 1.995012e-03 1.203793e-02 1.636439e-02
N 4.741929e+00 -9.635791e-01 6.907720e+00 -1.876509e-03 9.825689e-03 -1.581788e-03
N 4.740327e+00 -9.672286e-01 -3.356079e+00 -2.011311e-03 7.368218e-03 -1.144247e-02
N -3.233697e+00 1.802778e+00 1.795297e+00 -5.930756e-03 3.333632e-03 1.076215e-02
N -3.212790e+00 1.827103e+00 6.884016e+00 -1.076145e-03 8.871407e-03 4.764566e-04
N -3.191175e+00 1.811797e+00 -3.348040e+00 1.120962e-02 4.671725e-03 -3.808036e-03
N -3.789955e-02 -3.676511e+00 1.832703e+00 1.399071e-02 -2.000136e-03 -1.461429e-02
N -1.303230e-02 -3.699877e+00 6.917761e+00 1.026956e-02 -6.918458e-03 2.998053e-03
N -9.962741e-03 -3.677475e+00 -3.327188e+00 9.821118e-03 7.178626e-03 9.235681e-03
N -1.603967e+00 -9.989814e-01 1.796065e+00 -4.500567e-04 1.071386e-03 1.650283e-02
N -1.604868e+00 -9.614399e-01 6.885512e+00 -1.805930e-03 8.767441e-03 -1.307355e-02
N -1.582451e+00 -9.493878e-01 -3.316486e+00 9.764264e-03 1.304514e-02 8.602563e-03
