108
Energy=-894419.054969 Lattice="9.453444 0.000000 0.000000 -4.729483 8.180165 0.000000 -0.001653 -0.000121 15.217691" Stress="0.000008 -0.000001 -0.000000 -0.000001 0.000002 -0.000000 -0.000000 -0.000000 0.000016" Properties=species:S:1:pos:R:3:forces:R:3
Al 1.558908 0.868961 2.415085 0.000143 0.000496 0.000147
Al 1.550978 0.869655 7.460437 0.000062 0.000013 0.000085
Al 1.550917 0.865358 -2.718978 0.000069 0.000015 -0.000192
Al -0.023966 3.603829 2.406255 0.000051 -0.000001 -0.000012
Al -0.019197 3.592860 7.438779 -0.000017 0.000003 -0.000057
Al -0.010794 3.588970 -2.684863 -0.000125 -0.000023 0.000102
Al 3.132546 -1.858164 2.384587 -0.000040 -0.000084 0.000079
Al 3.122951 -1.855179 7.458622 -0.000121 -0.000000 -0.000031
Al 3.126679 -1.842340 -2.680121 -0.000056 0.000191 0.000063
Al -4.757339 0.866673 2.401253 0.000010 0.000061 -0.000173
Al -4.758465 0.873276 7.476823 -0.000014 0.000085 0.000041
Al -4.758414 0.864375 -2.712346 0.000187 0.000241 -0.000093
Al -6.330815 3.593135 2.409112 -0.000263 -0.000189 0.000116
Al -6.327788 3.596013 7.453848 -0.000036 0.000022 -0.000059
Al -6.332319 3.594937 -2.703806 0.000013 0.000005 0.000212
Al -3.174292 -1.857217 2.377454 -0.000172 -0.000122 -0.000010
Al -3.173197 -1.864256 7.463841 -0.000055 -0.000021 0.000005
Ga -3.182847 -1.863717 -2.676683 -0.000025 -0.000017 0.000033
Al -1.597431 0.867117 2.412933 0.000137 -0.000171 0.000094
Al -1.592798 0.874401 7.457151 0.000192 -0.000134 0.000119
Al -1.590289 0.876175 -2.701252 0.000230 -0.000020 0.000068
Al -3.170281 3.605181 2.391535 -0.000094 -0.000297 -0.000290
Al -3.180531 3.601851 7.465991 0.000010 -0.000245 -0.000446
Ga -3.181974 3.597603 -2.686744 0.000011 -0.000118 -0.000112
Ga -0.023401 -1.852875 2.400575 0.000041 0.000046 0.000062
Al -0.015725 -1.859417 7.441264 0.000039 -0.000082 0.000010
Al -0.010110 -1.854746 -2.676949 0.000069 0.000035 0.000026
Al -0.013292 1.777248 4.925330 0.000049 0.000013 -0.000018
Al -0.013860 1.782509 -5.232128 0.000058 -0.000144 0.000147
Ga -0.019367 1.776979 -0.136600 -0.000056 0.000084 -0.000090
Al 3.126754 -3.672132 4.931031 0.000106 0.000039 -0.000030
Ga 3.138706 -3.672603 -5.232139 0.000068 0.000105 0.000031
Al 3.139461 -3.657657 -0.143123 0.000191 0.000083 0.000101
Al 1.551749 -0.944441 4.938914 -0.000120 -0.000023 -0.000055
Al 1.557124 -0.945757 -5.230554 0.000023 0.000062 0.000092
Al 1.558672 -0.958356 -0.156426 -0.000094 0.000026 -0.000050
Al 3.112535 1.785612 4.936038 -0.000039 0.000061 0.000046
Al 3.126565 1.781799 -5.232234 0.000020 -0.000017 -0.000042
Ga 3.124179 1.779933 -0.150846 0.000058 0.000045 -0.000022
Al 6.286682 -3.678342 4.923919 -0.000003 -0.000167 -0.000072
Al 6.285847 -3.688990 -5.239258 -0.000218 -0.000255 0.000006
Al 6.283800 -3.670228 -0.131494 -0.000376 -0.000211 0.000301
Ga 4.701493 -0.958861 4.931319 -0.000082 -0.000015 -0.000035
Al 4.695918 -0.942110 -5.239062 -0.000318 0.000038 -0.000200
Al 4.698112 -0.958935 -0.133337 -0.000282 0.000259 0.000113
Ga -3.172705 1.788374 4.932547 0.000059 -0.000023 0.000102
Al -3.182219 1.775382 -5.240385 0.000103 -0.000079 -0.000050
Ga -3.174580 1.769425 -0.126654 0.000037 -0.000056 0.000250
Al -0.026018 -3.674547 4.937922 -0.000200 0.000046 0.000016
Al -0.031224 -3.676046 -5.239044 -0.000103 0.000053 0.000081
Al -0.031407 -3.662468 -0.142024 -0.000125 -0.000041 0.000055
Al -1.593640 -0.954614 4.946758 0.000157 -0.000094 0.000024
Ga -1.588510 -0.949695 -5.232929 -0.000004 0.000027 0.000003
Al -1.593845 -0.954901 -0.152603 -0.000267 -0.000154 -0.000041
N 1.553999 0.866018 4.332748 0.000090 -0.000014 -0.000007
N 1.552229 0.868992 -5.829639 0.000103 0.000002 0.000014
N 1.550681 0.822320 -0.808298 0.000006 -0.000025 0.000154
N -0.025819 3.601383 4.330908 -0.000082 0.000019 0.000038
N 0.018825 3.570143 -5.867331 0.000190 0.000341 -0.000020
N -0.017331 3.641885 -0.765090 0.000049 0.000029 0.000015
N 3.084592 -1.880178 4.301258 -0.000014 0.000030 -0.000094
N 3.124930 -1.810519 -5.855093 0.000023 0.000102 0.000128
N 3.132296 -1.853346 -0.754848 -0.000069 0.000068 0.000092
N -4.795857 0.892089 4.301577 0.000063 -0.000054 0.000041
N -4.755691 0.872431 -5.826994 0.000059 0.000060 0.000069
N -4.749547 0.820445 -0.796639 -0.000015 -0.000183 0.000189
N -6.325634 3.597386 4.329922 0.000006 -0.000015 0.000084
N -6.325786 3.595069 -5.843641 -0.000028 0.000031 0.000036
N -6.330208 3.646409 -0.781450 0.000328 -0.000102 -0.000325
N -3.128408 -1.879469 4.298763 -0.000115 0.000133 -0.000163
N -3.212173 -1.883967 -5.840933 0.000116 -0.000026 -0.000100
N -3.179556 -1.859722 -0.692289 0.000596 0.000153 -0.000197
N -1.557368 0.840191 4.322970 -0.000032 0.000139 0.000066
N -1.592582 0.919306 -5.849976 -0.000021 -0.000079 -0.000104
N -1.598014 0.829720 -0.793574 0.000127 -0.000001 0.000085
N -3.176641 3.651320 4.306257 0.000038 -0.000112 -0.000062
N -3.216150 3.578263 -5.840866 0.000104 -0.000120 0.000496
N -3.176295 3.642904 -0.709773 -0.000154 -0.000030 -0.000102
N -0.022768 -1.855798 4.382626 0.000161 0.000027 0.000092
N 0.024914 -1.880733 -5.863678 -0.000070 0.000069 -0.000269
N -0.017737 -1.858176 -0.749640 -0.000004 -0.000024 0.000056
N -0.019784 1.778386 1.848042 -0.000112 0.000125 0.000004
N -0.019965 1.775439 6.843825 -0.000061 0.000028 -0.000032
N -0.023106 1.783263 -3.306816 0.000006 0.000044 0.000021
N 3.136973 -3.673617 1.781676 -0.000109 -0.000055 -0.000012
N 3.127220 -3.674868 6.856325 -0.000036 0.000035 -0.000027
N 3.175170 -3.649198 -3.258969 0.000026 -0.000125 0.000016
N 1.593461 -0.920620 1.762896 0.000024 -0.000170 -0.000150
N 1.557851 -0.943714 6.851995 -0.000154 0.000094 0.000005
N 1.553664 -0.955927 -3.304691 -0.000128 0.000045 0.000006
N 3.124084 1.780298 1.831757 -0.000120 -0.000079 -0.000020
N 3.125152 1.777769 6.858828 0.000033 -0.000014 0.000042
N 3.127372 1.781863 -3.306773 0.000064 0.000081 0.000019
N 6.282715 -3.682083 1.793022 -0.000065 -0.000052 -0.000036
N 6.283536 -3.673697 6.842866 0.000014 -0.000002 0.000017
N 6.279084 -3.722859 -3.324745 0.000096 0.000097 -0.000180
N 4.702035 -0.946378 1.790823 -0.000151 0.000033 -0.000009
N 4.705247 -0.947533 6.906904 0.000063 -0.000080 -0.000061
N 4.662778 -0.930272 -3.325050 -0.000078 -0.000218 0.000231
N -3.172809 1.775283 1.854971 -0.000097 0.000339 -0.000091
N -3.178337 1.778299 6.909562 0.000038 0.000295 -0.000045
N -3.173686 1.732396 -3.322036 -0.000370 0.000076 -0.000093
N -0.030758 -3.720508 1.772899 0.000545 0.000117 -0.000067
N -0.023263 -3.680508 6.852887 0.000047 -0.000057 0.000041
N -0.065160 -3.646642 -3.320738 0.000011 -0.000141 -0.000142
N -1.634397 -0.919450 1.762210 0.000291 -0.000071 -0.000155
N -1.602436 -0.947911 6.866999 -0.000090 0.000002 0.000103
N -1.555620 -0.930511 -3.260253 -0.000030 -0.000113 -0.000046
