108
Energy=-2862765.642975 Lattice="9.699553 0.000000 0.000000 -4.849058 8.398416 0.000000 -0.001831 -0.000682 15.757944" Stress="-0.000000 0.000000 -0.000000 0.000000 0.000000 -0.000000 -0.000000 -0.000000 0.000000" Properties=species:S:1:pos:R:3:forces:R:3
Al 1.593143 0.892401 2.478412 -0.000009 -0.000018 0.000020
Ga 1.592566 0.892645 7.730722 0.000022 0.000018 0.000012
Ga 1.593772 0.892988 -2.770990 0.000049 0.000050 0.000021
Ga -0.019078 3.684044 2.479033 0.000004 -0.000012 0.000029
Ga -0.023303 3.690632 7.728524 0.000016 0.000007 0.000022
Ga -0.022637 3.690708 -2.768923 0.000046 0.000033 0.000032
Ga 3.204762 -1.899048 2.479239 0.000004 0.000010 0.000013
Ga 3.207833 -1.905695 7.728598 0.000016 0.000016 0.000023
Ga 3.208860 -1.905553 -2.769001 0.000038 0.000038 0.000019
Ga -4.882711 0.892545 2.479375 0.000032 0.000002 0.000024
Ga -4.875539 0.893175 7.728600 0.000027 0.000016 0.000031
Ga -4.874052 0.894034 -2.768930 0.000050 0.000039 0.000025
Ga -6.494497 3.683984 2.479283 0.000035 0.000012 0.000012
Ga -6.490608 3.690667 7.728607 0.000027 0.000010 0.000026
Ga -6.488958 3.690744 -2.768972 0.000047 0.000036 0.000033
Ga -3.257111 -1.907091 2.480671 0.000012 0.000003 0.000022
Ga -3.257351 -1.906792 7.732864 0.000019 0.000017 0.000028
Ga -3.256149 -1.906543 -2.773937 0.000040 0.000038 0.000026
Ga -1.630913 0.892813 2.479191 0.000016 -0.000017 0.000032
Ga -1.639098 0.893215 7.728690 0.000021 0.000009 0.000014
Ga -1.637984 0.893974 -2.768882 0.000042 0.000034 0.000011
Ga -3.257021 3.692010 2.481262 0.000031 0.000010 0.000024
Ga -3.257055 3.692161 7.732727 0.000017 0.000004 0.000032
Ga -3.255741 3.692578 -2.772264 0.000043 0.000024 0.000026
Ga -0.019276 -1.898994 2.479042 0.000000 0.000016 0.000040
Ga -0.023095 -1.905604 7.728639 0.000015 0.000007 0.000029
Ga -0.021447 -1.905633 -2.768888 0.000038 0.000035 0.000022
Ga -0.016635 1.821826 5.092628 0.000060 0.000028 0.000015
Ga -0.022386 1.826819 -5.399094 0.000043 0.000011 0.000007
Ga -0.017558 1.823576 -0.133254 0.000023 -0.000008 0.000023
Ga 3.208788 -3.773020 5.104767 0.000066 0.000050 0.000026
Ga 3.211077 -3.771950 -5.399026 0.000042 0.000024 0.000025
Ga 3.209816 -3.772749 -0.144514 0.000035 0.000017 0.000044
Ga 1.592427 -0.965275 5.092810 0.000064 0.000046 0.000028
Ga 1.594093 -0.972960 -5.399104 0.000038 0.000016 0.000031
Ga 1.594038 -0.967210 -0.133389 0.000023 0.000016 0.000039
Ga 3.201770 1.821746 5.092757 0.000065 0.000041 0.000010
Ga 3.210834 1.826771 -5.399170 0.000047 0.000011 0.000018
Ga 3.205419 1.823548 -0.133420 0.000039 0.000012 0.000028
Ga 6.441869 -3.772735 5.104798 0.000067 0.000041 0.000026
Ga 6.443501 -3.773513 -5.399292 0.000046 0.000021 0.000024
Ga 6.443390 -3.771941 -0.144715 0.000023 0.000008 0.000024
Ga 4.825872 -0.973817 5.104918 0.000056 0.000037 0.000028
Ga 4.826134 -0.972310 -5.399227 0.000040 0.000013 0.000034
Ga 4.827433 -0.973223 -0.144953 0.000020 -0.000003 0.000052
Ga -3.257245 1.825969 5.104739 0.000064 0.000038 0.000016
Ga -3.255671 1.825933 -5.399035 0.000056 0.000010 0.000018
Ga -3.255965 1.827078 -0.144491 0.000032 0.000010 0.000053
Ga -0.024571 -3.773019 5.104805 0.000067 0.000040 0.000022
Ga -0.023563 -3.771954 -5.399028 0.000051 0.000021 0.000026
Ga -0.022714 -3.772564 -0.144650 0.000044 0.000019 0.000044
Ga -1.640986 -0.973699 5.104867 0.000054 0.000039 0.000022
Ga -1.638157 -0.972301 -5.399166 0.000046 0.000015 0.000029
Ga -1.639653 -0.972914 -0.144832 0.000032 -0.000002 0.000056
N 1.592860 0.892779 4.403493 -0.000066 -0.000053 -0.000023
N 1.594394 0.893867 -6.042856 -0.000045 -0.000029 -0.000014
N 1.593917 0.893451 -0.789235 -0.000030 -0.000015 -0.000023
N -0.023331 3.692666 4.462568 -0.000072 -0.000042 -0.000016
N -0.021979 3.692634 -6.043801 -0.000051 -0.000028 -0.000010
N -0.022417 3.689923 -0.782640 -0.000033 -0.000006 -0.000009
N 3.209337 -1.906185 4.462683 -0.000065 -0.000050 -0.000022
N 3.210203 -1.905429 -6.043573 -0.000047 -0.000028 -0.000035
N 3.207735 -1.904383 -0.782716 -0.000024 -0.000013 -0.000037
N -4.873733 0.893078 4.462628 -0.000054 -0.000046 -0.000019
N -4.872583 0.894232 -6.043628 -0.000050 -0.000023 -0.000024
N -4.874899 0.895400 -0.782701 -0.000034 -0.000005 -0.000029
N -6.490100 3.692580 4.462586 -0.000068 -0.000045 -0.000015
N -6.488286 3.692630 -6.043702 -0.000054 -0.000029 -0.000023
N -6.488454 3.689920 -0.782741 -0.000043 -0.000023 -0.000030
N -3.257091 -1.906320 4.463420 -0.000057 -0.000038 -0.000021
N -3.255606 -1.905687 -6.040127 -0.000049 -0.000026 -0.000032
N -3.255784 -1.905732 -0.789660 -0.000025 -0.000007 -0.000030
N -1.640289 0.893215 4.462444 -0.000043 -0.000052 -0.000029
N -1.638299 0.894239 -6.043704 -0.000043 -0.000025 -0.000023
N -1.636548 0.895537 -0.782482 -0.000018 -0.000012 -0.000048
N -3.256811 3.692674 4.463910 -0.000060 -0.000053 -0.000016
N -3.255208 3.693259 -6.040356 -0.000050 -0.000029 -0.000024
N -3.255520 3.693120 -0.787985 -0.000036 -0.000018 -0.000025
N -0.024136 -1.906264 4.462543 -0.000051 -0.000040 -0.000032
N -0.021865 -1.905427 -6.043669 -0.000044 -0.000027 -0.000027
N -0.019884 -1.904330 -0.782639 -0.000031 -0.000023 -0.000031
N 0.020520 1.800241 1.857795 0.000010 0.000050 -0.000033
N -0.020736 1.823862 7.080025 -0.000017 0.000002 -0.000011
N -0.022238 1.826049 -3.414743 -0.000040 -0.000024 -0.000014
N 3.209927 -3.773031 1.839619 -0.000019 -0.000001 -0.000030
N 3.208716 -3.773359 7.089172 -0.000014 0.000000 -0.000027
N 3.211168 -3.772350 -3.413122 -0.000043 -0.000025 -0.000021
N 1.592944 -0.923462 1.857772 -0.000006 -0.000005 -0.000023
N 1.592588 -0.970300 7.080201 -0.000022 0.000001 -0.000023
N 1.594033 -0.973225 -3.414725 -0.000046 -0.000027 -0.000022
N 3.165875 1.800116 1.857525 -0.000040 -0.000008 -0.000023
N 3.206140 1.823919 7.080136 -0.000024 -0.000009 -0.000019
N 3.210592 1.826117 -3.414770 -0.000048 -0.000038 -0.000018
N 6.442225 -3.773348 1.837449 -0.000016 -0.000003 -0.000031
N 6.442009 -3.772915 7.089010 -0.000017 -0.000004 -0.000023
N 6.443396 -3.774211 -3.413465 -0.000038 -0.000030 -0.000016
N 4.826299 -0.974400 1.837380 -0.000017 -0.000001 -0.000042
N 4.825966 -0.974051 7.089166 -0.000021 -0.000005 -0.000029
N 4.825926 -0.972649 -3.413334 -0.000041 -0.000029 -0.000022
N -3.256761 1.824205 1.839688 -0.000030 0.000007 -0.000057
N -3.257053 1.825803 7.088988 -0.000019 0.000001 -0.000026
N -3.255606 1.825148 -3.413092 -0.000041 -0.000028 -0.000030
N -0.025130 -3.772995 1.839605 -0.000025 -0.000008 -0.000050
N -0.024267 -3.773469 7.089115 -0.000013 0.000005 -0.000030
N -0.023784 -3.772370 -3.413064 -0.000041 -0.000026 -0.000028
N -1.640585 -0.974257 1.837474 -0.000017 0.000002 -0.000038
N -1.640943 -0.974026 7.089048 -0.000018 0.000000 -0.000028
N -1.637954 -0.972685 -3.413276 -0.000040 -0.000022 -0.000033
