108
Energy=-1.352174e+06 Lattice="9.503701e+00 0.000000e+00 0.000000e+00 -4.757675e+00 8.231045e+00 0.000000e+00 1.265360e-02 2.407211e-02 1.533152e+01" Stress="-6.330987e-04 -3.678253e-04 4.315110e-04 -3.660501e-04 -7.200354e-04 9.822099e-04 4.342245e-04 9.890660e-04 -3.772756e-04" Properties=species:S:1:pos:R:3:forces:R:3 Config_type=AlGaN_super3_20_0_16.xyz
Al 1.567069e+00 8.751030e-01 2.395801e+00 -1.875783e-05 4.118828e-04 4.770480e-04
Al 1.576352e+00 8.906592e-01 7.480566e+00 1.687659e-03 3.054125e-05 1.955850e-03
Al 1.560461e+00 8.736267e-01 -2.671358e+00 -6.462207e-05 2.557701e-04 1.772805e-04
Al -1.296852e-02 3.624314e+00 2.389631e+00 -1.344877e-03 2.581179e-05 3.676964e-04
Al -1.253651e-02 3.635563e+00 7.511921e+00 1.568931e-04 7.565571e-04 5.350887e-04
Al -3.139431e-02 3.608813e+00 -2.687594e+00 -6.250033e-06 -3.426941e-04 7.400368e-04
Al 3.148719e+00 -1.849144e+00 2.390742e+00 8.423737e-04 4.686585e-04 -6.207804e-04
Al 3.158205e+00 -1.854609e+00 7.514636e+00 4.440976e-04 4.618640e-05 1.485584e-04
Ga 3.146002e+00 -1.879148e+00 -2.691486e+00 -2.253395e-04 9.466794e-05 1.313467e-03
Al -4.787920e+00 8.706205e-01 2.388790e+00 -4.750632e-05 1.143437e-03 5.059584e-04
Al -4.788735e+00 8.834676e-01 7.498254e+00 -3.617784e-04 1.558651e-04 5.544871e-04
Al -4.777998e+00 8.762699e-01 -2.673885e+00 -8.465143e-04 -1.635430e-04 -4.377572e-04
Ga -6.378709e+00 3.608574e+00 2.406116e+00 3.197645e-04 3.655911e-04 -1.309107e-04
Al -6.367942e+00 3.616594e+00 7.493737e+00 -3.417707e-05 -1.845352e-04 2.046663e-04
Al -6.376125e+00 3.597019e+00 -2.678259e+00 -6.217616e-05 3.544461e-04 1.154618e-04
Ga -3.212481e+00 -1.869870e+00 2.405168e+00 3.126190e-04 7.295113e-05 1.313334e-04
Al -3.195770e+00 -1.863712e+00 7.499670e+00 -1.147578e-03 -7.924966e-04 1.104553e-03
Al -3.196243e+00 -1.874221e+00 -2.686826e+00 6.444823e-04 -2.664608e-04 3.587188e-04
Ga -1.593364e+00 9.006901e-01 2.395939e+00 4.151356e-05 6.533294e-06 -4.334434e-04
Ga -1.597761e+00 8.979848e-01 7.522512e+00 3.593212e-04 1.381393e-05 2.706771e-04
Al -1.615599e+00 8.750621e-01 -2.688583e+00 6.109509e-04 -2.079038e-04 8.402801e-06
Ga -3.179356e+00 3.627788e+00 2.385294e+00 3.856269e-05 -2.828853e-04 -3.827380e-04
Al -3.181472e+00 3.633779e+00 7.530465e+00 1.826791e-04 9.385096e-05 3.213881e-04
Al -3.182399e+00 3.598456e+00 -2.684627e+00 3.390317e-05 5.547183e-04 3.614019e-05
Al 6.324363e-03 -1.849035e+00 2.411758e+00 -7.146518e-05 -3.095834e-04 -4.042417e-04
Ga -7.113444e-04 -1.852826e+00 7.538956e+00 2.765417e-04 -3.459278e-05 2.497159e-04
Ga -2.586815e-02 -1.861910e+00 -2.712243e+00 3.090535e-04 9.058593e-05 -3.236919e-04
Al 1.218891e-02 1.810405e+00 4.955233e+00 -5.277806e-05 9.515662e-05 -5.084054e-04
Ga -1.856799e-02 1.771598e+00 -5.237805e+00 -1.859717e-04 -5.738087e-05 4.327468e-05
Al -1.469131e-02 1.799440e+00 -1.603986e-01 4.021930e-04 1.375303e-04 -1.400554e-03
Ga 3.177827e+00 -3.675036e+00 4.963320e+00 -1.058325e-04 -2.985134e-04 3.002676e-04
Al 3.141056e+00 -3.706317e+00 -5.265897e+00 6.057535e-05 2.555434e-04 1.940602e-04
Al 3.164824e+00 -3.699971e+00 -1.445933e-01 -9.045104e-06 -1.053833e-04 3.487680e-04
Al 1.583436e+00 -9.279996e-01 4.944870e+00 1.015294e-03 8.455395e-04 1.420347e-05
Al 1.565413e+00 -9.596961e-01 -5.265687e+00 -3.703650e-05 4.888060e-04 1.044845e-04
Al 1.576189e+00 -9.419344e-01 -1.237570e-01 -1.697343e-04 1.323430e-07 4.975250e-04
Al 3.134226e+00 1.783771e+00 4.955442e+00 1.412973e-04 -5.237702e-04 3.839032e-04
Ga 3.126333e+00 1.766818e+00 -5.251949e+00 7.654471e-05 -1.581015e-04 7.287445e-04
Al 3.136819e+00 1.772156e+00 -1.523219e-01 2.940894e-04 1.938256e-04 -4.215593e-04
Al 6.305839e+00 -3.698454e+00 4.978180e+00 2.363954e-04 -2.080438e-04 3.749989e-04
Ga 6.304380e+00 -3.701310e+00 -5.253341e+00 4.626368e-04 -2.822304e-04 3.220902e-04
Al 6.294929e+00 -3.709571e+00 -1.711543e-01 1.321693e-04 1.898651e-04 2.391210e-04
Al 4.715867e+00 -9.426746e-01 4.966032e+00 9.543754e-05 4.133975e-04 -6.493860e-05
Ga 4.724988e+00 -9.712721e-01 -5.262382e+00 -3.324715e-04 4.388386e-04 4.679637e-04
Al 4.720175e+00 -9.483999e-01 -1.534549e-01 2.777567e-04 -2.067061e-04 4.790964e-04
Ga -3.203789e+00 1.791260e+00 4.974514e+00 -3.304007e-04 -3.239803e-04 9.098968e-05
Ga -3.200116e+00 1.781405e+00 -5.238328e+00 -2.299464e-04 9.116740e-05 2.219545e-04
Al -3.195930e+00 1.781597e+00 -1.798582e-01 -1.610870e-04 4.011369e-04 2.410283e-03
Ga -2.330536e-02 -3.683354e+00 4.975838e+00 1.919042e-04 5.390985e-05 -6.111493e-05
Ga -2.048818e-02 -3.709232e+00 -5.245264e+00 -5.474675e-06 -2.351538e-04 -2.156744e-04
Ga -1.761620e-02 -3.708189e+00 -1.607010e-01 -1.367099e-04 9.808157e-05 1.813925e-03
Ga -1.595059e+00 -9.487182e-01 4.955156e+00 -6.454502e-04 3.775976e-04 -3.907679e-04
Al -1.616788e+00 -9.654904e-01 -5.239872e+00 -3.230127e-04 -1.853047e-04 9.422222e-05
Ga -1.613927e+00 -9.500205e-01 -1.487632e-01 8.742232e-05 3.698361e-04 1.484650e-03
N 1.565285e+00 8.861752e-01 4.330059e+00 -1.908906e-04 -3.865169e-04 -3.078061e-04
N 1.552566e+00 8.178535e-01 -5.929494e+00 -1.133581e-04 -3.460640e-05 -9.648439e-04
N 1.559279e+00 8.647400e-01 -7.515697e-01 1.603095e-04 1.180060e-04 -1.951806e-04
N 2.379270e-02 3.606306e+00 4.316120e+00 5.963122e-06 7.344528e-05 -6.035088e-04
N -6.809089e-02 3.624042e+00 -5.901810e+00 -2.471721e-04 1.802214e-04 -4.979963e-04
N -3.315561e-02 3.617452e+00 -7.698523e-01 -2.100294e-04 -6.871598e-05 -6.448115e-04
N 3.152553e+00 -1.813289e+00 4.316863e+00 5.378484e-04 5.080388e-04 -6.706379e-04
N 3.101831e+00 -1.903242e+00 -5.889278e+00 -2.662770e-04 -1.939557e-04 -2.265658e-04
N 3.140187e+00 -1.872353e+00 -7.046206e-01 -1.288124e-04 2.653150e-04 -5.807498e-04
N -4.816238e+00 8.576843e-01 4.320847e+00 2.262584e-04 8.100824e-05 -4.728989e-04
N -4.787747e+00 8.644210e-01 -5.924935e+00 4.131318e-04 -1.618361e-04 -4.720797e-04
N -4.781665e+00 8.712800e-01 -7.611464e-01 -2.388489e-06 2.231823e-04 -5.179901e-05
N -6.404458e+00 3.601431e+00 4.389631e+00 -1.543597e-04 4.649035e-04 -1.976091e-04
N -6.372240e+00 3.600836e+00 -5.923519e+00 -2.020862e-04 3.026325e-04 -6.970938e-04
N -6.406888e+00 3.585837e+00 -7.661316e-01 -2.977359e-04 -1.673281e-04 8.742015e-05
N -3.235420e+00 -1.886887e+00 4.385388e+00 -1.768589e-04 -2.676521e-04 3.381547e-04
N -3.155480e+00 -1.859092e+00 -5.912740e+00 3.452644e-04 4.246498e-04 -5.198562e-04
N -3.234150e+00 -1.892637e+00 -7.723880e-01 -3.521912e-04 1.161302e-04 2.559766e-04
N -1.560090e+00 9.215230e-01 4.368698e+00 5.781584e-04 -3.445704e-04 4.098480e-05
N -1.611994e+00 8.218479e-01 -5.838410e+00 5.272958e-04 -8.522954e-05 -2.901147e-04
N -1.602106e+00 9.181080e-01 -7.716167e-01 -5.187249e-04 1.505005e-04 -5.505540e-04
N -3.182882e+00 3.629951e+00 4.345070e+00 2.236498e-04 -1.544737e-05 -4.336031e-05
N -3.158750e+00 3.629315e+00 -5.892066e+00 1.468378e-04 -2.425632e-04 -3.781885e-04
N -3.143082e+00 3.596336e+00 -7.686071e-01 2.825853e-04 3.123029e-04 -5.302836e-04
N 3.657931e-02 -1.832598e+00 4.321348e+00 -1.022201e-03 -7.756506e-04 -3.270082e-04
N -2.625423e-02 -1.829839e+00 -5.812122e+00 -1.917932e-04 1.665766e-05 7.459755e-05
N 2.407441e-02 -1.839059e+00 -7.486601e-01 7.202751e-04 6.188643e-05 -3.050325e-05
N 2.791336e-02 1.824993e+00 1.757546e+00 1.684614e-04 -1.014141e-03 7.395684e-04
N 2.858776e-02 1.834041e+00 6.876208e+00 -4.868023e-04 -1.185965e-03 -4.445604e-05
N -1.975816e-02 1.780698e+00 -3.249917e+00 -5.705033e-05 2.854119e-04 9.113376e-05
N 3.198081e+00 -3.664038e+00 1.773928e+00 1.177743e-03 -5.332054e-04 6.118745e-04
N 3.158895e+00 -3.684763e+00 6.948259e+00 -3.488384e-05 3.769445e-04 2.828652e-05
N 3.146766e+00 -3.752575e+00 -3.336943e+00 1.242661e-04 1.448303e-05 -7.080421e-04
N 1.568026e+00 -9.441629e-01 1.798211e+00 -1.779469e-04 5.124273e-04 -6.620490e-04
N 1.617328e+00 -9.222033e-01 6.869114e+00 -1.303072e-03 3.125191e-04 -4.528631e-04
N 1.571353e+00 -9.037974e-01 -3.355658e+00 -1.911526e-04 9.235734e-06 -2.513615e-04
N 3.145070e+00 1.744327e+00 1.765779e+00 -5.173960e-04 -1.387911e-04 3.550370e-04
N 3.148034e+00 1.797345e+00 6.879629e+00 1.283246e-04 -1.863186e-04 -2.697914e-04
N 3.136745e+00 1.778288e+00 -3.260028e+00 5.539078e-04 -1.554305e-04 -7.191778e-05
N 6.276451e+00 -3.714812e+00 1.739194e+00 5.653223e-04 4.181542e-04 -7.070791e-04
N 6.316335e+00 -3.686840e+00 6.901852e+00 -1.661579e-04 -1.507583e-05 -2.419553e-04
N 6.310318e+00 -3.704683e+00 -3.260951e+00 1.709539e-04 -3.992597e-05 -2.531633e-04
N 4.696055e+00 -9.153166e-01 1.762391e+00 -1.568280e-03 -2.870800e-03 -1.484279e-04
N 4.731355e+00 -9.420589e-01 6.898434e+00 -1.829276e-04 -4.647931e-04 -6.083439e-04
N 4.766977e+00 -9.348130e-01 -3.279141e+00 -2.798360e-04 4.684155e-04 -5.668039e-04
N -3.234402e+00 1.768746e+00 1.740461e+00 -1.277771e-04 -2.661002e-04 7.808838e-05
N -3.230686e+00 1.825324e+00 6.945046e+00 -1.434350e-04 7.596817e-05 -2.556241e-04
N -3.201514e+00 1.781826e+00 -3.252172e+00 1.912133e-04 -5.887250e-05 2.031026e-04
N -2.519028e-02 -3.645733e+00 1.815084e+00 -3.812410e-04 -1.486979e-04 -1.837851e-03
N -1.179151e-02 -3.727644e+00 6.950808e+00 -1.790217e-04 -9.523237e-05 2.628639e-05
N -2.360391e-02 -3.760241e+00 -3.262472e+00 -1.910317e-04 -4.640868e-04 1.664967e-04
N -1.565953e+00 -9.707336e-01 1.825705e+00 -3.486771e-04 -4.944361e-04 -1.039907e-03
N -1.633901e+00 -9.675711e-01 6.917410e+00 6.353246e-04 6.537082e-04 -4.860490e-05
N -1.659558e+00 -9.364113e-01 -3.318935e+00 -2.496658e-04 2.268263e-04 -6.979256e-05
