108
Energy=-1764153.185083 Lattice="9.558292 0.000000 0.000000 -4.784704 8.274610 0.000000 -0.002681 -0.002436 15.459810" Stress="0.000003 -0.000002 -0.000000 -0.000002 0.000000 -0.000001 -0.000000 -0.000001 0.000003" Properties=species:S:1:pos:R:3:forces:R:3
Al 1.575824 0.879120 2.434241 0.000029 -0.000046 -0.000239
Al 1.577147 0.889149 7.568149 0.000015 -0.000028 -0.000126
Al 1.565709 0.886671 -2.727960 0.000048 0.000039 0.000096
Al -0.025625 3.631865 2.449576 -0.000072 0.000100 0.000056
Al -0.007305 3.633603 7.576265 -0.000093 0.000054 0.000125
Al -0.022369 3.623164 -2.747408 0.000002 0.000016 0.000178
Al 3.144759 -1.881190 2.429739 -0.000011 0.000011 -0.000036
Al 3.159561 -1.874546 7.583560 -0.000060 0.000031 0.000123
Ga 3.153848 -1.885897 -2.723319 -0.000059 0.000018 0.000081
Ga -4.818267 0.900791 2.450280 0.000195 -0.000003 -0.000009
Ga -4.828109 0.888104 7.570208 0.000154 0.000010 0.000053
Ga -4.825653 0.887025 -2.728862 0.000082 -0.000029 0.000082
Al -6.407484 3.621512 2.448933 0.000068 -0.000100 -0.000128
Al -6.417884 3.626376 7.564225 0.000191 0.000194 0.000635
Ga -6.405265 3.626393 -2.736822 -0.000035 0.000074 0.000015
Ga -3.211422 -1.896951 2.455446 0.000038 0.000052 -0.000062
Ga -3.222448 -1.907504 7.586844 -0.000014 0.000057 -0.000000
Ga -3.210339 -1.893835 -2.743813 -0.000096 -0.000031 0.000031
Al -1.610210 0.900385 2.443837 -0.000005 -0.000053 -0.000057
Ga -1.604445 0.899623 7.589444 0.000042 -0.000129 0.000188
Ga -1.593617 0.895933 -2.733499 0.000260 -0.000129 -0.000067
Al -3.206421 3.637251 2.461342 0.000028 -0.000010 -0.000153
Ga -3.216428 3.644918 7.553385 -0.000050 -0.000055 0.000179
Al -3.205901 3.649943 -2.721707 0.000034 -0.000069 0.000070
Ga 0.005152 -1.875749 2.449982 0.000049 0.000028 0.000140
Ga -0.001948 -1.885129 7.550947 -0.000038 -0.000094 -0.000016
Al -0.004601 -1.876243 -2.706529 0.000001 -0.000049 0.000064
Ga -0.007674 1.798599 4.990813 -0.000217 0.000204 0.000247
Al 0.008813 1.813938 -5.312533 0.000002 0.000153 0.000112
Ga 0.000819 1.795027 -0.124687 0.000038 0.000055 0.000076
Ga 3.162704 -3.710203 4.998946 0.000076 0.000049 0.000118
Ga 3.192503 -3.720584 -5.313576 -0.000042 0.000143 0.000134
Ga 3.165257 -3.722014 -0.127334 -0.000014 0.000133 -0.000001
Al 1.587497 -0.949012 5.007690 -0.000343 -0.000319 0.000218
Ga 1.583734 -0.932668 -5.303017 -0.000224 0.000098 0.000146
Al 1.576164 -0.942665 -0.149304 -0.000152 0.000185 0.000170
Al 3.150852 1.814334 5.005783 0.000305 -0.000032 -0.000026
Al 3.140248 1.802944 -5.326632 0.000304 -0.000527 -0.000230
Al 3.142770 1.790969 -0.130209 0.000033 0.000005 0.000226
Al 6.365763 -3.740725 5.011734 -0.000386 -0.000057 -0.000116
Al 6.346681 -3.736871 -5.321286 0.000047 -0.000033 0.000026
Ga 6.350374 -3.738038 -0.132844 0.000138 0.000014 0.000005
Ga 4.738052 -0.955186 5.007196 0.000041 -0.000038 0.000010
Al 4.750739 -0.959299 -5.319274 -0.000106 -0.000015 0.000052
Ga 4.742055 -0.953241 -0.122244 -0.000128 0.000013 -0.000000
Al -3.219246 1.809860 4.990419 -0.000014 -0.000037 0.000051
Ga -3.220794 1.798136 -5.292138 -0.000040 -0.000007 0.000171
Ga -3.218642 1.810209 -0.130086 0.000099 -0.000102 -0.000094
Al -0.035136 -3.736999 4.988044 -0.000095 0.000246 0.000272
Ga -0.036116 -3.722829 -5.295387 -0.000041 -0.000037 0.000071
Ga -0.017425 -3.721387 -0.133621 -0.000009 -0.000002 0.000021
Ga -1.611330 -0.956131 5.004895 -0.000086 0.000105 0.000043
Ga -1.614873 -0.962098 -5.296677 -0.000132 -0.000105 -0.000007
Ga -1.599435 -0.959315 -0.133603 -0.000104 -0.000017 -0.000053
N 1.617593 0.852529 4.357788 -0.000139 -0.000020 0.000052
N 1.570100 0.927079 -5.970069 0.000208 -0.000028 0.000127
N 1.610753 0.860507 -0.793150 0.000142 0.000009 -0.000198
N 0.015241 3.663848 4.356725 0.000330 0.000072 0.000008
N 0.020599 3.612562 -5.961147 -0.000048 0.000006 -0.000088
N -0.026371 3.630914 -0.825878 -0.000020 0.000047 0.000038
N 3.116005 -1.853997 4.339830 -0.000084 0.000015 -0.000023
N 3.199027 -1.854858 -5.959085 -0.000056 0.000024 -0.000029
N 3.124584 -1.860584 -0.746446 -0.000024 0.000025 -0.000061
N -4.813907 0.934347 4.429466 -0.000069 -0.000054 0.000024
N -4.848267 0.862502 -5.902435 -0.000215 0.000208 0.000103
N -4.851965 0.905521 -0.742347 0.000106 0.000105 -0.000041
N -6.404208 3.632623 4.376235 -0.000025 -0.000146 -0.000008
N -6.436696 3.615694 -5.957480 0.000014 0.000231 -0.000413
N -6.398012 3.584542 -0.757153 0.000026 -0.000044 -0.000121
N -3.211087 -1.932079 4.423850 -0.000027 -0.000135 -0.000041
N -3.247465 -1.908218 -5.887652 -0.000055 0.000012 -0.000030
N -3.210839 -1.883002 -0.763229 -0.000047 0.000033 0.000037
N -1.657046 0.909016 4.354994 0.000161 -0.000058 -0.000136
N -1.572080 0.913068 -5.892070 0.000183 -0.000138 -0.000004
N -1.611128 0.887909 -0.761477 0.000167 -0.000039 0.000041
N -3.252773 3.619286 4.379313 0.000173 -0.000097 -0.000090
N -3.214223 3.642458 -5.938908 0.000102 -0.000131 -0.000116
N -3.209707 3.642391 -0.813212 0.000043 -0.000035 0.000106
N 0.029860 -1.900177 4.433816 0.000240 -0.000005 0.000011
N -0.010937 -1.878523 -5.940791 0.000042 -0.000093 -0.000117
N 0.024983 -1.856833 -0.783097 0.000093 -0.000102 0.000013
N -0.016709 1.799301 1.871318 0.000059 0.000054 -0.000000
N 0.020492 1.821869 6.973483 -0.000005 0.000022 -0.000010
N 0.030064 1.822157 -3.382088 -0.000033 0.000119 -0.000041
N 3.165365 -3.724222 1.871902 -0.000042 0.000088 -0.000020
N 3.213705 -3.691676 6.988145 -0.000060 0.000018 -0.000190
N 3.171388 -3.767036 -3.326822 0.000003 0.000080 -0.000074
N 1.611066 -0.928582 1.776939 -0.000057 0.000161 -0.000002
N 1.622980 -0.928444 6.934794 -0.000079 0.000140 -0.000159
N 1.532561 -0.929550 -3.318539 -0.000160 0.000113 -0.000110
N 3.112909 1.823593 1.793632 -0.000005 0.000141 0.000002
N 3.112951 1.827461 6.928506 -0.000152 -0.000260 -0.000183
N 3.111436 1.774142 -3.407585 0.000103 0.000003 -0.000087
N 6.350275 -3.772846 1.844922 -0.000027 -0.000067 -0.000001
N 6.351123 -3.772361 6.933915 0.000203 -0.000107 -0.000181
N 6.311229 -3.749765 -3.401495 0.000022 -0.000012 -0.000048
N 4.716749 -0.979241 1.851085 -0.000100 -0.000018 -0.000020
N 4.713449 -0.983537 6.977278 -0.000163 -0.000044 -0.000138
N 4.751520 -0.958914 -3.404634 -0.000129 0.000017 -0.000087
N -3.171262 1.828367 1.851837 -0.000080 0.000082 0.000017
N -3.210290 1.795175 6.901606 0.000053 0.000029 -0.000189
N -3.215899 1.847405 -3.321041 0.000044 0.000023 0.000050
N -0.021366 -3.768363 1.857832 -0.000028 -0.000027 -0.000076
N -0.074040 -3.749888 6.907352 -0.000009 -0.000091 -0.000256
N 0.017019 -3.691368 -3.308380 0.000077 0.000019 -0.000011
N -1.609552 -0.914000 1.847933 -0.000093 0.000015 -0.000044
N -1.620458 -0.954692 6.970740 -0.000108 -0.000027 -0.000049
N -1.567054 -0.985062 -3.321130 -0.000110 -0.000071 0.000008
