108
Energy=-1214847.407965 Lattice="9.487428 0.000000 0.000000 -4.745710 8.212771 0.000000 0.001971 -0.003042 15.300600" Stress="-0.000002 -0.000002 0.000001 -0.000001 -0.000004 -0.000001 0.000001 -0.000001 0.000002" Properties=species:S:1:pos:R:3:forces:R:3
Al 1.557801 0.873624 2.398096 0.000003 -0.000473 -0.001166
Al 1.563873 0.881290 7.529176 -0.001995 -0.000662 0.001002
Al 1.556192 0.878888 -2.722496 0.000092 -0.000024 -0.001589
Al -0.023192 3.603456 2.417240 0.002376 0.000559 -0.000474
Al -0.030130 3.608795 7.487268 0.000357 0.000410 0.000333
Al -0.024995 3.600435 -2.703460 0.000750 -0.001005 0.000515
Al 3.145646 -1.866412 2.411382 -0.001505 0.001285 -0.000254
Al 3.158000 -1.869390 7.517562 -0.000383 0.000309 -0.000214
Ga 3.137282 -1.863023 -2.720826 -0.000206 0.000160 0.000110
Al -4.771880 0.871471 2.436915 0.000193 -0.000463 -0.000371
Al -4.766454 0.863145 7.513110 -0.000725 -0.000028 -0.000235
Al -4.772423 0.881837 -2.738826 0.000141 0.000029 -0.000317
Al -6.356160 3.599789 2.406769 -0.001314 0.003153 -0.000230
Ga -6.349925 3.604721 7.513933 -0.000022 0.000303 0.000443
Al -6.346539 3.602378 -2.711958 -0.000592 -0.000053 -0.000186
Ga -3.192939 -1.873323 2.403416 0.000342 -0.000374 -0.000357
Al -3.206950 -1.865846 7.508176 -0.000127 -0.000046 0.000144
Ga -3.173126 -1.859975 -2.695410 0.000094 0.000213 0.000037
Al -1.602015 0.880814 2.423228 0.000365 -0.000256 -0.000264
Ga -1.603705 0.896006 7.523015 0.000577 -0.000347 0.000198
Al -1.598280 0.873990 -2.736330 0.000434 -0.000103 -0.000430
Ga -3.181825 3.610440 2.410757 -0.000504 0.000066 -0.000004
Al -3.179347 3.611225 7.505553 -0.000541 0.000455 -0.000281
Ga -3.182822 3.609551 -2.706146 -0.000001 -0.000290 0.000144
Ga -0.017458 -1.859996 2.388874 0.000224 0.000107 -0.000137
Ga -0.012110 -1.872642 7.531165 0.000092 0.000032 0.000372
Al -0.022838 -1.851625 -2.709811 -0.000018 0.000066 -0.000032
Al -0.023329 1.796169 4.943945 -0.000628 0.001421 0.000649
Al -0.022571 1.789723 -5.237011 0.000579 0.000144 0.000392
Ga -0.027568 1.783415 -0.158405 -0.000094 0.000254 0.000067
Al 3.149531 -3.694703 4.967273 -0.000087 0.000044 0.000029
Al 3.138773 -3.695130 -5.280211 0.000107 0.000090 0.000272
Al 3.149715 -3.684504 -0.137904 0.000118 0.000029 0.000176
Ga 1.574127 -0.955185 4.971647 -0.000208 -0.000414 -0.000018
Al 1.562212 -0.946281 -5.254435 -0.000238 0.000421 0.000226
Al 1.553631 -0.964408 -0.163784 -0.000308 0.000330 0.001100
Ga 3.134898 1.785724 4.952493 0.000679 0.000263 0.000289
Al 3.143088 1.774977 -5.245504 -0.000270 -0.000088 -0.000095
Ga 3.136943 1.792285 -0.148259 0.000169 0.000009 -0.000142
Al 6.291277 -3.695512 4.961771 -0.000020 0.000623 -0.000186
Ga 6.291586 -3.691613 -5.248077 0.000051 0.000056 0.000327
Al 6.306554 -3.698913 -0.159290 0.000025 -0.000322 0.000911
Al 4.718590 -0.960420 4.970422 0.000010 0.000179 0.000028
Al 4.720465 -0.941260 -5.269881 -0.000184 -0.000067 -0.000281
Ga 4.714929 -0.955452 -0.139427 -0.000144 -0.000149 0.000507
Al -3.189162 1.792612 4.966491 0.001361 -0.000422 -0.000496
Al -3.192057 1.790963 -5.257041 -0.000897 0.000487 0.000513
Ga -3.183067 1.779002 -0.150717 0.000114 -0.000081 0.000032
Al -0.019986 -3.702295 4.959886 0.000063 0.000046 0.000135
Al -0.009064 -3.686928 -5.231515 -0.000602 -0.000286 -0.000215
Al -0.032051 -3.674325 -0.171208 -0.000101 -0.000130 0.000237
Ga -1.614768 -0.947731 4.966288 -0.000071 0.000142 0.000019
Al -1.601705 -0.944787 -5.244144 -0.000113 0.000133 0.000183
Al -1.587509 -0.952947 -0.162383 -0.000200 0.000106 0.000278
N 1.513193 0.888910 4.302286 0.000937 -0.000081 0.000270
N 1.553464 0.882230 -5.848402 0.000065 -0.000382 -0.000016
N 1.559497 0.826728 -0.809986 0.000221 -0.000149 0.001522
N -0.024527 3.612436 4.345755 -0.000116 -0.000054 0.000026
N -0.062853 3.581185 -5.899262 -0.000327 0.000095 -0.000007
N -0.028257 3.654849 -0.785264 -0.000272 0.000161 0.000242
N 3.180688 -1.893320 4.333867 0.000023 -0.000168 0.000051
N 3.143446 -1.864422 -5.860616 -0.000137 -0.000027 -0.000196
N 3.102525 -1.892145 -0.745324 -0.000302 -0.000042 0.000102
N -4.726876 0.846293 4.349289 0.000189 -0.000036 -0.000027
N -4.767148 0.876832 -5.866757 0.000057 0.000149 -0.000132
N -4.770858 0.873064 -0.834322 0.000206 0.000085 0.000216
N -6.352125 3.659921 4.330824 -0.000174 -0.000018 -0.000017
N -6.307357 3.589751 -5.817747 0.000899 0.000330 0.000245
N -6.347946 3.650938 -0.794193 -0.000010 0.000240 0.000041
N -3.227245 -1.890113 4.378282 0.000066 -0.000858 0.000142
N -3.184766 -1.819554 -5.875247 0.000059 0.000300 -0.000301
N -3.144339 -1.886417 -0.718125 0.000038 0.000178 0.000075
N -1.602473 0.923769 4.340639 -0.001998 -0.000169 0.000518
N -1.604310 0.887757 -5.798441 0.000771 -0.001855 -0.000612
N -1.606915 0.829408 -0.823550 0.000196 -0.000371 0.000189
N -3.182624 3.614602 4.395703 -0.000003 -0.000181 0.000015
N -3.190678 3.613957 -5.866113 -0.000253 0.000109 -0.000114
N -3.180824 3.658961 -0.725151 -0.000038 -0.000034 0.000081
N -0.020978 -1.909290 4.359822 0.000280 -0.000279 -0.000053
N -0.021761 -1.865766 -5.798268 0.000123 -0.000136 -0.000065
N -0.020887 -1.860426 -0.775696 0.000307 -0.000117 -0.000039
N -0.027078 1.782589 1.833019 -0.000112 0.001008 0.000337
N 0.024846 1.806363 6.867406 -0.000280 -0.000848 -0.000323
N -0.018710 1.792952 -3.315269 -0.000143 0.000090 0.000167
N 3.188707 -3.668658 1.785248 -0.000349 -0.000258 -0.000514
N 3.141174 -3.688060 6.897408 -0.000137 0.000067 -0.000092
N 3.187798 -3.717468 -3.368404 -0.001050 0.000603 -0.001095
N 1.602624 -0.929739 1.764186 0.001093 -0.000230 0.000036
N 1.605474 -0.925200 6.947237 0.000625 -0.000395 -0.000080
N 1.522753 -0.927288 -3.339911 -0.000364 0.000108 -0.000153
N 3.145352 1.786376 1.847020 -0.000677 -0.001729 0.000128
N 3.133276 1.734874 6.927727 0.002482 0.000072 -0.000270
N 3.137070 1.786365 -3.323807 0.000077 -0.000052 -0.000027
N 6.300227 -3.746029 1.767617 -0.000047 -0.001238 0.000235
N 6.262932 -3.669409 6.883697 0.000044 0.000051 -0.000304
N 6.296502 -3.736150 -3.278531 0.000952 0.000203 -0.000209
N 4.677455 -0.922920 1.834764 0.000296 0.000346 -0.000943
N 4.718785 -0.951597 6.898917 -0.000378 0.000086 -0.000122
N 4.726310 -0.909874 -3.362004 -0.000139 0.000164 0.000321
N -3.189605 1.734391 1.830293 0.000152 -0.000040 0.000058
N -3.228734 1.809011 6.887202 -0.000028 -0.000163 -0.000336
N -3.187389 1.746842 -3.342956 -0.000277 0.000067 0.000061
N -0.066216 -3.716550 1.745816 0.000007 -0.000200 -0.000175
N 0.015041 -3.713520 6.864748 0.000733 -0.000415 0.000057
N -0.057264 -3.663196 -3.318506 -0.000069 0.000016 -0.000018
N -1.604426 -0.897983 1.758074 -0.000184 0.000029 -0.000322
N -1.641750 -0.970440 6.931111 -0.000136 0.000244 -0.000347
N -1.563684 -0.931566 -3.334626 -0.000115 -0.000111 0.000077
