108
Energy=-2.084582e+06 Lattice="9.598084e+00 0.000000e+00 0.000000e+00 -4.801315e+00 8.310423e+00 0.000000e+00 7.518269e-03 1.369709e-04 1.554547e+01" Stress="1.860092e-04 -1.047170e-04 8.857777e-05 -1.037494e-04 -4.145979e-05 2.054775e-05 8.945597e-05 1.722687e-05 1.377927e-05" Properties=species:S:1:pos:R:3:forces:R:3 Config_type=AlGaN_super3_36_2_17.xyz
Al 1.569628e+00 8.755794e-01 2.479525e+00 1.883645e-04 -2.319872e-04 -9.162155e-05
Al 1.579698e+00 8.812109e-01 7.598247e+00 9.952405e-05 1.084132e-04 2.368609e-04
Ga 1.577456e+00 8.799638e-01 -2.754576e+00 1.090318e-04 -4.856875e-05 1.336991e-04
Al -1.595684e-02 3.653408e+00 2.460835e+00 1.700930e-04 5.624290e-05 5.440595e-05
Al -5.115206e-03 3.646896e+00 7.607027e+00 -2.722494e-05 2.582126e-05 1.291167e-04
Ga -4.466480e-03 3.656685e+00 -2.739976e+00 1.791098e-05 4.762346e-06 4.595529e-05
Al 3.171597e+00 -1.884993e+00 2.471083e+00 2.287527e-04 -6.064886e-05 -5.484004e-07
Ga 3.163934e+00 -1.881602e+00 7.601135e+00 1.626226e-04 -5.811825e-05 4.526814e-05
Ga 3.167318e+00 -1.879328e+00 -2.739493e+00 1.768974e-05 9.074443e-06 -4.715540e-06
Ga -4.839125e+00 8.686719e-01 2.441603e+00 1.234975e-04 -3.038148e-06 1.356398e-04
Al -4.834970e+00 8.911325e-01 7.625288e+00 1.282368e-04 7.483338e-06 2.756848e-05
Ga -4.834404e+00 8.865094e-01 -2.726285e+00 1.062354e-04 -4.206291e-05 2.256358e-05
Ga -6.434460e+00 3.656095e+00 2.449440e+00 1.282480e-04 1.194917e-05 1.902660e-04
Al -6.428537e+00 3.648320e+00 7.626102e+00 2.657881e-05 1.965363e-07 6.413188e-05
Al -6.438336e+00 3.659522e+00 -2.748069e+00 -4.922658e-06 1.630046e-05 1.081993e-04
Ga -3.231078e+00 -1.900565e+00 2.432810e+00 1.257281e-04 -8.961863e-05 1.663149e-04
Ga -3.207168e+00 -1.900706e+00 7.641009e+00 -4.998622e-05 4.357046e-05 6.207973e-05
Ga -3.216037e+00 -1.904404e+00 -2.745629e+00 2.627550e-05 1.277640e-05 6.549973e-05
Ga -1.596378e+00 8.877997e-01 2.474466e+00 2.584904e-04 -8.816558e-05 1.451319e-04
Ga -1.602359e+00 8.831982e-01 7.613269e+00 1.726310e-04 -3.308459e-05 3.889359e-05
Ga -1.621693e+00 8.768830e-01 -2.751610e+00 1.806204e-04 -1.177174e-04 1.279888e-04
Ga -3.211118e+00 3.676484e+00 2.471699e+00 1.205001e-04 -1.113005e-04 8.010711e-05
Ga -3.219274e+00 3.662447e+00 7.609130e+00 1.465168e-04 -8.589836e-05 4.999976e-06
Ga -3.234854e+00 3.657827e+00 -2.740418e+00 4.430085e-05 -8.292404e-05 -2.482063e-05
Al -1.693614e-03 -1.877572e+00 2.464908e+00 3.187036e-04 -1.047878e-06 -9.855033e-05
Al -9.944283e-03 -1.875220e+00 7.629979e+00 -3.948284e-05 -9.283721e-05 1.888504e-04
Ga -2.316212e-02 -1.882935e+00 -2.762256e+00 8.352885e-05 -7.234311e-05 1.138602e-04
Al -6.994407e-03 1.817413e+00 5.039736e+00 -2.189761e-05 2.712683e-04 2.854384e-05
Ga -1.528972e-02 1.803242e+00 -5.367182e+00 -8.474115e-05 4.722463e-05 1.400983e-04
Ga -1.480833e-02 1.815844e+00 -1.195183e-01 2.768742e-04 1.335768e-04 1.630049e-04
Al 3.197227e+00 -3.731615e+00 5.024123e+00 -7.351842e-05 4.172838e-04 -9.392108e-05
Ga 3.188847e+00 -3.727374e+00 -5.346567e+00 -4.963957e-05 1.626375e-05 5.598690e-05
Ga 3.196614e+00 -3.720398e+00 -1.163504e-01 2.613507e-04 6.802671e-05 -5.580867e-05
Al 1.569024e+00 -9.588377e-01 5.026072e+00 1.769483e-03 -1.053536e-03 -1.710129e-03
Al 1.561004e+00 -9.589796e-01 -5.367603e+00 -8.835486e-05 8.570996e-05 1.295454e-04
Ga 1.585148e+00 -9.630124e-01 -1.030742e-01 1.651238e-04 1.711134e-04 1.456084e-04
Ga 3.160007e+00 1.796700e+00 5.059288e+00 5.658705e-05 -9.369476e-05 6.564087e-05
Ga 3.160600e+00 1.809899e+00 -5.357987e+00 1.332401e-05 -6.583660e-06 1.447211e-04
Ga 3.162362e+00 1.811909e+00 -1.417221e-01 3.467152e-04 4.402877e-05 7.159683e-05
Ga 6.359318e+00 -3.747690e+00 5.050123e+00 -5.454831e-05 2.775810e-05 1.244109e-04
Al 6.380957e+00 -3.737867e+00 -5.353163e+00 2.666042e-05 1.846216e-06 8.295871e-05
Al 6.371222e+00 -3.733058e+00 -1.406236e-01 2.775596e-04 6.503255e-05 6.386151e-05
Ga 4.763934e+00 -9.723589e-01 5.046186e+00 -4.423421e-04 -8.253143e-05 -5.480263e-05
Ga 4.776333e+00 -9.678069e-01 -5.348250e+00 -3.232006e-05 5.342385e-05 5.211900e-06
Al 4.771748e+00 -9.784801e-01 -1.326138e-01 1.591692e-04 4.875416e-05 2.323366e-07
Ga -3.213215e+00 1.811473e+00 5.051291e+00 -2.172314e-05 8.396169e-05 1.234588e-05
Ga -3.227791e+00 1.795696e+00 -5.345068e+00 1.735641e-05 -6.688282e-06 9.725411e-05
Ga -3.228063e+00 1.800570e+00 -1.344415e-01 3.346040e-04 5.340662e-05 1.799634e-05
Ga -1.222778e-02 -3.710435e+00 5.058848e+00 1.234984e-04 5.178089e-06 4.649541e-05
Ga -4.603926e-02 -3.715518e+00 -5.350608e+00 3.581566e-05 -3.476761e-05 7.427885e-05
Ga -4.143347e-02 -3.728589e+00 -1.449879e-01 3.530971e-04 7.290974e-05 9.850179e-05
Ga -1.596784e+00 -9.658233e-01 5.040271e+00 -1.684058e-04 9.366888e-05 1.286178e-04
Al -1.614021e+00 -9.753017e-01 -5.349843e+00 -7.457473e-05 2.079145e-05 5.896994e-05
Ga -1.632220e+00 -9.732812e-01 -1.309797e-01 2.022570e-04 8.955426e-05 6.723355e-05
N 1.537566e+00 8.612995e-01 4.407257e+00 -3.038011e-04 1.646249e-04 1.354401e-04
N 1.572853e+00 8.329707e-01 -6.024678e+00 1.074283e-04 -2.730371e-05 -1.836773e-04
N 1.570220e+00 8.743432e-01 -7.792350e-01 4.043951e-06 -5.928897e-05 -1.135225e-04
N -5.777973e-02 3.628657e+00 4.388209e+00 -2.764620e-05 -1.176223e-04 -1.010248e-04
N 1.493810e-02 3.678395e+00 -6.015061e+00 3.433073e-05 1.660711e-05 -8.332328e-05
N 1.730714e-02 3.676796e+00 -7.589732e-01 -1.085272e-04 -2.420990e-05 -7.292106e-05
N 3.138168e+00 -1.908507e+00 4.403009e+00 -8.197633e-04 4.642260e-04 5.913914e-04
N 3.127777e+00 -1.863104e+00 -5.966238e+00 -5.693503e-06 -3.271300e-05 -1.204309e-04
N 3.208028e+00 -1.860077e+00 -7.560844e-01 -4.016138e-05 -7.076949e-05 5.920435e-05
N -4.824668e+00 8.825376e-01 4.411858e+00 1.152193e-04 4.854912e-05 -3.835726e-05
N -4.830825e+00 8.831504e-01 -6.014120e+00 4.052362e-05 3.083958e-06 -5.185724e-05
N -4.829499e+00 8.324649e-01 -7.415474e-01 -4.484685e-05 3.421427e-05 -5.979890e-06
N -6.418864e+00 3.654818e+00 4.422105e+00 -3.326342e-05 7.424426e-06 -9.825204e-05
N -6.468951e+00 3.675899e+00 -6.007533e+00 -5.030232e-05 2.736572e-05 -9.238707e-05
N -6.472585e+00 3.679809e+00 -8.135626e-01 -1.829138e-04 6.465592e-06 -2.371977e-05
N -3.220211e+00 -1.890201e+00 4.410736e+00 7.654789e-05 -4.830553e-05 -1.149661e-04
N -3.181027e+00 -1.914707e+00 -5.922914e+00 3.067333e-05 -2.901799e-05 -3.529876e-05
N -3.264352e+00 -1.914265e+00 -7.403179e-01 -7.716149e-05 -5.648006e-05 -4.468686e-06
N -1.573812e+00 9.105903e-01 4.451757e+00 1.501181e-04 -1.020569e-04 -1.123999e-04
N -1.624172e+00 8.340603e-01 -5.955287e+00 1.284623e-04 -6.958664e-05 -9.551579e-05
N -1.618535e+00 8.820282e-01 -7.697936e-01 1.801030e-06 -7.830105e-05 -9.521290e-05
N -3.181577e+00 3.683467e+00 4.450751e+00 -1.265772e-05 -1.113004e-04 -4.029944e-05
N -3.226425e+00 3.659182e+00 -5.964315e+00 -2.811638e-05 -4.783664e-05 -6.854370e-05
N -3.220710e+00 3.661124e+00 -7.596618e-01 -1.012142e-04 -7.690803e-05 1.823459e-05
N 2.355512e-02 -1.863836e+00 4.375196e+00 -2.132147e-05 -6.805819e-05 -9.064615e-05
N -2.243970e-02 -1.835620e+00 -5.989236e+00 5.203236e-05 -5.905810e-05 -1.189102e-04
N -1.694541e-02 -1.876340e+00 -7.835143e-01 -1.300777e-05 -1.110957e-04 -7.847280e-05
N 2.777053e-02 1.832298e+00 1.867827e+00 -3.922968e-04 8.710448e-05 -1.239522e-04
N 2.911820e-02 1.835476e+00 6.971575e+00 -8.495895e-05 3.781790e-05 -7.860362e-05
N -2.211088e-02 1.809669e+00 -3.390447e+00 -9.480977e-05 1.222159e-04 -1.438880e-04
N 3.229211e+00 -3.705358e+00 1.872279e+00 -5.060331e-04 -5.539471e-05 1.641257e-05
N 3.234258e+00 -3.756237e+00 6.949003e+00 -4.754137e-05 1.655292e-05 8.280060e-06
N 3.181902e+00 -3.734623e+00 -3.370151e+00 -2.758776e-05 9.616408e-05 -2.245289e-05
N 1.584733e+00 -9.602667e-01 1.891111e+00 -5.073971e-04 1.972192e-05 1.677276e-04
N 1.534464e+00 -9.401092e-01 6.952429e+00 -3.350828e-04 2.079775e-04 6.825034e-04
N 1.576563e+00 -9.624418e-01 -3.448288e+00 -1.821199e-04 1.002084e-04 -1.036553e-04
N 3.125972e+00 1.783488e+00 1.840497e+00 -3.792079e-04 1.917726e-05 -1.199652e-04
N 3.176412e+00 1.807089e+00 7.050349e+00 -8.879723e-05 -2.509939e-05 -6.537300e-05
N 3.173352e+00 1.856474e+00 -3.365216e+00 -3.304519e-05 2.349732e-05 -1.069828e-04
N 6.337167e+00 -3.763674e+00 1.780913e+00 -2.983023e-04 -4.600675e-05 -1.046694e-04
N 6.380989e+00 -3.781461e+00 7.025670e+00 3.846224e-05 -4.253404e-05 -9.018121e-05
N 6.416356e+00 -3.760924e+00 -3.425445e+00 2.619706e-05 -3.322017e-05 -8.470176e-05
N 4.729849e+00 -9.952317e-01 1.790111e+00 -3.230541e-04 2.024220e-04 -7.676178e-05
N 4.784002e+00 -9.197325e-01 7.022729e+00 -6.784308e-05 1.438728e-06 2.856230e-05
N 4.776827e+00 -9.631420e-01 -3.373822e+00 -9.949640e-05 -3.528939e-05 -5.563243e-05
N -3.216906e+00 1.809679e+00 1.840149e+00 -3.105805e-04 -1.484755e-05 -5.954679e-05
N -3.260399e+00 1.781909e+00 7.021723e+00 -1.046055e-04 -1.799563e-05 8.734470e-06
N -3.230389e+00 1.804529e+00 -3.369713e+00 -6.478850e-05 4.265820e-05 -2.446472e-05
N -2.150067e-02 -3.683125e+00 1.840501e+00 -4.035350e-04 -1.492360e-05 -1.452436e-04
N -6.413533e-02 -3.699791e+00 7.043859e+00 -4.695717e-05 5.352381e-05 -1.189810e-05
N -7.217743e-02 -3.756298e+00 -3.362456e+00 -3.869287e-05 4.124671e-05 -7.137994e-05
N -1.574676e+00 -9.862744e-01 1.850755e+00 -4.506669e-04 -6.828689e-05 -1.516428e-04
N -1.574239e+00 -9.929638e-01 7.012501e+00 -7.309878e-05 -8.885971e-06 -1.796864e-05
N -1.624962e+00 -9.671064e-01 -3.430009e+00 -1.448177e-04 3.789946e-05 -9.293831e-05
