108
Energy=-8.944187e+05 Lattice="9.464710e+00 0.000000e+00 0.000000e+00 -4.738528e+00 8.193095e+00 0.000000e+00 3.829183e-03 -1.264546e-03 1.525596e+01" Stress="5.538194e-03 1.642625e-03 1.968732e-04 1.634686e-03 4.923487e-03 -5.712983e-04 1.925094e-04 -5.703419e-04 1.133310e-02" Properties=species:S:1:pos:R:3:forces:R:3 Config_type=AlGaN_super3_10_0_7.xyz
Al 1.569285e+00 8.771132e-01 2.398517e+00 -8.242398e-04 8.109794e-03 1.008628e-03
Al 1.565353e+00 8.640191e-01 7.480936e+00 1.211378e-03 4.819317e-03 3.845075e-03
Al 1.553100e+00 8.808655e-01 -2.691995e+00 -1.435835e-04 1.247577e-04 -4.328884e-05
Al -1.370115e-02 3.610999e+00 2.386184e+00 6.888086e-04 -1.422053e-03 -8.899502e-04
Al -2.572164e-02 3.604830e+00 7.475119e+00 1.096245e-03 2.783798e-03 2.208311e-03
Al -3.374628e-02 3.588073e+00 -2.702150e+00 3.525318e-04 -6.798387e-05 2.712571e-03
Al 3.168662e+00 -1.863593e+00 2.409450e+00 -2.821234e-03 4.725108e-04 -2.613027e-05
Al 3.150195e+00 -1.863762e+00 7.475919e+00 8.323370e-03 -4.421078e-03 5.529095e-03
Al 3.142361e+00 -1.866681e+00 -2.719390e+00 -4.357323e-04 7.295898e-04 9.558435e-04
Al -4.760275e+00 8.668801e-01 2.403999e+00 2.508261e-04 -2.226603e-04 -1.821030e-03
Al -4.764968e+00 8.707250e-01 7.470006e+00 1.283180e-03 -1.280491e-03 9.748889e-04
Al -4.767250e+00 8.750224e-01 -2.697187e+00 2.932722e-03 -1.687248e-03 1.132857e-03
Al -6.341956e+00 3.597268e+00 2.410725e+00 -3.074434e-03 -2.361750e-03 -2.392807e-03
Al -6.340114e+00 3.591020e+00 7.459212e+00 3.892800e-04 1.237700e-03 8.229931e-04
Al -6.328673e+00 3.588198e+00 -2.685916e+00 -4.875218e-04 1.452073e-03 2.275840e-03
Al -3.174555e+00 -1.858753e+00 2.403648e+00 -5.001193e-03 -2.379837e-03 -2.062668e-03
Al -3.183248e+00 -1.863824e+00 7.469531e+00 3.794984e-03 1.776283e-03 -8.382442e-04
Ga -3.188235e+00 -1.860807e+00 -2.683691e+00 1.456559e-03 7.069005e-04 2.563604e-03
Al -1.605866e+00 8.683668e-01 2.388301e+00 6.946694e-05 5.787220e-03 1.974506e-03
Ga -1.614973e+00 8.906241e-01 7.481129e+00 2.586540e-03 -3.005571e-03 1.458976e-03
Al -1.607149e+00 8.895467e-01 -2.703995e+00 3.639998e-04 -1.638801e-04 8.512662e-05
Ga -3.184318e+00 3.595659e+00 2.394642e+00 3.889904e-03 1.816254e-04 -2.339698e-04
Al -3.188520e+00 3.606415e+00 7.478759e+00 2.907492e-03 -2.797055e-04 1.603642e-03
Al -3.183615e+00 3.597959e+00 -2.708421e+00 1.944203e-03 2.386474e-04 2.480715e-03
Ga -5.439895e-02 -1.852888e+00 2.433427e+00 5.483896e-03 3.566552e-04 -3.089111e-03
Ga -2.006947e-02 -1.867208e+00 7.504261e+00 1.911289e-03 1.792856e-03 -9.753696e-05
Ga -2.099114e-02 -1.853338e+00 -2.708448e+00 1.754191e-03 5.571064e-04 7.627726e-04
Ga -1.482147e-02 1.785961e+00 4.932871e+00 -3.915595e-03 -1.031532e-03 -4.231896e-04
Al -3.641732e-02 1.770849e+00 -5.236665e+00 2.780879e-03 1.516391e-03 1.426022e-03
Al -3.243146e-02 1.782010e+00 -1.483323e-01 -1.834951e-04 1.670730e-03 -1.546325e-03
Al 3.141548e+00 -3.674231e+00 4.952148e+00 -6.633130e-04 -2.877127e-04 1.102231e-03
Al 3.131928e+00 -3.688430e+00 -5.250053e+00 -9.717473e-04 2.267635e-03 8.998632e-04
Al 3.152386e+00 -3.689753e+00 -1.581049e-01 -2.921420e-03 2.921611e-04 -7.963273e-03
Al 1.565773e+00 -9.595254e-01 4.925756e+00 4.452556e-03 3.332568e-03 1.354932e-02
Al 1.565754e+00 -9.513581e-01 -5.245310e+00 -4.279579e-03 -1.711959e-03 -9.913010e-05
Ga 1.584326e+00 -9.561171e-01 -1.243846e-01 -3.663198e-03 2.258684e-03 -2.239668e-03
Al 3.136868e+00 1.776670e+00 4.944612e+00 -2.651805e-04 8.293262e-04 1.297700e-03
Ga 3.132167e+00 1.776606e+00 -5.243408e+00 -1.055855e-03 5.160631e-04 1.937495e-03
Al 3.135552e+00 1.785559e+00 -1.532776e-01 -5.807052e-04 1.091493e-03 -7.269517e-04
Al 6.292340e+00 -3.672847e+00 4.942387e+00 -2.827826e-04 -9.214992e-04 7.896511e-04
Ga 6.287625e+00 -3.682047e+00 -5.249580e+00 2.532878e-04 -6.146533e-05 1.736428e-03
Al 6.290664e+00 -3.693331e+00 -1.403562e-01 8.334813e-04 7.817365e-04 -3.141625e-03
Al 4.721099e+00 -9.504588e-01 4.945291e+00 -1.009661e-03 1.113410e-03 1.394082e-04
Al 4.715062e+00 -9.474746e-01 -5.256110e+00 -2.509307e-03 -1.053156e-03 1.902958e-03
Al 4.721252e+00 -9.491847e-01 -1.403619e-01 -1.405270e-03 1.380147e-03 -8.338442e-04
Al -3.195099e+00 1.790263e+00 4.948982e+00 1.507526e-03 -2.757649e-03 -1.368568e-03
Al -3.184127e+00 1.786752e+00 -5.233628e+00 1.732274e-03 -1.402237e-03 1.361379e-04
Al -3.184675e+00 1.783125e+00 -1.593109e-01 -1.627445e-03 4.521119e-04 -3.665500e-03
Al -2.409977e-02 -3.684345e+00 4.956693e+00 -1.043859e-03 -1.937181e-03 2.827185e-03
Al -1.579660e-02 -3.687686e+00 -5.240673e+00 2.684871e-04 -4.674877e-04 3.141303e-03
Al -2.955634e-02 -3.687652e+00 -1.637340e-01 3.846412e-04 -7.557810e-04 1.676762e-03
Al -1.599901e+00 -9.649326e-01 4.924373e+00 -8.563954e-03 9.142182e-03 5.667096e-03
Al -1.603762e+00 -9.505180e-01 -5.246800e+00 -6.921062e-03 5.966184e-03 5.469985e-03
Al -1.607188e+00 -9.373752e-01 -1.469706e-01 -9.745584e-04 1.161785e-03 1.450504e-03
N 1.589710e+00 8.550557e-01 4.319265e+00 3.529959e-03 -3.672172e-03 -3.340223e-04
N 1.516898e+00 8.534088e-01 -5.858846e+00 -2.964417e-03 -1.215663e-03 -8.584990e-05
N 1.544586e+00 9.122564e-01 -7.688126e-01 2.476188e-03 5.329112e-04 3.390200e-04
N -2.354251e-02 3.645725e+00 4.315458e+00 -5.237072e-04 4.307305e-03 -4.143568e-03
N -6.022766e-02 3.577829e+00 -5.862721e+00 -3.003328e-03 -1.922305e-03 -1.402427e-03
N -2.432470e-02 3.595347e+00 -7.700792e-01 9.486422e-04 -2.943992e-04 1.814504e-03
N 3.144140e+00 -1.863799e+00 4.340755e+00 -1.772298e-04 -1.007722e-03 -9.669948e-04
N 3.138048e+00 -1.863752e+00 -5.855178e+00 4.707157e-04 -2.029182e-03 2.749082e-03
N 3.178319e+00 -1.883420e+00 -7.920639e-01 3.230017e-03 -9.557338e-04 1.448053e-03
N -4.760587e+00 8.744693e-01 4.339974e+00 1.063304e-03 -1.292089e-03 -2.961914e-03
N -4.727701e+00 8.527329e-01 -5.864752e+00 4.953407e-03 -9.327445e-04 -2.763975e-03
N -4.761405e+00 8.694800e-01 -7.691491e-01 7.694088e-04 -1.431361e-03 2.326480e-03
N -6.338648e+00 3.600432e+00 4.345261e+00 8.301999e-04 4.268491e-04 -2.442926e-03
N -6.294270e+00 3.625470e+00 -5.888445e+00 -9.775931e-04 -2.052775e-03 -2.545149e-03
N -6.334423e+00 3.601218e+00 -7.625996e-01 -7.844139e-04 -2.238588e-04 9.161657e-04
N -3.175051e+00 -1.864919e+00 4.335823e+00 -1.724474e-04 -4.777705e-05 -4.119323e-03
N -3.177885e+00 -1.824679e+00 -5.865236e+00 -4.327292e-04 3.541648e-03 -3.722745e-03
N -3.172714e+00 -1.860042e+00 -6.955392e-01 -4.522412e-04 -1.489711e-03 -1.116656e-03
N -1.646748e+00 8.564198e-01 4.317794e+00 -1.163963e-04 -1.411346e-03 -3.061737e-03
N -1.598630e+00 8.730993e-01 -5.807816e+00 -5.487377e-03 -9.044217e-05 4.081256e-03
N -1.612875e+00 8.819491e-01 -7.703964e-01 2.999236e-03 -2.376537e-03 1.192402e-03
N -3.183061e+00 3.611544e+00 4.379088e+00 1.482320e-03 6.042715e-04 2.169642e-04
N -3.187278e+00 3.604350e+00 -5.846717e+00 1.644619e-03 -5.594145e-04 -1.317773e-03
N -3.184462e+00 3.609298e+00 -7.696541e-01 1.457315e-03 -5.792359e-04 1.090022e-03
N -3.605775e-02 -1.853930e+00 4.425321e+00 8.008521e-03 -4.864851e-03 -7.461718e-03
N -7.021180e-02 -1.870872e+00 -5.768368e+00 1.834502e-02 1.711157e-03 -3.661260e-03
N -5.512066e-02 -1.870788e+00 -7.280163e-01 -8.646377e-04 -9.267403e-04 3.292333e-03
N -1.434276e-02 1.783584e+00 1.787342e+00 -2.765442e-03 -1.379128e-03 1.769116e-03
N 1.641890e-02 1.808968e+00 6.898148e+00 2.510826e-03 -2.947071e-03 -2.066489e-04
N -2.080717e-02 1.780375e+00 -3.309836e+00 -1.507329e-03 -4.944806e-04 6.733986e-04
N 3.176144e+00 -3.665628e+00 1.739538e+00 2.647499e-04 3.950693e-03 9.507719e-03
N 3.140307e+00 -3.684763e+00 6.877736e+00 -1.690418e-03 2.345338e-04 -1.494959e-03
N 3.138597e+00 -3.689689e+00 -3.319007e+00 -1.427999e-03 7.485208e-04 6.661280e-04
N 1.593290e+00 -9.141289e-01 1.867893e+00 2.848468e-03 -1.082774e-02 -5.117335e-03
N 1.636102e+00 -9.374198e-01 6.950388e+00 -1.440708e-02 1.836948e-03 -2.918492e-02
N 1.600009e+00 -9.192811e-01 -3.323110e+00 1.778463e-03 -9.638254e-04 8.145377e-05
N 3.136779e+00 1.785562e+00 1.781384e+00 5.144578e-04 -4.463684e-04 2.011257e-03
N 3.130059e+00 1.776826e+00 6.873565e+00 -4.624807e-04 -1.624991e-04 -2.910249e-03
N 3.131486e+00 1.784926e+00 -3.267133e+00 -8.765814e-04 -1.108260e-03 3.153705e-03
N 6.300722e+00 -3.678236e+00 1.779422e+00 -7.757277e-04 -1.012805e-03 5.526334e-03
N 6.288157e+00 -3.682028e+00 6.871708e+00 1.142259e-04 4.871973e-04 -1.623636e-03
N 6.292640e+00 -3.728952e+00 -3.276525e+00 -1.595391e-04 -1.589677e-03 2.070948e-03
N 4.723790e+00 -9.478362e-01 1.790069e+00 -3.902324e-03 1.554472e-04 2.590696e-03
N 4.720885e+00 -9.507592e-01 6.870333e+00 -8.445330e-04 4.121313e-04 -2.350930e-03
N 4.683954e+00 -9.325509e-01 -3.331303e+00 -3.990864e-03 3.076236e-03 -1.709962e-03
N -3.183335e+00 1.738952e+00 1.757808e+00 -2.831170e-04 -1.350332e-03 2.029939e-03
N -3.217464e+00 1.806121e+00 6.863577e+00 -4.128468e-03 2.179196e-03 -3.204182e-03
N -3.188953e+00 1.784294e+00 -3.307891e+00 -3.155395e-04 -1.131453e-04 8.609386e-04
N -6.233675e-02 -3.699936e+00 1.769082e+00 -9.645706e-04 1.518263e-03 -2.418821e-03
N -2.085949e-02 -3.717579e+00 6.870793e+00 -2.207491e-04 -3.191748e-03 -3.812604e-03
N -2.198937e-02 -3.719491e+00 -3.319606e+00 -4.409638e-04 -4.192053e-03 -5.882473e-04
N -1.653462e+00 -9.206480e-01 1.785725e+00 4.872503e-03 -4.316767e-04 -2.206597e-03
N -1.612455e+00 -9.567554e-01 6.827262e+00 -8.140419e-03 -3.707053e-03 3.732799e-03
N -1.608422e+00 -9.042596e-01 -3.336123e+00 -1.129970e-03 2.351095e-03 7.537401e-04
