108
Energy=-9.401945e+05 Lattice="9.455443e+00 0.000000e+00 0.000000e+00 -4.730450e+00 8.185551e+00 0.000000e+00 -1.157001e-03 6.811767e-04 1.522188e+01" Stress="4.503106e-04 -1.274353e-04 3.653941e-05 -1.354847e-04 -2.633811e-04 1.248669e-04 3.498829e-05 1.165554e-04 1.207527e-03" Properties=species:S:1:pos:R:3:forces:R:3 Config_type=AlGaN_super3_11_1_53.xyz
Al 1.550896e+00 8.738984e-01 2.397436e+00 -9.757995e-05 -4.287283e-05 5.603921e-05
Al 1.550244e+00 8.767043e-01 7.447924e+00 1.359637e-05 1.481806e-04 -1.452365e-04
Al 1.542888e+00 8.672159e-01 -2.684574e+00 5.716703e-05 -1.132112e-07 -1.531892e-04
Al -1.158301e-02 3.594634e+00 2.376823e+00 1.663289e-04 -4.263394e-05 7.355953e-05
Al -1.054672e-02 3.587659e+00 7.448079e+00 -6.413741e-05 -1.857481e-06 -9.083207e-05
Al -2.431558e-02 3.582578e+00 -2.658884e+00 2.990466e-05 2.244337e-05 2.916334e-06
Al 3.141046e+00 -1.845452e+00 2.374408e+00 2.994551e-05 1.724911e-04 -1.497815e-04
Al 3.142944e+00 -1.835791e+00 7.464469e+00 5.412384e-05 -1.145181e-04 -8.604931e-05
Al 3.125394e+00 -1.847374e+00 -2.673081e+00 -3.861486e-05 -7.081054e-05 1.305177e-05
Al -4.749042e+00 8.606187e-01 2.400609e+00 5.999609e-05 1.291700e-05 6.104681e-05
Al -4.751587e+00 8.591929e-01 7.443492e+00 -2.966565e-04 -8.581222e-05 8.670997e-05
Al -4.746304e+00 8.691372e-01 -2.683270e+00 1.081145e-04 -1.642545e-04 1.405088e-04
Al -6.348576e+00 3.592271e+00 2.412877e+00 -1.029483e-04 3.493872e-04 1.722674e-04
Al -6.338659e+00 3.592830e+00 7.440076e+00 1.085917e-04 -1.225120e-05 -9.459098e-06
Al -6.325984e+00 3.593818e+00 -2.677826e+00 1.171808e-04 1.195155e-04 -1.589982e-04
Al -3.181783e+00 -1.858235e+00 2.382685e+00 1.251593e-04 -1.235736e-05 -5.902124e-05
Al -3.186921e+00 -1.852110e+00 7.446376e+00 9.124014e-05 7.972579e-06 -5.852786e-05
Ga -3.176356e+00 -1.851364e+00 -2.667914e+00 -1.748582e-05 2.424615e-05 -4.762586e-06
Al -1.598823e+00 8.718729e-01 2.385473e+00 3.914919e-05 -1.729182e-04 -1.682582e-05
Al -1.599674e+00 8.728203e-01 7.460560e+00 3.052821e-04 -8.454063e-05 1.079414e-04
Al -1.592524e+00 8.780918e-01 -2.685278e+00 -2.574448e-05 -1.426348e-04 -5.414954e-05
Ga -3.165076e+00 3.583526e+00 2.390501e+00 -1.613211e-05 -1.397692e-05 -5.060399e-05
Ga -3.183558e+00 3.584130e+00 7.471913e+00 3.504523e-05 1.887484e-05 5.808422e-05
Al -3.175133e+00 3.589284e+00 -2.685342e+00 -5.975703e-05 5.394456e-05 1.838614e-04
Ga -2.292732e-02 -1.838239e+00 2.404777e+00 -8.667326e-05 6.047285e-05 1.232768e-04
Ga -2.567633e-02 -1.849715e+00 7.464096e+00 -5.556726e-05 -3.810889e-05 -9.027003e-05
Al -1.449319e-02 -1.848888e+00 -2.696929e+00 4.644237e-06 -5.025867e-05 -4.006120e-05
Al -2.283322e-02 1.770425e+00 4.915082e+00 1.520825e-05 -7.627675e-05 1.356808e-05
Al -3.235660e-02 1.764382e+00 -5.221958e+00 7.165217e-05 -1.081890e-05 1.522472e-05
Al -3.243639e-02 1.775561e+00 -1.451006e-01 4.540021e-05 -3.090060e-05 -1.200950e-04
Ga 3.140426e+00 -3.668113e+00 4.930267e+00 7.101881e-05 1.019876e-05 4.827813e-05
Ga 3.132866e+00 -3.671762e+00 -5.207109e+00 7.595796e-05 3.131326e-05 4.336209e-05
Al 3.143590e+00 -3.674149e+00 -1.618355e-01 2.472598e-05 9.450921e-05 -7.557236e-06
Al 1.560844e+00 -9.351547e-01 4.927318e+00 -3.473388e-04 -2.920739e-05 -1.156598e-04
Al 1.553166e+00 -9.444722e-01 -5.213441e+00 -1.449210e-04 2.523431e-04 1.048846e-04
Al 1.555587e+00 -9.435837e-01 -1.592936e-01 3.200049e-05 -5.797032e-05 -4.511725e-05
Al 3.126818e+00 1.777396e+00 4.919252e+00 -4.364556e-05 2.558114e-05 9.997542e-06
Ga 3.134282e+00 1.769678e+00 -5.224160e+00 3.678536e-05 -3.061271e-06 -4.701205e-05
Ga 3.125047e+00 1.769277e+00 -1.400180e-01 6.004377e-05 -7.539156e-05 -1.280986e-04
Al 6.287346e+00 -3.674110e+00 4.920963e+00 -5.823785e-05 -4.821020e-05 -1.051481e-04
Ga 6.285507e+00 -3.673181e+00 -5.230901e+00 3.763208e-05 1.826139e-05 1.375998e-05
Al 6.271686e+00 -3.676920e+00 -1.310212e-01 -1.591034e-04 6.454903e-05 -1.753306e-06
Al 4.708031e+00 -9.432394e-01 4.914755e+00 1.802595e-04 5.523788e-05 5.040150e-05
Al 4.706983e+00 -9.376123e-01 -5.231719e+00 2.312003e-04 -1.032212e-04 1.430580e-05
Al 4.705855e+00 -9.508372e-01 -1.305094e-01 -1.616730e-04 1.895937e-04 -9.913528e-05
Al -3.175633e+00 1.759282e+00 4.927227e+00 1.395782e-05 -2.255535e-04 -2.228260e-04
Al -3.169483e+00 1.761070e+00 -5.213834e+00 -1.370459e-04 -1.316512e-04 4.186100e-05
Al -3.160400e+00 1.763902e+00 -1.575117e-01 -1.871701e-04 -2.037985e-04 -4.628747e-05
Al -3.803264e-02 -3.679937e+00 4.922938e+00 -1.178589e-04 1.428606e-04 -2.037520e-04
Al -2.460666e-02 -3.672691e+00 -5.196117e+00 -2.202091e-05 -2.150178e-04 2.460420e-04
Ga -2.133446e-02 -3.668474e+00 -1.591445e-01 3.148195e-05 1.428876e-05 -1.022725e-04
Al -1.610320e+00 -9.387490e-01 4.924730e+00 2.581780e-04 -2.062880e-04 -1.967053e-04
Al -1.597524e+00 -9.348917e-01 -5.226940e+00 -1.154674e-04 2.641153e-05 6.631870e-05
Al -1.598768e+00 -9.336098e-01 -1.456659e-01 -2.217871e-04 7.317031e-05 3.582324e-05
N 1.549299e+00 8.704770e-01 4.317129e+00 4.933500e-05 -4.323238e-05 -2.284144e-05
N 1.509669e+00 8.467980e-01 -5.852661e+00 -5.509791e-05 -7.244004e-05 2.824864e-04
N 1.507618e+00 8.497603e-01 -7.733308e-01 -1.529158e-04 8.492397e-05 2.543239e-04
N 1.834164e-02 3.572873e+00 4.294797e+00 6.937001e-05 2.678819e-04 -4.418466e-05
N -2.337297e-02 3.545566e+00 -5.867489e+00 8.464689e-06 6.090933e-05 3.027437e-05
N -1.875099e-02 3.591821e+00 -7.401842e-01 -1.350401e-05 -1.755542e-05 5.193738e-05
N 3.128969e+00 -1.807442e+00 4.287605e+00 -1.129073e-04 -1.486067e-04 -1.357529e-04
N 3.129448e+00 -1.805618e+00 -5.843191e+00 3.668567e-05 -1.460718e-04 -6.150884e-05
N 3.133459e+00 -1.850449e+00 -7.518150e-01 -1.055191e-04 -4.088640e-05 1.500471e-05
N -4.749997e+00 8.698302e-01 4.319906e+00 6.383000e-05 -1.924206e-05 1.413400e-05
N -4.707536e+00 8.482788e-01 -5.860663e+00 1.984442e-04 9.984358e-05 1.404979e-04
N -4.708442e+00 8.411494e-01 -7.704829e-01 6.052743e-05 2.228881e-04 1.533718e-04
N -6.335224e+00 3.597643e+00 4.326097e+00 1.669169e-05 -2.944751e-05 4.849724e-05
N -6.282218e+00 3.620785e+00 -5.871188e+00 -1.045582e-04 -2.065851e-06 -1.562560e-04
N -6.372838e+00 3.620313e+00 -7.805319e-01 1.442771e-04 -4.317940e-05 6.801459e-05
N -3.175601e+00 -1.858159e+00 4.310396e+00 3.254331e-05 -2.359577e-05 6.685282e-05
N -3.174409e+00 -1.808692e+00 -5.853855e+00 -7.882088e-05 8.847344e-05 1.403100e-04
N -3.175312e+00 -1.856823e+00 -6.884937e-01 2.669808e-04 -5.951446e-05 -1.571090e-04
N -1.598939e+00 8.723368e-01 4.305375e+00 4.341557e-05 -9.595579e-05 3.149569e-05
N -1.598441e+00 8.729124e-01 -5.836657e+00 -1.856050e-05 3.607545e-05 -4.980118e-06
N -1.594329e+00 8.708576e-01 -7.651146e-01 -2.602516e-05 7.885727e-06 1.149172e-05
N -3.211918e+00 3.571057e+00 4.361510e+00 2.649748e-05 1.692930e-04 -3.397586e-05
N -3.219326e+00 3.572031e+00 -5.773812e+00 8.982924e-05 -3.016959e-05 -1.074023e-04
N -3.133596e+00 3.570494e+00 -7.661308e-01 -1.380377e-04 -5.462768e-05 -3.527868e-04
N -2.168708e-02 -1.849840e+00 4.382353e+00 -5.070602e-05 1.856031e-04 1.288847e-04
N -2.058738e-02 -1.859419e+00 -5.770808e+00 7.320228e-05 4.304333e-05 -2.301946e-04
N -2.407386e-02 -1.803838e+00 -7.781103e-01 2.091332e-04 -1.163014e-04 -2.095236e-04
N -2.332069e-02 1.775381e+00 1.779205e+00 7.525525e-06 2.652741e-05 2.051778e-06
N -2.776739e-02 1.775096e+00 6.837404e+00 1.053436e-05 3.826574e-05 3.964722e-05
N -2.400388e-02 1.781531e+00 -3.296953e+00 -1.272482e-06 8.262805e-07 -4.187380e-05
N 3.174723e+00 -3.652318e+00 1.761254e+00 -1.213653e-04 -2.942012e-06 8.070363e-05
N 3.170749e+00 -3.649141e+00 6.903111e+00 3.141735e-05 1.633139e-04 -7.393716e-06
N 3.138184e+00 -3.674356e+00 -3.223424e+00 9.495572e-05 1.193984e-04 -2.740375e-05
N 1.594042e+00 -9.211677e-01 1.756487e+00 5.915152e-05 6.293302e-05 1.588941e-04
N 1.597117e+00 -9.235156e-01 6.837237e+00 6.640490e-05 -1.804627e-04 1.228091e-04
N 1.560466e+00 -9.464349e-01 -3.293349e+00 -1.764336e-05 6.936480e-05 3.001892e-05
N 3.130135e+00 1.778942e+00 1.843852e+00 -1.877584e-05 -2.997148e-04 -6.554084e-05
N 3.127035e+00 1.776191e+00 6.848249e+00 4.310643e-05 -8.687370e-06 -1.307197e-05
N 3.128926e+00 1.775853e+00 -3.239397e+00 -7.501863e-05 -8.990986e-05 -1.108128e-04
N 6.285504e+00 -3.679018e+00 1.787446e+00 -5.483454e-05 -1.307413e-05 1.927668e-04
N 6.279325e+00 -3.673542e+00 6.846207e+00 3.183712e-05 1.940862e-05 1.117089e-05
N 6.278177e+00 -3.723609e+00 -3.260108e+00 -2.065029e-04 4.966578e-05 -3.493673e-05
N 4.706361e+00 -9.441639e-01 1.785108e+00 -4.468596e-05 3.110342e-05 1.394620e-04
N 4.703413e+00 -9.497397e-01 6.834924e+00 2.310308e-05 -4.378813e-05 4.272480e-06
N 4.664673e+00 -9.264201e-01 -3.315364e+00 2.019729e-05 3.488703e-05 -2.401492e-04
N -3.176198e+00 1.726204e+00 1.757354e+00 4.539644e-05 1.215941e-05 -1.139380e-05
N -3.173115e+00 1.726511e+00 6.835245e+00 1.966127e-06 2.140673e-04 5.603912e-07
N -3.173225e+00 1.771748e+00 -3.292015e+00 -5.974339e-06 -4.441873e-06 1.228474e-05
N -6.521458e-02 -3.698088e+00 1.806215e+00 7.208011e-05 -6.035471e-05 5.456531e-05
N -6.271361e-02 -3.698329e+00 6.819912e+00 -7.682078e-05 -5.197349e-05 2.703626e-04
N -2.356292e-02 -3.678404e+00 -3.273917e+00 1.361866e-05 9.624019e-06 1.035159e-04
N -1.636490e+00 -9.227422e-01 1.768233e+00 -1.544753e-04 1.011001e-04 1.521611e-04
N -1.642524e+00 -9.205912e-01 6.838514e+00 -1.884714e-04 -1.297251e-04 1.350096e-05
N -1.562877e+00 -9.212072e-01 -3.311119e+00 -4.143443e-05 8.702255e-05 6.886489e-05
