108
Energy=-2.450785e+06 Lattice="9.623321e+00 0.000000e+00 0.000000e+00 -4.828794e+00 8.327703e+00 0.000000e+00 3.001845e-01 2.255343e-01 1.553958e+01" Stress="-1.344708e-02 2.602655e-03 1.157518e-02 2.582312e-03 -1.324108e-02 8.604680e-03 1.160152e-02 8.626005e-03 -1.420952e-02" Properties=species:S:1:pos:R:3:forces:R:3 Config_type=AlGaN_super3_44_1_4.xyz
Al 1.692589e+00 9.788043e-01 2.461671e+00 -3.168898e-03 -6.440017e-03 -1.262224e-03
Al 1.736032e+00 1.011045e+00 7.614808e+00 2.140616e-07 -4.790248e-03 1.203717e-03
Ga 1.477019e+00 8.195560e-01 -2.737893e+00 6.231448e-05 -6.092383e-03 3.474232e-04
Al 8.194085e-02 3.737964e+00 2.465006e+00 -4.416256e-03 -1.725634e-03 -2.803676e-03
Ga 1.348262e-01 3.779799e+00 7.616795e+00 -6.153192e-04 -1.296910e-03 1.474284e-03
Ga -1.217506e-01 3.591192e+00 -2.737609e+00 -1.954340e-03 -3.927086e-04 4.178645e-03
Al 3.310575e+00 -1.824401e+00 2.464851e+00 -3.993271e-03 -2.696410e-03 -2.760910e-03
Ga 3.365554e+00 -1.782919e+00 7.617183e+00 -1.334426e-03 4.978390e-04 1.409446e-03
Ga 3.108809e+00 -1.973268e+00 -2.736084e+00 -1.198916e-03 -8.287225e-04 4.054712e-03
Ga -4.755619e+00 9.634661e-01 2.442239e+00 -2.781014e-04 -8.338212e-03 -4.169262e-04
Ga -4.694291e+00 1.010934e+00 7.616384e+00 7.799933e-05 -5.723215e-03 -1.871367e-04
Ga -4.942941e+00 8.256530e-01 -2.728459e+00 -1.771691e-04 -5.701285e-03 1.364376e-03
Ga -6.349628e+00 3.739282e+00 2.436605e+00 -1.532689e-03 9.624395e-04 2.903946e-03
Ga -6.297901e+00 3.781243e+00 7.615607e+00 -4.651445e-04 -5.138081e-04 1.043263e-03
Ga -6.552132e+00 3.591574e+00 -2.741792e+00 2.796752e-05 -2.343166e-04 7.304722e-04
Ga -3.134757e+00 -1.833966e+00 2.413121e+00 -4.990209e-04 4.407408e-04 5.383388e-03
Al -3.065272e+00 -1.778994e+00 7.613367e+00 -3.896285e-04 2.373623e-04 2.214834e-03
Ga -3.322415e+00 -1.968812e+00 -2.740930e+00 -6.081644e-05 4.921953e-04 9.842028e-04
Ga -1.548867e+00 9.891624e-01 2.435417e+00 4.642181e-03 -3.932865e-03 9.732144e-04
Ga -1.496226e+00 1.014052e+00 7.616401e+00 6.147001e-03 -3.523489e-03 -1.329824e-03
Ga -1.753504e+00 8.330832e-01 -2.739206e+00 6.779507e-03 -4.190211e-03 -1.579576e-03
Al -3.142723e+00 3.739782e+00 2.433223e+00 3.989539e-03 -3.553541e-04 3.010324e-03
Ga -3.092294e+00 3.786804e+00 7.621113e+00 4.084312e-03 1.478778e-03 1.278807e-03
Ga -3.347961e+00 3.594109e+00 -2.745469e+00 5.724243e-03 3.343383e-03 -5.723829e-05
Ga 9.769008e-02 -1.809617e+00 2.453107e+00 3.130941e-03 1.966583e-03 -8.019337e-04
Ga 1.263866e-01 -1.770967e+00 7.615170e+00 5.361440e-03 2.598307e-03 -2.806978e-04
Ga -1.250181e-01 -1.965057e+00 -2.742452e+00 5.423166e-03 2.890612e-03 -4.358193e-04
Ga 1.223275e-01 1.913220e+00 5.024795e+00 -7.032967e-03 -3.686660e-03 8.431126e-04
Ga -1.396266e-01 1.727494e+00 -5.338067e+00 -5.023152e-03 -3.319703e-03 2.550599e-04
Ga -9.043845e-02 1.764476e+00 -1.422284e-01 7.618563e-04 3.146498e-03 8.712455e-03
Ga 3.343090e+00 -3.647119e+00 5.010271e+00 -7.112166e-03 -3.717802e-03 8.065475e-04
Al 3.087552e+00 -3.835825e+00 -5.329868e+00 -4.559787e-03 -1.857454e-03 1.499926e-03
Ga 3.144863e+00 -3.794044e+00 -1.308081e-01 9.147168e-04 2.521004e-03 8.012947e-03
Ga 1.749138e+00 -8.730218e-01 5.030806e+00 -7.130992e-03 2.507040e-03 -3.843598e-04
Ga 1.491948e+00 -1.073923e+00 -5.335123e+00 -6.399453e-03 3.964028e-03 -1.061971e-03
Ga 1.537369e+00 -1.034499e+00 -1.349217e-01 9.712303e-04 5.877035e-03 7.281471e-03
Ga 3.305360e+00 1.913564e+00 5.030017e+00 -5.903564e-04 -7.982411e-04 2.036833e-03
Ga 3.051543e+00 1.723561e+00 -5.337214e+00 -8.621646e-04 -1.423664e-03 2.095420e-03
Ga 3.102216e+00 1.761790e+00 -1.506072e-01 5.414271e-03 9.830273e-04 8.787973e-03
Ga 6.535534e+00 -3.639422e+00 5.027224e+00 -5.753521e-04 -1.392571e-03 3.100496e-03
Ga 6.274477e+00 -3.829250e+00 -5.340729e+00 -1.464924e-04 -8.237465e-04 1.753549e-03
Al 6.346292e+00 -3.774754e+00 -1.643415e-01 -1.891204e-03 -2.010199e-03 1.146567e-02
Ga 4.940262e+00 -8.835033e-01 5.028959e+00 -1.589873e-03 4.912199e-03 1.868858e-03
Ga 4.681549e+00 -1.075472e+00 -5.337096e+00 -1.153568e-03 5.507190e-03 9.485005e-04
Al 4.757204e+00 -1.010738e+00 -1.576173e-01 -4.129868e-03 4.217644e-03 9.396233e-03
Ga -3.118651e+00 1.922128e+00 5.017372e+00 -1.359219e-04 -3.045668e-04 2.628847e-03
Ga -3.368932e+00 1.735229e+00 -5.334847e+00 -8.833507e-04 -8.995845e-04 1.258493e-03
Al -3.297873e+00 1.788757e+00 -1.709169e-01 -1.861947e-03 -1.776585e-03 1.222577e-02
Ga 1.146487e-01 -3.642516e+00 5.020694e+00 2.729999e-04 -1.214255e-03 1.919181e-03
Ga -1.374870e-01 -3.829362e+00 -5.331997e+00 -3.863476e-04 -1.100546e-03 9.993063e-04
Ga -9.952655e-02 -3.803721e+00 -1.644763e-01 6.884529e-03 4.322527e-03 1.069831e-02
Ga -1.495982e+00 -8.776324e-01 5.028596e+00 -1.391300e-03 5.558580e-03 3.445770e-04
Ga -1.748552e+00 -1.065964e+00 -5.337555e+00 -1.537961e-03 5.187452e-03 5.022473e-04
Ga -1.709879e+00 -1.025652e+00 -1.672604e-01 6.955885e-03 1.011032e-02 7.656040e-03
N 1.709378e+00 9.915411e-01 4.384434e+00 7.875006e-04 -5.534699e-03 -8.257087e-03
N 1.451453e+00 7.996368e-01 -5.985088e+00 7.578900e-04 -5.415731e-03 -9.189419e-03
N 1.497133e+00 8.327240e-01 -7.719053e-01 1.854817e-03 -4.100434e-03 -1.616989e-04
N 1.110014e-01 3.754874e+00 4.390951e+00 -1.615473e-05 5.296510e-04 -9.960940e-03
N -1.740855e-01 3.580822e+00 -5.946355e+00 -7.493655e-03 4.593783e-03 1.210839e-03
N -7.406246e-02 3.622056e+00 -7.507227e-01 8.981924e-03 5.695236e-03 -2.692136e-03
N 3.336536e+00 -1.801653e+00 4.391506e+00 -4.164882e-04 9.928015e-04 -1.012490e-02
N 3.079947e+00 -2.023729e+00 -5.945561e+00 -1.166149e-04 -7.567429e-03 1.026738e-03
N 3.154136e+00 -1.939282e+00 -7.483966e-01 9.379304e-03 6.060202e-03 -2.324091e-03
N -4.721648e+00 9.878079e-01 4.412283e+00 6.694583e-04 -5.555199e-03 -7.390686e-04
N -4.974065e+00 8.026977e-01 -5.954080e+00 1.628947e-03 -5.363052e-03 -1.336937e-04
N -4.892705e+00 8.365999e-01 -7.447616e-01 9.825904e-03 -6.239234e-03 2.940944e-03
N -6.321993e+00 3.758969e+00 4.410181e+00 -3.816268e-05 4.538343e-04 -1.513463e-03
N -6.574377e+00 3.569260e+00 -5.953428e+00 4.602292e-04 1.175080e-03 -1.116585e-03
N -6.549457e+00 3.618484e+00 -7.708903e-01 -6.367181e-03 5.302506e-03 2.503975e-03
N -3.095485e+00 -1.804987e+00 4.392513e+00 6.068885e-04 1.493857e-03 -2.581901e-03
N -3.348437e+00 -1.991177e+00 -5.985313e+00 7.763279e-04 1.439805e-03 -1.144871e-02
N -3.316384e+00 -1.958832e+00 -7.685364e-01 -6.936305e-03 -3.253956e-03 5.919946e-03
N -1.527359e+00 9.942779e-01 4.405848e+00 7.249730e-03 -3.274863e-03 1.771622e-03
N -1.780911e+00 8.055500e-01 -5.955897e+00 7.059711e-03 -2.987562e-03 9.292736e-04
N -1.748543e+00 8.644289e-01 -7.729325e-01 1.094198e-03 6.240095e-04 5.394887e-03
N -3.128671e+00 3.757597e+00 4.370798e+00 5.898620e-03 2.936354e-03 -8.964532e-03
N -3.352895e+00 3.588062e+00 -5.942759e+00 1.228873e-02 6.504839e-03 2.297038e-03
N -3.323490e+00 3.590593e+00 -7.773388e-01 6.709390e-03 -3.182385e-03 4.271314e-03
N 1.030450e-01 -1.795501e+00 4.415361e+00 5.769492e-03 3.355480e-03 1.116901e-03
N -1.535240e-01 -1.988045e+00 -5.955508e+00 6.016990e-03 3.396959e-03 -4.005582e-04
N -1.067338e-01 -1.953116e+00 -7.780849e-01 7.014670e-03 4.276814e-03 9.353725e-04
N 1.175126e-01 1.912997e+00 1.864085e+00 -4.181440e-03 -4.732623e-03 -3.539750e-03
N 1.613256e-01 1.917111e+00 7.001733e+00 1.816843e-03 -6.407345e-03 2.763823e-03
N -1.194679e-01 1.740335e+00 -3.363510e+00 -4.550630e-03 -2.021823e-03 -1.246712e-03
N 3.314663e+00 -3.669719e+00 1.883827e+00 -1.081231e-02 -6.678467e-03 -8.136905e-04
N 3.361840e+00 -3.631255e+00 6.982879e+00 -4.494135e-03 -1.729328e-03 -9.924412e-04
N 3.108966e+00 -3.819543e+00 -3.385465e+00 -4.574553e-03 -1.648334e-03 -1.066471e-02
N 1.749200e+00 -8.783458e-01 1.870279e+00 -6.098840e-03 2.811201e-03 -3.193489e-03
N 1.766744e+00 -8.328364e-01 7.004381e+00 -6.055982e-03 1.003762e-02 3.897802e-03
N 1.508055e+00 -1.054851e+00 -3.363880e+00 -5.299439e-03 3.780122e-03 -1.285771e-05
N 3.256486e+00 1.879958e+00 1.846195e+00 -1.104719e-02 -6.751762e-03 -6.890554e-03
N 3.304842e+00 1.918512e+00 7.004849e+00 -6.136078e-03 -4.151183e-03 1.342998e-03
N 3.073101e+00 1.739941e+00 -3.359200e+00 1.718514e-03 -1.574270e-04 -1.952098e-03
N 6.460699e+00 -3.699863e+00 1.815207e+00 -3.322610e-03 -2.891948e-03 -1.685989e-02
N 6.555005e+00 -3.599399e+00 7.004755e+00 5.721702e-04 8.342089e-03 1.334283e-03
N 6.298923e+00 -3.814810e+00 -3.366670e+00 1.373589e-03 2.896645e-04 -2.156524e-03
N 4.856391e+00 -9.359164e-01 1.815287e+00 -4.334517e-03 3.460586e-03 -1.454551e-02
N 4.980856e+00 -8.781925e-01 7.004717e+00 6.685229e-03 2.022898e-03 2.477004e-03
N 4.702792e+00 -1.051933e+00 -3.361777e+00 -2.128902e-04 6.887024e-03 -1.046027e-03
N -3.170157e+00 1.903394e+00 1.810436e+00 2.234658e-03 9.242638e-03 -1.636777e-02
N -3.096564e+00 1.938929e+00 6.992731e+00 7.045871e-04 -3.018741e-04 -1.909249e-03
N -3.351802e+00 1.746163e+00 -3.364099e+00 3.816717e-04 -2.393118e-04 -2.201696e-03
N 1.110175e-01 -3.670065e+00 1.840030e+00 9.555999e-04 -8.766366e-03 -7.600838e-03
N 1.339926e-01 -3.625676e+00 6.994267e+00 7.103941e-04 3.827165e-04 -1.638986e-03
N -1.249220e-01 -3.814894e+00 -3.361550e+00 8.692044e-04 -2.270295e-04 -1.373988e-03
N -1.513697e+00 -8.992916e-01 1.818839e+00 -6.621789e-03 2.062586e-03 -6.215947e-03
N -1.495682e+00 -8.737311e-01 7.002295e+00 -7.064258e-03 1.912516e-03 2.498323e-03
N -1.727945e+00 -1.048364e+00 -3.364482e+00 1.899598e-04 6.495076e-03 -9.215547e-05
