108
Energy=-1.352174e+06 Lattice="9.503692e+00 0.000000e+00 0.000000e+00 -4.757849e+00 8.230950e+00 0.000000e+00 1.272130e-02 2.435317e-02 1.533152e+01" Stress="-6.411211e-04 -2.758575e-04 4.078535e-04 -2.740721e-04 -9.364593e-04 9.492531e-04 4.102428e-04 9.562383e-04 -2.049050e-04" Properties=species:S:1:pos:R:3:forces:R:3 Config_type=AlGaN_super3_20_0_14.xyz
Al 1.567347e+00 8.745961e-01 2.395653e+00 -1.358696e-04 7.701760e-04 -4.935833e-05
Al 1.573204e+00 8.918156e-01 7.475492e+00 3.148561e-03 -5.110962e-04 4.364476e-03
Al 1.559576e+00 8.736605e-01 -2.670536e+00 2.056738e-04 1.565550e-04 1.678339e-05
Al -1.165550e-02 3.623400e+00 2.391071e+00 -2.237995e-03 8.930221e-04 -3.666603e-04
Al -1.274300e-02 3.633648e+00 7.508714e+00 2.808578e-04 2.180522e-03 2.273300e-03
Al -3.181047e-02 3.607228e+00 -2.687337e+00 1.400375e-04 1.259650e-04 8.111655e-04
Al 3.147250e+00 -1.850892e+00 2.392929e+00 1.929690e-03 1.330765e-03 -1.713145e-03
Al 3.156716e+00 -1.855047e+00 7.512686e+00 1.416134e-03 3.856729e-05 1.411137e-03
Ga 3.146107e+00 -1.879149e+00 -2.691319e+00 -3.542451e-04 -3.063109e-05 1.361268e-03
Al -4.787239e+00 8.713163e-01 2.390605e+00 1.727330e-05 1.056099e-03 -2.424254e-04
Al -4.790221e+00 8.829245e-01 7.497947e+00 -6.573377e-05 3.053331e-04 6.488248e-04
Al -4.780388e+00 8.746731e-01 -2.675716e+00 -2.475182e-04 3.528690e-04 -6.576073e-05
Ga -6.378646e+00 3.608522e+00 2.406369e+00 3.967934e-04 3.633791e-04 -4.057404e-04
Al -6.368248e+00 3.616692e+00 7.493445e+00 -5.577946e-05 -2.017457e-04 4.014190e-04
Al -6.376120e+00 3.597146e+00 -2.678305e+00 -3.429941e-05 2.868333e-04 2.127298e-04
Ga -3.211997e+00 -1.869305e+00 2.405166e+00 1.114383e-04 1.953933e-04 -5.392234e-05
Al -3.196442e+00 -1.863707e+00 7.498811e+00 -9.977832e-04 -7.050775e-04 1.412306e-03
Al -3.196467e+00 -1.874267e+00 -2.686543e+00 8.090293e-04 -2.987646e-04 1.761042e-04
Ga -1.593436e+00 9.012984e-01 2.395864e+00 -4.024025e-04 9.755954e-05 -7.210290e-04
Ga -1.597062e+00 8.987185e-01 7.522889e+00 -4.289640e-05 -1.627781e-04 5.343160e-04
Al -1.616682e+00 8.749892e-01 -2.688090e+00 9.399672e-04 -3.237203e-04 -1.801517e-04
Ga -3.179884e+00 3.628140e+00 2.385593e+00 1.163311e-04 -6.738018e-04 -7.451170e-04
Al -3.181530e+00 3.633885e+00 7.530558e+00 1.188065e-04 2.572748e-05 4.417158e-04
Al -3.183188e+00 3.598159e+00 -2.684741e+00 2.633969e-04 7.218879e-04 1.780250e-04
Al 6.298906e-03 -1.848803e+00 2.412103e+00 -1.840099e-04 -4.107029e-04 -6.210581e-04
Ga 1.162953e-05 -1.852747e+00 7.539205e+00 1.352401e-04 -1.207338e-04 4.683404e-04
Ga -2.575630e-02 -1.862085e+00 -2.712207e+00 3.619257e-04 1.439891e-04 -3.529296e-04
Al 1.241900e-02 1.810825e+00 4.954883e+00 -1.761131e-04 1.249110e-04 -3.169595e-04
Ga -1.878718e-02 1.771357e+00 -5.236850e+00 5.989852e-05 -6.615802e-05 -6.553689e-05
Al -1.400031e-02 1.799463e+00 -1.579572e-01 2.521917e-04 2.704770e-04 -2.484172e-03
Ga 3.178032e+00 -3.674572e+00 4.963648e+00 -2.922179e-04 -3.946931e-04 3.419903e-04
Al 3.141036e+00 -3.706609e+00 -5.266022e+00 1.709565e-04 3.834884e-04 3.828535e-04
Al 3.164693e+00 -3.700097e+00 -1.447495e-01 1.077737e-04 -1.689760e-05 2.666557e-04
Al 1.582441e+00 -9.279525e-01 4.944636e+00 1.472715e-03 7.971979e-04 3.885265e-04
Al 1.565599e+00 -9.606345e-01 -5.265246e+00 -3.503115e-05 8.738235e-04 -3.116518e-05
Al 1.576764e+00 -9.425116e-01 -1.233344e-01 -2.348702e-04 7.177671e-05 4.216609e-04
Al 3.134372e+00 1.784447e+00 4.954602e+00 3.751749e-04 -7.992086e-04 6.036553e-04
Ga 3.126296e+00 1.766692e+00 -5.251557e+00 -2.203573e-04 -2.754246e-04 5.753257e-04
Al 3.137627e+00 1.771417e+00 -1.520673e-01 4.000822e-04 3.602642e-04 -7.477439e-04
Al 6.306841e+00 -3.698062e+00 4.977143e+00 1.926557e-04 -1.160489e-05 6.023111e-04
Ga 6.304398e+00 -3.701389e+00 -5.252845e+00 3.406623e-04 -3.494047e-04 2.515933e-04
Al 6.294725e+00 -3.708764e+00 -1.717933e-01 2.464198e-04 -2.376001e-04 4.626765e-04
Al 4.715364e+00 -9.428423e-01 4.965329e+00 3.702786e-04 6.599888e-04 1.798105e-04
Ga 4.725025e+00 -9.713617e-01 -5.261945e+00 -4.446462e-04 3.031839e-04 2.975643e-04
Al 4.722074e+00 -9.485490e-01 -1.546952e-01 -3.916286e-04 5.138130e-05 8.670715e-04
Ga -3.203350e+00 1.791634e+00 4.974662e+00 -4.034335e-04 -3.345178e-04 1.088118e-04
Ga -3.200336e+00 1.781217e+00 -5.238277e+00 -2.092029e-04 9.628121e-05 1.447122e-04
Al -3.194283e+00 1.781958e+00 -1.871178e-01 -1.055987e-03 -6.021485e-05 5.118369e-03
Ga -2.309748e-02 -3.683106e+00 4.976036e+00 2.582825e-04 -1.131289e-05 -1.263185e-05
Ga -2.056910e-02 -3.709416e+00 -5.245182e+00 -3.803504e-05 -2.564472e-04 -2.418924e-04
Ga -1.751844e-02 -3.708256e+00 -1.605113e-01 -2.379487e-04 1.410137e-05 1.908495e-03
Ga -1.594385e+00 -9.480649e-01 4.955217e+00 -8.287233e-04 4.008928e-04 -3.779063e-04
Al -1.616754e+00 -9.656762e-01 -5.239737e+00 -3.355320e-04 -2.113848e-04 8.009684e-05
Ga -1.613706e+00 -9.500061e-01 -1.488480e-01 1.228917e-04 3.620611e-04 1.586949e-03
N 1.565376e+00 8.863804e-01 4.329709e+00 -3.509531e-04 -3.877169e-04 -8.357533e-05
N 1.552433e+00 8.173366e-01 -5.927884e+00 -2.459982e-04 8.966642e-05 -2.192201e-03
N 1.559472e+00 8.644151e-01 -7.506405e-01 9.560464e-05 1.172648e-04 -1.461531e-04
N 2.387977e-02 3.606620e+00 4.316773e+00 6.173309e-05 2.605612e-05 -6.138579e-04
N -6.837720e-02 3.623855e+00 -5.900543e+00 -1.813430e-04 7.449062e-05 -1.399768e-03
N -3.328005e-02 3.617087e+00 -7.693409e-01 -1.757858e-04 -2.495672e-05 -7.230811e-04
N 3.152502e+00 -1.812881e+00 4.317500e+00 3.326154e-04 3.755839e-04 -6.636093e-04
N 3.101730e+00 -1.903213e+00 -5.888305e+00 -1.649656e-04 -3.925564e-04 -7.800199e-04
N 3.139872e+00 -1.872283e+00 -7.043024e-01 2.270160e-04 2.197720e-04 -7.272034e-04
N -4.815789e+00 8.577407e-01 4.321246e+00 4.168364e-05 1.554101e-04 -2.843377e-04
N -4.787938e+00 8.642369e-01 -5.924709e+00 4.498650e-04 -1.532967e-04 -6.345616e-04
N -4.781303e+00 8.708177e-01 -7.632210e-01 -1.781788e-05 2.462447e-04 -4.770373e-05
N -6.404114e+00 3.600806e+00 4.389906e+00 -1.838706e-04 8.106530e-04 -3.980869e-04
N -6.372564e+00 3.600557e+00 -5.923404e+00 -1.231949e-04 3.539602e-04 -8.360585e-04
N -6.406767e+00 3.585735e+00 -7.663385e-01 -3.770483e-04 -1.510923e-04 2.414859e-04
N -3.235166e+00 -1.885707e+00 4.385400e+00 -8.050304e-05 -5.576150e-04 3.663289e-04
N -3.155574e+00 -1.859314e+00 -5.912326e+00 3.818602e-04 4.905174e-04 -8.518563e-04
N -3.233963e+00 -1.892561e+00 -7.725228e-01 -1.051064e-04 7.364662e-05 1.926352e-04
N -1.559533e+00 9.222290e-01 4.368629e+00 7.198617e-04 -3.852092e-04 2.097425e-04
N -1.612103e+00 8.217258e-01 -5.838021e+00 5.170044e-04 -8.930463e-05 -4.105690e-04
N -1.601877e+00 9.182744e-01 -7.710869e-01 -4.072519e-05 -9.532956e-05 -9.012764e-04
N -3.182795e+00 3.630355e+00 4.345313e+00 2.668859e-04 5.996284e-05 5.160390e-05
N -3.159005e+00 3.629091e+00 -5.891992e+00 1.235031e-04 -2.485326e-04 -4.418556e-04
N -3.143166e+00 3.595315e+00 -7.669666e-01 2.621557e-04 9.710764e-04 -1.505566e-03
N 3.703160e-02 -1.832193e+00 4.321539e+00 -1.218848e-03 -8.839451e-04 -2.894754e-04
N -2.621021e-02 -1.830161e+00 -5.811957e+00 -2.588579e-04 -1.343377e-05 8.476931e-06
N 2.421946e-02 -1.839165e+00 -7.486978e-01 7.483172e-04 6.735766e-05 6.665285e-05
N 2.630676e-02 1.827172e+00 1.755411e+00 9.718245e-04 -1.904648e-03 2.071988e-03
N 2.947554e-02 1.836308e+00 6.878493e+00 -1.208001e-03 -2.119326e-03 -1.659993e-03
N -2.020712e-02 1.780284e+00 -3.249081e+00 -1.717341e-04 1.605694e-04 8.442138e-05
N 3.196441e+00 -3.662915e+00 1.772250e+00 2.007889e-03 -1.075183e-03 1.568692e-03
N 3.158965e+00 -3.684401e+00 6.948601e+00 -5.251084e-05 2.487354e-05 -3.096175e-04
N 3.147075e+00 -3.752704e+00 -3.336176e+00 -4.929220e-05 -9.446476e-05 -8.004470e-04
N 1.568014e+00 -9.447960e-01 1.798730e+00 -2.360120e-04 7.559118e-04 -5.195531e-04
N 1.619845e+00 -9.234914e-01 6.871224e+00 -2.600861e-03 1.031817e-03 -1.743278e-03
N 1.571470e+00 -9.040151e-01 -3.355765e+00 -2.402832e-04 7.164845e-05 2.969853e-05
N 3.145951e+00 1.744714e+00 1.764764e+00 -8.971950e-04 -3.405226e-04 1.007756e-03
N 3.147152e+00 1.797635e+00 6.878548e+00 9.832659e-05 -2.195940e-04 -3.060567e-04
N 3.137214e+00 1.778418e+00 -3.259688e+00 -1.729800e-05 -1.843101e-04 -1.669685e-04
N 6.276695e+00 -3.714779e+00 1.739777e+00 5.698013e-04 5.077140e-04 -7.709293e-04
N 6.316331e+00 -3.686927e+00 6.900863e+00 -1.608152e-04 3.020493e-05 -3.005221e-04
N 6.310834e+00 -3.704432e+00 -3.260455e+00 -8.009417e-05 -2.186602e-04 -2.258493e-04
N 4.698114e+00 -9.131070e-01 1.761042e+00 -2.551272e-03 -3.815382e-03 5.384865e-04
N 4.730347e+00 -9.423259e-01 6.897695e+00 -1.975472e-05 -4.634553e-04 -6.267716e-04
N 4.767042e+00 -9.347177e-01 -3.278710e+00 -3.172451e-04 1.313256e-04 -7.674632e-04
N -3.235263e+00 1.768719e+00 1.741626e+00 3.106322e-04 -1.634577e-05 -1.145295e-03
N -3.230189e+00 1.825571e+00 6.945196e+00 -3.663786e-04 -1.104209e-04 -2.709597e-04
N -3.202238e+00 1.781700e+00 -3.252252e+00 9.213093e-05 -2.032393e-04 3.760192e-04
N -2.539895e-02 -3.645476e+00 1.815581e+00 -4.415071e-04 -1.585771e-05 -1.821045e-03
N -1.164414e-02 -3.727505e+00 6.950895e+00 -1.978948e-04 -6.236688e-05 -5.181288e-05
N -2.346930e-02 -3.760338e+00 -3.262426e+00 -2.159087e-04 -4.130640e-04 1.550942e-04
N -1.565598e+00 -9.703671e-01 1.825851e+00 -1.727658e-04 -4.681641e-04 -1.029037e-03
N -1.632896e+00 -9.668770e-01 6.917388e+00 5.060064e-04 6.096733e-04 -4.491663e-05
N -1.659412e+00 -9.366657e-01 -3.318837e+00 -3.617562e-04 3.020394e-04 1.651415e-05
