108
Energy=-2.130354e+06 Lattice="9.575969e+00 0.000000e+00 0.000000e+00 -4.802520e+00 8.263127e+00 0.000000e+00 -5.369162e-02 6.625035e-02 1.553174e+01" Stress="-1.616126e-02 1.269093e-03 -3.333724e-03 1.249432e-03 -1.856655e-02 1.593700e-03 -3.341997e-03 1.580442e-03 -1.563797e-02" Properties=species:S:1:pos:R:3:forces:R:3 Config_type=AlGaN_super3_37_1_3.xyz
Al 1.361964e+00 7.984605e-01 2.805686e+00 1.326593e-02 3.544375e-03 -2.465375e-01
Al 1.546955e+00 9.314724e-01 7.605226e+00 8.023576e-04 -4.036350e-03 7.189009e-03
Ga 1.590945e+00 8.618801e-01 -2.754250e+00 3.406204e-03 -4.725048e-03 6.129815e-03
Al -4.290649e-02 3.638372e+00 2.471909e+00 1.937650e-03 -5.485493e-04 -7.400655e-03
Al -4.440111e-02 3.663193e+00 7.614122e+00 -7.227223e-04 8.753848e-04 2.916906e-03
Ga 1.238103e-02 3.601691e+00 -2.744876e+00 1.352018e-04 6.688402e-04 3.583298e-03
Ga 3.163769e+00 -1.844810e+00 2.446680e+00 -1.131393e-03 -3.699614e-04 -5.689977e-03
Ga 3.165287e+00 -1.840648e+00 7.621561e+00 -9.896657e-04 -1.676604e-03 2.631329e-03
Ga 3.214947e+00 -1.909989e+00 -2.757212e+00 1.307560e-03 1.887592e-03 3.179857e-03
Al -4.852724e+00 9.347389e-01 2.478848e+00 -1.174670e-02 9.363558e-05 -1.072492e-02
Ga -4.867824e+00 9.274757e-01 7.615106e+00 2.361810e-03 -3.578166e-03 3.003613e-03
Ga -4.801664e+00 8.649990e-01 -2.768746e+00 -9.061312e-04 -5.915135e-03 3.416575e-03
Al -6.445491e+00 3.656365e+00 2.475251e+00 -3.609859e-04 -1.209152e-02 -1.073643e-02
Ga -6.452311e+00 3.660807e+00 7.618353e+00 9.829463e-05 1.206229e-03 2.947911e-03
Al -6.388245e+00 3.617285e+00 -2.780884e+00 4.979108e-04 -1.481918e-03 4.144200e-03
Ga -3.232879e+00 -1.855683e+00 2.466123e+00 -2.362334e-03 -3.568854e-03 -4.585397e-03
Ga -3.238421e+00 -1.842690e+00 7.616633e+00 1.921961e-03 -2.572760e-04 2.984419e-03
Al -3.172769e+00 -1.910435e+00 -2.769206e+00 -1.725701e-03 1.174898e-03 1.876410e-03
Ga -1.703323e+00 9.276142e-01 2.479600e+00 3.880328e-03 -2.460290e-03 -8.147041e-03
Ga -1.669452e+00 9.350951e-01 7.603823e+00 4.787706e-03 -3.703692e-03 5.411711e-04
Ga -1.613698e+00 8.644102e-01 -2.745207e+00 5.058471e-03 -3.452759e-03 1.104565e-03
Ga -3.272460e+00 3.663191e+00 2.473698e+00 3.884588e-03 3.782011e-03 -6.193559e-03
Ga -3.265677e+00 3.677252e+00 7.618042e+00 5.584045e-03 1.501663e-03 1.659363e-03
Ga -3.221129e+00 3.619949e+00 -2.759167e+00 3.914246e-03 2.390784e-03 2.019273e-03
Ga -6.075401e-02 -1.832216e+00 2.449397e+00 7.829044e-03 -6.353786e-03 -8.300237e-03
Ga -5.614387e-02 -1.832010e+00 7.613269e+00 4.165329e-03 2.036000e-03 2.482177e-03
Al -5.253727e-03 -1.908105e+00 -2.770593e+00 4.484140e-03 6.651124e-04 2.355757e-03
Ga -3.788826e-02 1.829760e+00 5.027249e+00 -1.964787e-02 5.496293e-03 1.242953e-02
Ga 1.627294e-02 1.770740e+00 -5.354255e+00 -4.790697e-03 -2.753497e-03 3.814811e-03
Al 1.617970e-02 1.760548e+00 -1.445624e-01 -1.064339e-03 -1.974994e-03 1.575094e-02
Ga 3.166142e+00 -3.688893e+00 5.043254e+00 -6.887558e-03 -1.866595e-03 8.104038e-04
Ga 3.219887e+00 -3.742396e+00 -5.338257e+00 -4.838139e-03 -3.010773e-03 2.003794e-03
Ga 3.214910e+00 -3.742451e+00 -1.451236e-01 -4.278194e-03 -5.211604e-04 4.673020e-03
Ga 1.572034e+00 -9.140358e-01 5.031828e+00 -4.580217e-03 -1.485131e-02 1.334601e-02
Ga 1.631448e+00 -9.980345e-01 -5.338095e+00 -6.720369e-03 4.552088e-03 1.098273e-03
Al 1.610746e+00 -9.869302e-01 -1.972712e-01 -5.012785e-03 9.448561e-03 1.393375e-02
Al 3.130769e+00 1.836067e+00 5.015054e+00 1.193102e-02 5.566997e-03 3.118152e-03
Al 3.188414e+00 1.773454e+00 -5.343709e+00 -1.072025e-03 -6.690118e-04 4.430663e-03
Ga 3.184564e+00 1.778410e+00 -1.646569e-01 -5.081337e-03 -6.152663e-04 2.396067e-02
Ga 6.344848e+00 -3.684676e+00 5.038016e+00 1.852358e-03 1.677186e-03 1.297950e-03
Ga 6.401880e+00 -3.741437e+00 -5.333826e+00 -4.099966e-04 -6.815392e-04 3.071126e-03
Ga 6.404055e+00 -3.741726e+00 -1.775131e-01 -2.886845e-04 -4.993532e-04 1.427589e-02
Ga 4.756484e+00 -9.193577e-01 5.035528e+00 8.588534e-04 5.627873e-03 -1.077405e-03
Al 4.805277e+00 -9.905565e-01 -5.332606e+00 -9.062682e-04 4.308223e-03 2.773394e-03
Ga 4.805260e+00 -9.907692e-01 -1.661141e-01 -2.279534e-03 8.062601e-03 9.937882e-03
Al -3.272735e+00 1.837793e+00 5.041033e+00 -1.382947e-03 2.658989e-04 1.210332e-03
Ga -3.220562e+00 1.777592e+00 -5.339189e+00 6.709428e-04 -3.540886e-04 2.311028e-03
Ga -3.204558e+00 1.782414e+00 -1.574832e-01 -3.628423e-03 -6.741298e-04 8.952430e-03
Ga -5.693691e-02 -3.676273e+00 5.033409e+00 3.446473e-04 -9.506651e-04 1.049029e-05
Al -3.031497e-03 -3.740265e+00 -5.335952e+00 8.938485e-05 2.068270e-04 3.601087e-03
Ga -5.231712e-04 -3.726300e+00 -1.805646e-01 -3.950878e-03 -1.440070e-04 1.351838e-02
Al -1.647640e+00 -9.209273e-01 5.040688e+00 -3.022069e-03 2.721076e-03 1.577447e-03
Ga -1.591660e+00 -9.984283e-01 -5.327371e+00 -3.483078e-04 6.015592e-03 2.240497e-03
Ga -1.579657e+00 -9.898345e-01 -1.808730e-01 -3.375257e-03 6.701001e-03 6.481947e-03
N 1.568905e+00 9.420753e-01 4.359226e+00 2.266674e-02 8.058431e-03 1.716391e-01
N 1.621263e+00 8.735476e-01 -5.983838e+00 8.577485e-03 -1.576543e-03 -9.243402e-03
N 1.575311e+00 8.480782e-01 -7.697059e-01 -8.841243e-03 -6.782800e-03 -1.101876e-03
N -5.090211e-02 3.665088e+00 4.391966e+00 1.524817e-03 -1.920621e-03 -7.905378e-03
N 7.434027e-03 3.604978e+00 -5.986393e+00 -6.184187e-04 7.821487e-04 -1.281474e-02
N 5.907035e-03 3.576474e+00 -7.712139e-01 -2.187728e-03 -9.903277e-03 4.162803e-03
N 3.157781e+00 -1.845238e+00 4.414995e+00 -1.581376e-03 2.265652e-03 1.538906e-04
N 3.240245e+00 -1.896141e+00 -5.943149e+00 6.802165e-03 4.651500e-03 -8.977474e-04
N 3.191538e+00 -1.893942e+00 -7.823589e-01 -8.858306e-03 3.737267e-03 2.787542e-03
N -4.855610e+00 9.570712e-01 4.412388e+00 -4.134151e-04 1.558485e-03 8.324737e-05
N -4.826391e+00 8.469372e-01 -5.939764e+00 -6.299508e-03 -8.382885e-03 2.801980e-03
N -4.799934e+00 8.659208e-01 -8.028655e-01 3.008068e-03 -4.995230e-03 -2.597061e-03
N -6.444561e+00 3.642523e+00 4.404535e+00 -2.368803e-03 -8.133735e-03 -3.627892e-03
N -6.368074e+00 3.592576e+00 -5.940484e+00 7.790468e-03 -4.155010e-03 3.329307e-03
N -6.387123e+00 3.609349e+00 -8.432334e-01 -1.496132e-04 2.531689e-03 -1.148456e-02
N -3.209795e+00 -1.832203e+00 4.431148e+00 7.512051e-03 4.035306e-03 3.540966e-03
N -3.202981e+00 -1.893037e+00 -5.946985e+00 -7.977438e-03 4.747477e-03 1.256021e-04
N -3.181398e+00 -1.904246e+00 -8.371037e-01 -5.577822e-04 7.545424e-04 -6.664238e-03
N -1.707844e+00 9.131354e-01 4.447419e+00 4.569092e-03 -6.896182e-03 9.433893e-03
N -1.622354e+00 8.644154e-01 -5.962839e+00 5.921408e-03 -3.160080e-03 -1.136418e-03
N -1.590309e+00 8.860389e-01 -7.750913e-01 1.240108e-02 2.366334e-03 4.719537e-03
N -3.265925e+00 3.648024e+00 4.435720e+00 6.027920e-03 -6.084805e-03 4.250374e-03
N -3.237153e+00 3.626155e+00 -5.946602e+00 -1.816519e-03 6.725876e-03 1.370960e-03
N -3.212906e+00 3.617291e+00 -7.952594e-01 5.763260e-03 2.507095e-03 1.569964e-03
N -7.778181e-02 -1.817846e+00 4.422470e+00 -6.755257e-04 1.107161e-02 4.068052e-03
N -4.617029e-03 -1.929801e+00 -5.950465e+00 6.014317e-03 -6.152324e-03 1.254997e-03
N 2.074734e-02 -1.888215e+00 -8.316675e-01 1.157544e-02 5.892179e-03 -5.101532e-03
N -4.327829e-02 1.802559e+00 1.910168e+00 6.286235e-03 1.536059e-04 -1.010313e-02
N -1.624111e-02 1.847618e+00 7.006260e+00 3.340402e-03 9.960206e-04 8.648180e-04
N 9.037152e-03 1.770699e+00 -3.384433e+00 -6.267549e-03 -1.726395e-03 -4.019911e-03
N 3.193777e+00 -3.710467e+00 1.847719e+00 2.536602e-03 -7.171990e-03 -1.992205e-04
N 3.188672e+00 -3.693627e+00 7.010827e+00 2.415167e-03 -5.725164e-03 2.193354e-03
N 3.220120e+00 -3.748358e+00 -3.374710e+00 -4.241859e-03 -2.356765e-03 -1.423717e-03
N 1.577562e+00 -9.183268e-01 1.790900e+00 -1.297022e-02 1.013347e-02 7.616623e-03
N 1.574817e+00 -8.983042e-01 7.006462e+00 -6.039655e-03 1.149119e-02 -9.594932e-04
N 1.601347e+00 -1.011783e+00 -3.371792e+00 -1.277076e-02 -8.051282e-04 2.618818e-03
N 3.174410e+00 1.852217e+00 1.843704e+00 -9.956272e-03 -7.645814e-03 1.583583e-02
N 3.107350e+00 1.824273e+00 6.965658e+00 -9.072600e-03 -5.512901e-03 -1.350565e-02
N 3.182757e+00 1.799050e+00 -3.403962e+00 -6.093291e-04 8.328575e-03 -9.198455e-03
N 6.344713e+00 -3.723585e+00 1.866675e+00 -2.755520e-05 -5.275667e-03 -5.569158e-03
N 6.319702e+00 -3.692296e+00 7.008947e+00 -7.260699e-03 -4.188615e-03 3.692570e-04
N 6.417769e+00 -3.730051e+00 -3.362615e+00 6.427589e-03 4.536714e-03 3.360711e-03
N 4.759172e+00 -9.008565e-01 1.850584e+00 2.494420e-03 7.983529e-03 -4.460825e-03
N 4.751493e+00 -9.261869e-01 6.994458e+00 -1.183235e-03 4.648459e-03 -1.776203e-03
N 4.828746e+00 -1.008277e+00 -3.399826e+00 6.722793e-03 -2.372322e-04 -6.887691e-03
N -3.295916e+00 1.824557e+00 1.846461e+00 -4.024636e-04 -6.109278e-03 -4.642384e-03
N -3.269488e+00 1.842314e+00 6.971896e+00 2.319071e-04 -5.439920e-04 -1.104147e-02
N -3.205476e+00 1.780234e+00 -3.378203e+00 1.998743e-03 -5.570678e-04 -2.717869e-03
N -8.130457e-02 -3.689187e+00 1.852118e+00 -3.382748e-03 -1.467242e-03 -7.167887e-03
N -5.596405e-02 -3.672854e+00 6.993080e+00 -2.413579e-04 4.193659e-04 -1.851707e-03
N -1.923108e-02 -3.723181e+00 -3.395353e+00 -7.096027e-03 4.805264e-03 -5.836829e-03
N -1.654275e+00 -9.306954e-01 1.813381e+00 1.541599e-03 3.389605e-03 -4.288268e-03
N -1.644308e+00 -9.276388e-01 6.969089e+00 -6.279168e-04 5.030605e-03 -1.057579e-02
N -1.585356e+00 -1.016092e+00 -3.357908e+00 -1.212301e-03 -2.825701e-03 5.246481e-03
