108
Energy=-1.672602e+06 Lattice="9.547019e+00 0.000000e+00 0.000000e+00 -4.778264e+00 8.266132e+00 0.000000e+00 -2.226807e-03 5.138476e-03 1.542206e+01" Stress="5.467207e-04 -4.484391e-04 -8.844318e-05 -4.341002e-04 2.038973e-04 1.948616e-04 -7.848088e-05 1.966104e-04 -1.070248e-03" Properties=species:S:1:pos:R:3:forces:R:3 Config_type=AlGaN_super3_27_0_20.xyz
Al 1.575120e+00 8.909778e-01 2.394003e+00 -5.405486e-04 1.184993e-03 -9.077658e-04
Al 1.569513e+00 9.037555e-01 7.575818e+00 -2.931456e-04 -7.489726e-05 3.026318e-04
Al 1.559643e+00 8.881383e-01 -2.714331e+00 4.154574e-05 3.793724e-04 2.276485e-04
Al -1.462250e-02 3.619411e+00 2.409511e+00 -5.423221e-05 -8.138897e-05 -2.498234e-04
Al -1.104162e-02 3.613336e+00 7.568439e+00 5.330417e-05 1.268621e-04 -4.849775e-05
Al -2.679378e-02 3.612743e+00 -2.711182e+00 -1.703916e-06 -9.747834e-05 1.662292e-04
Al 3.168377e+00 -1.856075e+00 2.402855e+00 1.811471e-04 -3.732253e-04 -8.438548e-04
Ga 3.170469e+00 -1.858140e+00 7.579026e+00 3.974989e-06 1.472991e-04 2.614344e-05
Ga 3.167229e+00 -1.871001e+00 -2.711088e+00 -8.312508e-07 7.379264e-05 -1.287938e-04
Al -4.813025e+00 8.753016e-01 2.396633e+00 1.326011e-03 1.251498e-03 -1.253858e-03
Al -4.813093e+00 8.829727e-01 7.564133e+00 1.737724e-04 -1.329763e-04 7.933248e-05
Ga -4.799533e+00 8.754199e-01 -2.698940e+00 -6.494884e-05 1.287061e-04 7.305545e-05
Al -6.394875e+00 3.613568e+00 2.389645e+00 8.241231e-05 -7.859252e-05 -1.081551e-04
Al -6.402501e+00 3.612779e+00 7.580393e+00 4.254670e-05 1.725792e-04 5.066409e-05
Ga -6.396950e+00 3.616753e+00 -2.701264e+00 1.157997e-05 -1.619104e-04 -3.314333e-05
Ga -3.232378e+00 -1.880472e+00 2.423710e+00 1.270414e-04 -4.427089e-05 5.866355e-05
Ga -3.223417e+00 -1.876699e+00 7.560210e+00 -6.626146e-05 6.893792e-05 -3.270896e-05
Al -3.218219e+00 -1.872149e+00 -2.708323e+00 -1.266325e-04 4.255528e-05 -1.022062e-04
Ga -1.607320e+00 9.079879e-01 2.414818e+00 -1.700840e-04 1.528910e-04 -1.197423e-04
Ga -1.604598e+00 9.044431e-01 7.560953e+00 -2.791370e-05 -8.887685e-05 8.315744e-05
Al -1.600821e+00 8.991285e-01 -2.704156e+00 1.029329e-04 1.021911e-04 1.844372e-05
Ga -3.212628e+00 3.625196e+00 2.411006e+00 -1.319347e-04 -2.402485e-04 -3.336080e-05
Ga -3.211528e+00 3.622290e+00 7.548946e+00 2.667477e-07 -7.964391e-05 -2.133088e-05
Al -3.196265e+00 3.622358e+00 -2.683882e+00 7.301407e-06 -7.925272e-05 7.583099e-05
Ga -5.058978e-03 -1.878513e+00 2.390395e+00 -1.773466e-04 -1.581702e-04 -1.101560e-04
Ga -1.700597e-02 -1.870027e+00 7.586380e+00 -2.088421e-04 -3.871755e-07 4.734671e-05
Ga -1.009955e-02 -1.867291e+00 -2.696658e+00 -6.529743e-05 -4.627360e-05 1.083978e-04
Al -1.847546e-02 1.803805e+00 4.985058e+00 -1.134491e-04 1.806704e-04 -5.943051e-05
Al -3.368465e-04 1.789852e+00 -5.269535e+00 -1.735613e-04 -6.229973e-04 1.672679e-04
Al -1.301517e-02 1.788515e+00 -1.652523e-01 2.008427e-04 8.563887e-04 -5.144356e-04
Ga 3.179221e+00 -3.715600e+00 4.970645e+00 3.725581e-05 -8.212194e-05 8.636025e-06
Ga 3.173036e+00 -3.719231e+00 -5.266128e+00 -8.530526e-05 5.906664e-05 1.445235e-04
Ga 3.159433e+00 -3.716215e+00 -1.470891e-01 1.637786e-04 -2.245412e-04 1.026713e-04
Ga 1.581921e+00 -9.361584e-01 4.978828e+00 -1.500733e-04 -9.461929e-05 1.142332e-04
Al 1.579947e+00 -9.275843e-01 -5.277419e+00 -1.189602e-05 3.309998e-05 4.309507e-05
Al 1.584138e+00 -9.386042e-01 -1.424818e-01 -7.815819e-04 8.165780e-04 1.524294e-04
Ga 3.162149e+00 1.787197e+00 4.980623e+00 1.412652e-04 2.045193e-04 1.111022e-06
Al 3.144545e+00 1.773246e+00 -5.306116e+00 2.447890e-04 -2.688178e-04 4.651259e-04
Al 3.154727e+00 1.781739e+00 -1.297660e-01 5.189192e-04 -4.538126e-04 -2.788187e-04
Ga 6.336433e+00 -3.730531e+00 4.990669e+00 -3.694528e-05 -8.139057e-05 -6.694625e-06
Ga 6.335651e+00 -3.728525e+00 -5.277998e+00 -6.743407e-05 7.235854e-05 7.866010e-05
Ga 6.339895e+00 -3.722137e+00 -1.492929e-01 -8.800717e-05 -2.471627e-04 5.364843e-05
Al 4.744744e+00 -9.352402e-01 4.975381e+00 4.738701e-05 -1.126151e-04 6.203568e-05
Al 4.742003e+00 -9.447788e-01 -5.277761e+00 -5.906611e-05 -1.697636e-05 -9.908886e-06
Al 4.742230e+00 -9.419633e-01 -1.375824e-01 -2.421347e-04 3.548332e-04 8.783932e-05
Al -3.217012e+00 1.780610e+00 4.985885e+00 2.946789e-04 5.161060e-05 -9.560837e-05
Ga -3.214300e+00 1.783951e+00 -5.265978e+00 8.182048e-05 2.845000e-05 7.862169e-05
Al -3.212534e+00 1.796481e+00 -1.626769e-01 -5.489864e-04 6.673644e-06 -1.431880e-04
Ga -3.193992e-02 -3.723940e+00 4.992041e+00 7.177493e-05 -5.546905e-05 -5.377660e-05
Ga -2.121170e-02 -3.723859e+00 -5.272078e+00 1.550702e-04 -6.807996e-05 4.884908e-05
Al -1.391745e-02 -3.729154e+00 -1.498077e-01 3.730182e-05 -1.098477e-04 -2.753226e-06
Ga -1.620600e+00 -9.377461e-01 4.988311e+00 -2.156526e-06 -5.822766e-05 -2.540355e-07
Ga -1.615217e+00 -9.482451e-01 -5.252995e+00 7.368510e-05 -2.313132e-05 6.915658e-05
Ga -1.618814e+00 -9.416614e-01 -1.676374e-01 2.036218e-04 -4.850573e-05 2.335413e-05
N 1.525645e+00 9.106183e-01 4.311494e+00 -5.519265e-05 -1.045806e-04 3.349088e-04
N 1.561078e+00 8.811521e-01 -5.916285e+00 -2.531846e-05 4.999008e-05 1.430786e-04
N 1.572397e+00 8.800124e-01 -7.785090e-01 -1.317694e-04 1.114634e-04 1.078175e-04
N -2.203911e-02 3.580098e+00 4.320343e+00 3.411571e-05 7.129490e-05 8.347731e-05
N -2.562760e-02 3.573347e+00 -5.934651e+00 4.901318e-05 4.637159e-04 -1.250057e-04
N -2.566767e-02 3.582495e+00 -8.044720e-01 9.438927e-06 -3.339257e-04 5.370982e-05
N 3.202307e+00 -1.846557e+00 4.323181e+00 -8.449973e-05 2.782921e-04 1.713743e-04
N 3.161442e+00 -1.831758e+00 -5.856217e+00 -1.115249e-05 3.905967e-05 -4.500072e-05
N 3.160989e+00 -1.824357e+00 -7.330323e-01 4.672373e-04 -4.341784e-04 -1.816546e-04
N -4.758388e+00 8.593928e-01 4.323474e+00 -2.204017e-04 -2.169788e-04 4.054714e-04
N -4.836206e+00 8.519391e-01 -5.927099e+00 -6.158407e-05 6.503614e-05 -5.855824e-05
N -4.804593e+00 8.779086e-01 -7.167301e-01 -2.951074e-04 3.383961e-04 3.633527e-04
N -6.391472e+00 3.627842e+00 4.301328e+00 3.841368e-05 -1.224843e-04 8.429899e-05
N -6.391230e+00 3.580032e+00 -5.924260e+00 -4.573513e-05 2.784658e-04 -2.291936e-04
N -6.350923e+00 3.598054e+00 -7.251393e-01 -5.619258e-05 1.023732e-04 -5.909778e-06
N -3.251682e+00 -1.856221e+00 4.397643e+00 -3.917772e-06 -4.106411e-06 -1.740943e-05
N -3.248417e+00 -1.853973e+00 -5.884018e+00 -1.111926e-05 -9.314865e-05 -1.749831e-04
N -3.258251e+00 -1.852204e+00 -7.946945e-01 1.632234e-04 -1.517233e-04 6.367433e-05
N -1.612217e+00 9.403662e-01 4.400962e+00 5.685563e-05 -1.542499e-04 5.118697e-05
N -1.568634e+00 9.078342e-01 -5.881172e+00 6.227138e-05 1.686278e-04 -5.100046e-05
N -1.610567e+00 9.376871e-01 -7.859199e-01 3.748621e-04 -2.534939e-04 -2.766290e-04
N -3.210164e+00 3.584438e+00 4.389610e+00 -4.379419e-05 5.634866e-05 4.481069e-05
N -3.202750e+00 3.626342e+00 -5.909402e+00 -5.141161e-05 -5.461094e-05 -8.194246e-05
N -3.245387e+00 3.610109e+00 -7.699341e-01 -3.206938e-06 1.323276e-04 -1.497806e-04
N -1.724046e-02 -1.875276e+00 4.360965e+00 -1.634403e-05 -3.404383e-05 -6.232014e-05
N 2.127457e-02 -1.851556e+00 -5.859694e+00 -1.572055e-04 -7.970949e-05 -3.942073e-05
N 2.917147e-02 -1.898053e+00 -7.159735e-01 9.855089e-07 -9.198231e-05 -1.480243e-04
N 1.909330e-02 1.821815e+00 1.751342e+00 6.644825e-04 -6.150816e-04 1.018176e-03
N 2.656052e-02 1.822912e+00 6.909914e+00 -3.391768e-05 3.580929e-06 -2.685353e-05
N -1.530546e-02 1.794421e+00 -3.338238e+00 -7.071585e-06 1.413482e-05 4.158396e-05
N 3.205473e+00 -3.689619e+00 1.837891e+00 1.431478e-05 3.629600e-04 1.420685e-04
N 3.212380e+00 -3.730108e+00 6.957148e+00 -2.085988e-05 3.778808e-05 -1.135165e-04
N 3.163739e+00 -3.764043e+00 -3.281356e+00 -2.030277e-05 1.201261e-04 -9.564619e-05
N 1.615710e+00 -9.227730e-01 1.776318e+00 1.033357e-04 -5.544941e-04 3.714283e-04
N 1.572069e+00 -8.988875e-01 6.959579e+00 1.087555e-04 -7.918824e-05 -1.126584e-04
N 1.572417e+00 -9.010020e-01 -3.362454e+00 7.314889e-05 -2.786105e-04 -2.161950e-04
N 3.156083e+00 1.790338e+00 1.794177e+00 7.673486e-05 6.266510e-06 1.854677e-04
N 3.155678e+00 1.795940e+00 6.983545e+00 1.828549e-04 6.804624e-05 -1.671691e-04
N 3.117207e+00 1.766234e+00 -3.381226e+00 -7.139776e-05 -3.027385e-05 -2.779552e-04
N 6.340743e+00 -3.758584e+00 1.827473e+00 4.835175e-05 6.220895e-05 -9.781139e-05
N 6.344918e+00 -3.765377e+00 6.980002e+00 -6.097339e-05 -6.192915e-05 -2.082861e-05
N 6.302394e+00 -3.693686e+00 -3.291850e+00 6.983443e-05 -1.679325e-05 -7.121243e-05
N 4.711604e+00 -9.315631e-01 1.773694e+00 -1.400729e-04 -1.547403e-04 2.035230e-04
N 4.743670e+00 -9.005753e-01 6.893088e+00 -1.448474e-04 -1.090308e-05 7.016439e-05
N 4.791896e+00 -9.737115e-01 -3.370701e+00 -2.476119e-05 -8.224038e-05 1.046207e-04
N -3.245071e+00 1.773085e+00 1.748098e+00 -1.132652e-03 -8.149477e-04 1.051487e-03
N -3.256352e+00 1.765380e+00 6.904420e+00 -8.376177e-06 8.952559e-06 1.318027e-05
N -3.168832e+00 1.817289e+00 -3.286049e+00 1.491811e-06 5.378794e-05 -5.740716e-05
N -5.964779e-02 -3.741836e+00 1.758205e+00 -1.273335e-05 2.986210e-05 1.075024e-04
N -7.442707e-02 -3.734392e+00 6.967738e+00 6.824427e-05 -1.161527e-04 -5.113799e-06
N 2.163834e-02 -3.742311e+00 -3.300541e+00 -2.417411e-05 6.797185e-05 -5.491923e-05
N -1.622189e+00 -9.502209e-01 1.799977e+00 3.689528e-06 -9.320072e-05 1.128359e-04
N -1.614199e+00 -9.519166e-01 6.954669e+00 6.927343e-05 -7.393318e-05 -8.941275e-05
N -1.653949e+00 -9.306982e-01 -3.266886e+00 9.945642e-05 -6.938916e-05 -1.362054e-04
