108
Energy=-2588112.428970 Lattice="9.665960 0.000000 0.000000 -4.844679 8.362653 0.000000 -0.021753 0.011914 15.685568" Stress="-0.000000 -0.000002 -0.000005 -0.000002 -0.000003 0.000002 -0.000005 0.000002 0.000001" Properties=species:S:1:pos:R:3:forces:R:3
Al 1.584403 0.902243 2.469750 0.000388 -0.000203 0.000899
Al 1.573734 0.895177 7.691540 0.000425 0.000227 0.000388
Ga 1.585398 0.884608 -2.769815 0.000435 -0.000208 0.000283
Al -0.018737 3.665429 2.474805 0.000099 0.000063 -0.000041
Ga -0.032518 3.667482 7.704130 0.000103 0.000124 0.000808
Ga -0.018731 3.670772 -2.778166 0.000207 -0.000085 0.000623
Ga 3.210398 -1.896864 2.474756 0.000304 -0.000329 -0.000267
Ga 3.191282 -1.876119 7.692399 0.000282 -0.000218 0.000272
Ga 3.203186 -1.902174 -2.764103 0.000267 -0.000313 0.000137
Ga -4.865694 0.893475 2.478698 0.000508 -0.000292 -0.000331
Al -4.864679 0.899632 7.705621 0.000146 0.000203 0.000052
Ga -4.852018 0.891917 -2.784724 0.000314 -0.000301 0.000250
Ga -6.480596 3.668152 2.476741 0.000359 -0.000019 -0.000305
Ga -6.490393 3.670640 7.703785 0.000050 0.000120 0.000319
Ga -6.479847 3.673144 -2.777197 -0.000126 -0.000030 0.000168
Ga -3.241000 -1.900233 2.477826 0.000297 -0.000199 -0.000412
Ga -3.252045 -1.882264 7.707217 0.000083 -0.000208 0.000321
Ga -3.239110 -1.909505 -2.780549 0.000101 -0.000312 0.000127
Ga -1.621329 0.903970 2.476737 0.000534 -0.000811 -0.000300
Al -1.651651 0.902281 7.702256 0.000267 -0.000110 0.000076
Ga -1.643011 0.894496 -2.776911 0.000554 -0.000548 0.000463
Ga -3.237993 3.678821 2.479197 0.000481 -0.000263 -0.000313
Ga -3.260910 3.663885 7.708750 0.000312 0.000029 0.000068
Ga -3.249225 3.663390 -2.779851 0.000238 -0.000331 0.000064
Ga -0.012818 -1.884659 2.477943 0.000609 -0.000539 -0.000412
Ga -0.029384 -1.870664 7.697407 0.000469 -0.000409 0.000055
Ga -0.016909 -1.896639 -2.765720 0.000246 -0.000491 -0.000113
Ga -0.023699 1.819750 5.087646 -0.000258 0.000409 0.000845
Ga -0.021799 1.811403 -5.405524 -0.000602 0.000121 0.000508
Ga -0.024936 1.818637 -0.131113 -0.001101 0.000595 0.000335
Ga 3.208810 -3.759209 5.082459 -0.000119 0.000254 0.000120
Ga 3.219308 -3.771449 -5.380035 -0.000623 0.000416 -0.000112
Ga 3.200175 -3.764652 -0.138076 0.000894 0.000159 0.000071
Ga 1.589021 -0.951893 5.084716 -0.000518 0.000408 0.000141
Ga 1.601328 -0.968622 -5.388259 -0.000633 0.000484 0.000179
Ga 1.583463 -0.966262 -0.130087 0.000302 -0.000019 -0.000492
Ga 3.184173 1.813806 5.102149 -0.000162 0.000089 0.000347
Ga 3.205582 1.813453 -5.407541 -0.000210 0.000052 0.000503
Ga 3.184029 1.814155 -0.140828 0.000798 0.000272 0.000030
Ga 6.414795 -3.755456 5.074641 -0.000075 -0.000010 0.000334
Al 6.433698 -3.762854 -5.380969 -0.000099 0.000173 0.000243
Ga 6.413970 -3.759334 -0.132188 0.000419 -0.000047 -0.000033
Ga 4.810650 -0.957566 5.105838 -0.000351 -0.000103 0.000223
Ga 4.829927 -0.968961 -5.391930 -0.000541 0.000484 -0.000126
Ga 4.806277 -0.969076 -0.150124 0.000399 0.000054 -0.000531
Ga -3.254544 1.819284 5.109068 -0.000215 0.000164 0.000357
Al -3.241037 1.806253 -5.408801 -0.000393 0.000081 0.000812
Ga -3.259155 1.818350 -0.144368 0.000621 0.000077 0.000019
Ga -0.022340 -3.751092 5.094746 -0.000112 0.000038 0.000084
Ga -0.015931 -3.768313 -5.380172 -0.000149 0.000264 -0.000008
Ga -0.027293 -3.757878 -0.149216 0.000660 0.000062 -0.000400
Ga -1.636646 -0.955850 5.105093 -0.000473 -0.000077 0.000343
Ga -1.632314 -0.965082 -5.391505 -0.000442 0.000417 0.000080
Ga -1.641464 -0.967923 -0.148872 0.000213 0.000232 -0.000409
N 1.580422 0.898835 4.395842 0.000574 -0.000125 -0.000359
N 1.590565 0.883078 -6.077704 0.000549 -0.000031 -0.000124
N 1.575829 0.887426 -0.788993 0.000592 -0.000005 0.000250
N -0.033263 3.674467 4.399245 0.000242 -0.000331 -0.000406
N 0.022789 3.695732 -5.998802 0.000326 -0.000152 -0.000452
N -0.032433 3.673955 -0.791600 0.000239 -0.000263 -0.000580
N 3.200962 -1.891394 4.458195 0.000398 -0.000350 -0.000055
N 3.210017 -1.904088 -6.017892 0.000496 -0.000424 -0.000054
N 3.191028 -1.900926 -0.779889 0.000350 -0.000267 0.000632
N -4.865531 0.897145 4.457684 0.000425 0.000187 -0.000190
N -4.811123 0.909560 -6.055385 0.000512 -0.000125 -0.000186
N -4.867053 0.892113 -0.798489 0.000400 0.000119 0.000263
N -6.475822 3.676141 4.458812 0.000113 -0.000142 -0.000219
N -6.509655 3.698003 -5.999037 -0.000008 -0.000120 -0.000497
N -6.486629 3.675523 -0.788273 0.000211 -0.000012 0.000209
N -3.246134 -1.887312 4.459009 0.000270 -0.000204 -0.000270
N -3.233862 -1.952828 -5.996615 0.000205 -0.000316 -0.000161
N -3.249707 -1.904228 -0.794891 0.000401 -0.000178 0.000401
N -1.643483 0.899544 4.456554 0.000579 -0.000119 -0.000282
N -1.672971 0.911726 -6.057883 0.000631 -0.000248 -0.000309
N -1.644646 0.896332 -0.786195 0.000917 -0.000076 -0.000767
N -3.255932 3.679697 4.460491 0.000139 -0.000440 -0.000216
N -3.244285 3.626367 -5.994131 0.000337 -0.000370 -0.000148
N -3.257640 3.674861 -0.793400 0.000163 -0.000196 0.000293
N -0.026802 -1.887468 4.460210 0.000328 -0.000583 -0.000166
N -0.013141 -1.899534 -6.014122 0.000169 -0.000612 -0.000057
N -0.025910 -1.893952 -0.783750 0.000441 -0.000473 0.000403
N 0.020750 1.843006 1.867343 0.000277 0.000092 -0.000017
N -0.034633 1.774030 7.093343 -0.000191 0.000034 -0.000570
N -0.022559 1.806923 -3.420166 -0.000444 0.000618 -0.000603
N 3.258828 -3.784009 1.855923 -0.001563 0.000478 -0.000519
N 3.199051 -3.755808 7.065435 -0.000238 0.000218 -0.000319
N 3.209363 -3.764163 -3.402285 -0.000230 0.000479 -0.000092
N 1.601989 -0.918726 1.857185 -0.001664 0.000707 0.000266
N 1.583490 -0.910779 7.068898 -0.000524 0.000221 -0.000541
N 1.596513 -0.973467 -3.409066 -0.000500 0.000502 -0.000204
N 3.160556 1.794139 1.847686 -0.001416 0.000017 -0.000130
N 3.185847 1.773218 7.102479 0.000029 -0.000301 -0.000299
N 3.196252 1.809881 -3.421769 -0.000112 0.000290 -0.000282
N 6.390055 -3.780547 1.857061 -0.000765 0.000160 0.000054
N 6.413585 -3.750322 7.051799 0.000102 0.000033 -0.000457
N 6.428937 -3.763145 -3.461415 -0.000044 0.000160 -0.000106
N 4.822318 -0.966314 1.828121 -0.001341 0.000270 0.000609
N 4.806761 -0.910949 7.090185 -0.000224 0.000086 -0.000323
N 4.815633 -0.972733 -3.410067 -0.000427 0.000306 -0.000196
N -3.243212 1.818429 1.834098 -0.001325 0.000274 0.000355
N -3.258101 1.774743 7.098472 -0.000227 -0.000176 -0.000127
N -3.244811 1.810006 -3.478270 -0.000342 0.000341 -0.000330
N -0.010709 -3.755423 1.835205 -0.001279 0.000151 0.000482
N -0.026956 -3.750011 7.073899 -0.000090 0.000052 -0.000031
N -0.016304 -3.760596 -3.401087 -0.000164 0.000162 0.000018
N -1.624902 -0.965274 1.831746 -0.001504 0.000457 0.000494
N -1.642928 -0.910137 7.089872 -0.000368 0.000220 -0.000286
N -1.627072 -0.969040 -3.409221 -0.000602 0.000410 -0.000144
