108
Energy=-2588111.392042 Lattice="9.626258 0.000000 0.000000 -4.829606 8.316873 0.000000 -0.243322 -0.220980 15.539148" Stress="-0.000109 0.000004 -0.000048 0.000004 -0.000102 -0.000043 -0.000048 -0.000043 -0.000136" Properties=species:S:1:pos:R:3:forces:R:3
Al 1.468583 0.800412 2.457231 0.000788 -0.004210 -0.000789
Al 1.444988 0.765625 7.616805 0.000907 -0.000985 0.000618
Ga 1.671754 0.972787 -2.744205 0.000798 -0.004276 0.001530
Al -0.127649 3.552651 2.468051 -0.001077 0.001604 -0.002193
Ga -0.151544 3.525920 7.624992 -0.000400 -0.000731 0.001276
Ga 0.073634 3.739152 -2.747016 0.000392 0.000031 0.003155
Ga 3.089655 -1.995909 2.448354 -0.000191 0.000641 0.000874
Ga 3.070661 -2.000334 7.622529 -0.000014 -0.001085 0.000592
Ga 3.297443 -1.809216 -2.738787 -0.000287 -0.000316 0.001251
Ga -4.967314 0.792237 2.444923 0.001933 -0.003236 0.001072
Al -4.976086 0.772284 7.626571 0.000697 -0.001319 0.000403
Ga -4.751687 0.984041 -2.754855 0.000970 -0.004335 0.000751
Ga -6.574065 3.548567 2.449865 0.000875 0.001351 0.001717
Ga -6.587480 3.530655 7.627692 0.000694 -0.000375 0.001021
Ga -6.360737 3.743141 -2.747176 -0.000748 -0.000020 0.001713
Ga -3.339652 -1.994698 2.448236 0.001259 0.001826 0.001492
Ga -3.355362 -2.002059 7.630301 0.000434 -0.000178 0.000958
Ga -3.127789 -1.811329 -2.750498 -0.000248 -0.000598 0.001285
Ga -1.746863 0.810533 2.429068 0.007753 -0.001375 0.003394
Al -1.785205 0.776674 7.623685 0.005291 -0.000669 -0.000042
Ga -1.563949 0.984413 -2.765893 0.004825 -0.002504 -0.001857
Ga -3.361392 3.556554 2.447718 0.005453 0.003745 0.000710
Ga -3.385199 3.526520 7.629866 0.004698 0.002121 -0.000226
Ga -3.157187 3.741052 -2.751215 0.004168 0.000946 0.000572
Ga -0.139001 -1.983064 2.447531 0.006139 0.002681 0.000258
Ga -0.157322 -1.992802 7.625267 0.004629 0.000851 -0.000487
Ga 0.071302 -1.800407 -2.741172 0.004241 0.001461 -0.000065
Ga -0.139746 1.695954 5.033214 -0.003966 -0.000987 0.001568
Ga 0.083788 1.904742 -5.350900 -0.004765 -0.002829 0.000442
Ga 0.039148 1.861216 -0.166739 -0.000454 0.001637 0.011284
Ga 3.086900 -3.853227 5.036216 -0.003511 -0.001547 0.000397
Ga 3.316960 -3.653254 -5.328979 -0.004879 -0.001527 -0.000341
Ga 3.293253 -3.666711 -0.131155 -0.007087 -0.006021 -0.000605
Ga 1.483508 -1.079293 5.038550 -0.004927 0.003479 -0.000543
Ga 1.710862 -0.880727 -5.334885 -0.004982 0.004120 -0.000075
Ga 1.692522 -0.901072 -0.127168 -0.008989 -0.000254 -0.002279
Ga 3.053564 1.695435 5.044986 0.000179 0.000500 0.002222
Ga 3.283067 1.907313 -5.351457 0.000538 -0.001189 0.001509
Ga 3.258323 1.887935 -0.135930 -0.005295 -0.004908 0.000170
Ga 6.280283 -3.847851 5.032084 0.000375 0.000360 0.001318
Al 6.508496 -3.645954 -5.331649 0.000239 0.000273 0.001605
Ga 6.487292 -3.665940 -0.128845 -0.005792 -0.004927 0.000915
Ga 4.681289 -1.078379 5.048608 -0.000271 0.004243 0.000448
Ga 4.913751 -0.879467 -5.335460 -0.000744 0.006196 -0.000207
Ga 4.891781 -0.895262 -0.145432 -0.005232 0.000326 -0.001106
Ga -3.371566 1.700515 5.042450 0.001139 0.000394 0.002141
Al -3.145697 1.906205 -5.359048 0.000343 -0.000829 0.002075
Ga -3.164935 1.891695 -0.150923 -0.005502 -0.002667 -0.001119
Ga -0.144545 -3.844815 5.039585 0.000635 0.000560 0.001108
Ga 0.078103 -3.646335 -5.330608 0.000869 0.000308 0.000490
Ga 0.064978 -3.657338 -0.146915 -0.004516 -0.004225 -0.000034
Ga -1.746448 -1.073333 5.044507 -0.000441 0.005257 0.000593
Ga -1.524963 -0.875347 -5.339620 -0.000472 0.006404 -0.000494
Ga -1.540679 -0.893484 -0.151377 -0.004638 -0.001527 -0.001742
N 1.459505 0.785487 4.383147 0.000593 -0.004864 -0.007462
N 1.682938 0.985105 -5.997017 0.000198 -0.004911 -0.007329
N 1.658819 0.962618 -0.772279 -0.001429 -0.005097 -0.002388
N -0.143722 3.546742 4.391027 -0.000783 -0.000192 -0.008511
N 0.110114 3.766631 -5.945341 0.005550 0.003640 0.000884
N 0.059251 3.727653 -0.768170 -0.001723 -0.002497 -0.004862
N 3.082764 -2.000660 4.415529 0.000022 0.000038 -0.000704
N 3.308785 -1.799886 -5.954833 -0.000189 -0.000793 -0.001338
N 3.290138 -1.816683 -0.770469 -0.002968 -0.002045 -0.000937
N -4.969886 0.785873 4.411143 0.000880 -0.004101 -0.000519
N -4.717672 1.004949 -5.983964 0.006026 -0.001760 -0.004458
N -4.763740 0.976554 -0.783666 -0.002127 -0.006329 -0.000561
N -6.571023 3.546372 4.417238 0.000287 -0.000068 -0.001161
N -6.374162 3.770083 -5.943970 -0.006271 0.003806 0.001073
N -6.368496 3.736247 -0.773527 -0.001968 -0.001442 -0.001237
N -3.344510 -1.994854 4.415399 0.000156 0.000287 -0.001071
N -3.118541 -1.829522 -5.942553 -0.000223 -0.007475 0.001088
N -3.137170 -1.819552 -0.780576 -0.002437 -0.001834 -0.001319
N -1.772687 0.791286 4.403256 0.005256 -0.002814 0.000287
N -1.573242 1.008604 -5.986553 -0.000412 -0.000097 -0.003188
N -1.577451 0.970927 -0.802350 0.002629 -0.004870 0.004662
N -3.374665 3.549845 4.414924 0.004462 0.001762 -0.000477
N -3.148735 3.726194 -5.944302 0.004393 -0.004286 0.002730
N -3.164206 3.738877 -0.781111 0.002298 0.000490 0.000220
N -0.149321 -1.993469 4.414658 0.004766 0.001525 -0.000050
N 0.080155 -1.792551 -5.954197 0.003946 0.000894 -0.000186
N 0.063052 -1.807436 -0.775795 0.002310 0.000188 0.000500
N -0.072629 1.750942 1.865142 -0.001676 -0.001471 -0.006042
N -0.150658 1.658465 7.016501 -0.003861 -0.008401 0.004090
N 0.077504 1.892271 -3.379631 -0.004751 -0.002008 -0.000723
N 3.128230 -3.859729 1.835917 0.006184 -0.000064 0.002905
N 3.078825 -3.859861 7.002560 -0.004909 -0.001199 0.000007
N 3.304776 -3.655179 -3.366092 -0.004672 -0.001653 -0.000262
N 1.494992 -1.037641 1.833335 0.000328 0.012409 0.004721
N 1.475968 -1.057170 7.007362 -0.005491 0.007295 0.001502
N 1.704038 -0.889629 -3.370118 -0.005535 0.002397 0.000117
N 3.039094 1.692934 1.828856 0.001885 0.001951 -0.000076
N 3.047907 1.661592 7.023350 0.000316 -0.007571 0.003764
N 3.273034 1.897061 -3.379081 -0.000643 -0.000530 -0.001744
N 6.262286 -3.852784 1.839631 0.002175 0.002619 -0.000533
N 6.273566 -3.854275 6.994688 -0.000065 0.000617 -0.001238
N 6.501731 -3.652620 -3.401648 -0.000694 -0.000574 -0.009010
N 4.691124 -1.075014 1.810420 0.005275 0.009387 0.000686
N 4.674740 -1.055229 7.018486 -0.000905 0.009565 0.000986
N 4.900238 -0.885941 -3.370338 -0.001185 0.004303 -0.000157
N -3.360010 1.715824 1.798710 0.006269 0.003085 0.001856
N -3.377343 1.664150 7.016900 -0.000326 -0.007438 0.003683
N -3.152821 1.901986 -3.421308 -0.000577 -0.000477 -0.008834
N -0.135146 -3.836572 1.814234 0.005721 0.004485 -0.000047
N -0.152225 -3.852426 7.005248 0.000182 0.000538 -0.000803
N 0.074703 -3.647828 -3.366229 -0.000327 -0.000206 -0.000677
N -1.733658 -1.070542 1.801173 0.004228 0.010616 0.002201
N -1.754994 -1.051532 7.016423 -0.001054 0.009465 0.000926
N -1.525434 -0.883532 -3.375918 -0.000966 0.004038 0.000295
