108
Energy=-5.739897e+05 Lattice="9.456500e+00 0.000000e+00 0.000000e+00 -4.736571e+00 8.179985e+00 0.000000e+00 -1.028001e-02 -5.723634e-03 1.519650e+01" Stress="1.545977e-02 2.888274e-03 -4.982072e-04 2.882999e-03 1.613778e-02 -6.459056e-04 -4.952669e-04 -6.443343e-04 1.575516e-02" Properties=species:S:1:pos:R:3:forces:R:3 Config_type=AlGaN_super3_3_0_4.xyz
Al 1.545701e+00 8.728541e-01 2.411214e+00 3.502595e-04 -6.175471e-03 -3.540645e-03
Al 1.544696e+00 8.743757e-01 7.455416e+00 8.155561e-04 -6.032605e-03 -7.585371e-04
Al 1.556377e+00 8.784881e-01 -2.704780e+00 2.574886e-03 -5.635581e-03 -1.471622e-03
Al -2.214182e-02 3.594347e+00 2.408994e+00 5.569750e-04 -1.024152e-03 -1.951971e-03
Al -2.246598e-02 3.589827e+00 7.455905e+00 -2.875032e-04 -5.321557e-04 3.859567e-05
Al -1.356019e-02 3.599070e+00 -2.703660e+00 -4.046512e-04 -3.337383e-04 2.071593e-04
Al 3.129848e+00 -1.881078e+00 2.414827e+00 1.028002e-02 8.005059e-03 -5.385954e-03
Al 3.145594e+00 -1.872871e+00 7.455770e+00 -3.802930e-04 1.536218e-04 1.857713e-04
Al 3.148197e+00 -1.870933e+00 -2.709860e+00 1.551063e-03 1.599481e-03 -1.850214e-03
Al -4.768454e+00 8.687999e-01 2.414729e+00 2.136653e-03 9.020526e-03 4.120300e-03
Al -4.773196e+00 8.794753e-01 7.457038e+00 1.448307e-03 -5.797277e-03 -8.145407e-04
Al -4.763724e+00 8.852120e-01 -2.706129e+00 1.251087e-03 -5.326004e-03 -6.051801e-02
Al -6.341633e+00 3.594546e+00 2.403257e+00 4.339623e-04 5.356090e-04 -2.298712e-03
Al -6.344038e+00 3.592819e+00 7.453412e+00 8.779325e-04 3.281711e-04 -1.578837e-04
Al -6.333025e+00 3.598377e+00 -2.691237e+00 -1.196118e-04 -2.337172e-03 -1.097874e-04
Al -3.160519e+00 -1.858995e+00 2.408696e+00 7.012854e-04 8.329462e-04 -3.316675e-03
Al -3.173310e+00 -1.868953e+00 7.462880e+00 -4.748593e-04 4.671130e-05 -1.775775e-04
Al -3.156530e+00 -1.865942e+00 -2.708308e+00 -1.700835e-03 1.741883e-03 -1.211057e-03
Al -1.629622e+00 8.887577e-01 2.409783e+00 6.924832e-03 -5.633411e-03 -4.784786e-03
Al -1.636187e+00 8.851720e-01 7.464136e+00 7.341569e-03 -3.270074e-03 -1.838915e-03
Al -1.629109e+00 8.879241e-01 -2.703704e+00 5.788854e-03 -3.569393e-03 -2.489374e-03
Al -3.203623e+00 3.594868e+00 2.407927e+00 4.684616e-03 1.348363e-03 -3.509496e-03
Al -3.200447e+00 3.596756e+00 7.455246e+00 5.102750e-03 2.160300e-03 -1.059855e-03
Al -3.193015e+00 3.603401e+00 -2.691818e+00 6.167010e-03 -4.123934e-04 -1.280593e-03
Al -2.782645e-02 -1.866882e+00 2.404803e+00 4.319046e-03 2.132464e-03 -3.611840e-03
Al -3.317072e-02 -1.860719e+00 7.461174e+00 6.597059e-03 9.032417e-04 -1.539635e-03
Al -2.611814e-02 -1.855779e+00 -2.694061e+00 5.935477e-03 2.900963e-03 -5.525915e-04
Al -1.983763e-02 1.782689e+00 4.935021e+00 -5.457771e-03 -2.878987e-03 -1.287237e-03
Al -1.151028e-02 1.783023e+00 -5.221511e+00 -5.740857e-03 -2.467200e-03 -5.140589e-04
Al -1.448480e-02 1.784105e+00 -1.971279e-01 -5.568744e-03 -2.668807e-03 1.462830e-02
Al 3.146352e+00 -3.685940e+00 4.940648e+00 -5.545961e-03 -2.642671e-03 -8.290370e-04
Al 3.160158e+00 -3.682223e+00 -5.223690e+00 -6.073936e-03 -9.564393e-04 -1.939123e-04
Al 3.154532e+00 -3.678352e+00 -1.568582e-01 -5.996571e-03 -2.683352e-03 2.002679e-03
Al 1.583564e+00 -9.726394e-01 4.940912e+00 -7.910469e-03 5.710174e-03 -1.271325e-03
Al 1.589616e+00 -9.599930e-01 -5.223309e+00 -6.364346e-03 3.990745e-03 -1.078015e-03
Al 1.582978e+00 -9.655533e-01 -1.593106e-01 -8.323960e-03 4.770830e-03 1.537604e-03
Al 3.115842e+00 1.781351e+00 4.935724e+00 4.041104e-04 -8.660570e-04 -1.660583e-04
Al 3.121098e+00 1.784230e+00 -5.224864e+00 4.779519e-04 -7.171329e-04 2.421870e-03
Al 3.131907e+00 1.781793e+00 -1.689089e-01 -1.331180e-03 6.409755e-04 -2.211490e-03
Al 6.281435e+00 -3.683196e+00 4.936355e+00 5.089225e-04 -5.091556e-05 4.339101e-04
Al 6.289745e+00 -3.678380e+00 -5.222838e+00 1.167856e-04 7.810039e-04 9.230770e-04
Al 6.291777e+00 -3.674621e+00 -1.568691e-01 -2.763126e-04 -4.905965e-05 2.786266e-03
Al 4.712071e+00 -9.675478e-01 4.938109e+00 -6.083012e-04 7.251305e-03 -1.257959e-03
Al 4.725520e+00 -9.607457e-01 -5.222983e+00 -1.540907e-03 5.996637e-03 5.936861e-04
Ga 4.721216e+00 -9.169689e-01 -2.174812e-01 1.061935e-03 3.124700e-03 1.326803e-02
Al -3.203484e+00 1.790848e+00 4.936718e+00 -4.330954e-04 -1.616553e-03 3.236328e-04
Al -3.189321e+00 1.789548e+00 -5.224581e+00 -3.945058e-04 -4.495214e-04 2.242649e-03
Al -3.202594e+00 1.791011e+00 -1.735136e-01 3.395965e-04 -5.324054e-04 -1.232272e-03
Al -3.028894e-02 -3.680312e+00 4.936353e+00 -5.391483e-04 -1.620105e-05 2.493374e-04
Ga -2.428987e-02 -3.671346e+00 -5.218436e+00 2.790909e-04 -3.450411e-05 8.404071e-04
Al -2.589296e-02 -3.670663e+00 -1.624173e-01 1.603984e-05 3.636628e-04 4.303282e-03
Ga -1.598867e+00 -9.619935e-01 4.942078e+00 -6.647355e-04 8.170328e-03 -1.623084e-03
Al -1.591665e+00 -9.505517e-01 -5.223265e+00 -1.778331e-03 5.886544e-03 -4.189350e-04
Al -1.590916e+00 -9.551738e-01 -1.605977e-01 -5.804884e-04 6.537781e-03 4.424070e-03
N 1.546907e+00 8.729132e-01 4.338623e+00 9.008668e-04 -6.589939e-03 -6.744863e-04
N 1.554223e+00 8.799839e-01 -5.820915e+00 8.204822e-05 -6.190230e-03 8.374718e-05
N 1.556540e+00 8.782527e-01 -7.788076e-01 7.867416e-04 -6.445064e-03 4.717588e-03
N -2.165192e-02 3.594654e+00 4.337939e+00 -1.022911e-03 3.090507e-04 -2.149169e-03
N -1.228603e-02 3.595951e+00 -5.820526e+00 -4.644458e-04 -7.316965e-04 -3.831512e-04
N -1.430652e-02 3.601524e+00 -7.757050e-01 -7.616297e-04 -1.174063e-04 1.975117e-03
N 3.141959e+00 -1.875320e+00 4.340289e+00 4.813076e-04 3.187111e-05 -3.185770e-03
N 3.155276e+00 -1.867359e+00 -5.821939e+00 -1.029249e-03 -1.025924e-05 -1.805809e-04
N 3.135357e+00 -1.872049e+00 -7.888324e-01 -9.798738e-03 -5.353098e-03 1.176886e-03
N -4.772147e+00 8.797572e-01 4.338862e+00 1.180937e-03 -5.567414e-03 1.453852e-03
N -4.763601e+00 8.844644e-01 -5.820789e+00 1.484388e-03 -5.907443e-03 4.854531e-04
N -4.770477e+00 9.221268e-01 -9.791854e-01 2.181000e-03 5.951217e-03 9.566614e-02
N -6.340942e+00 3.595022e+00 4.332891e+00 7.657818e-05 3.321007e-05 -1.642240e-03
N -6.349426e+00 3.589619e+00 -5.829045e+00 -9.508348e-03 -5.420870e-03 -4.764003e-03
N -6.333642e+00 3.598617e+00 -7.673295e-01 -5.110121e-05 4.268187e-04 3.500397e-03
N -3.186398e+00 -1.878359e+00 4.329931e+00 -1.071999e-02 -5.717776e-03 -5.338754e-03
N -3.163118e+00 -1.864050e+00 -5.818773e+00 6.944233e-04 2.905029e-04 4.180940e-04
N -3.147485e+00 -1.867190e+00 -7.875490e-01 9.430280e-03 -5.348269e-03 -4.679331e-04
N -1.635775e+00 9.072667e-01 4.332137e+00 6.866053e-03 5.782200e-03 -3.151517e-03
N -1.625698e+00 8.906178e-01 -5.816606e+00 8.020183e-03 -4.233322e-03 1.658576e-03
N -1.631331e+00 8.885955e-01 -7.791436e-01 6.757627e-03 -4.349242e-03 5.692627e-03
N -3.203130e+00 3.598351e+00 4.336338e+00 6.824538e-03 2.404353e-03 -1.314489e-03
N -3.174276e+00 3.594496e+00 -5.828035e+00 1.568269e-02 -3.379879e-03 -3.645834e-03
N -3.193284e+00 3.605496e+00 -7.694676e-01 5.963660e-03 2.475345e-03 4.500191e-03
N -1.383245e-02 -1.875217e+00 4.329183e+00 1.592472e-02 -3.298276e-03 -4.950058e-03
N -2.328831e-02 -1.836488e+00 -5.825228e+00 5.853015e-03 1.362149e-02 -2.900963e-03
N -2.754479e-02 -1.855220e+00 -7.694501e-01 5.917218e-03 1.674829e-03 3.153235e-03
N -1.794655e-02 1.781021e+00 1.825808e+00 -5.243235e-03 -2.128267e-03 -1.512650e-02
N -2.172463e-02 1.777550e+00 6.858917e+00 -5.948098e-03 -2.620426e-03 4.438288e-05
N -1.168235e-02 1.783430e+00 -3.299714e+00 -5.997586e-03 -2.481610e-03 2.544969e-03
N 3.144241e+00 -3.687384e+00 1.793809e+00 -3.920980e-03 8.164705e-04 -2.032976e-03
N 3.147125e+00 -3.686986e+00 6.858838e+00 -5.875118e-03 -1.370766e-03 3.556227e-05
N 3.153835e+00 -3.682159e+00 -3.303699e+00 -5.968715e-03 -2.128082e-03 2.044184e-03
N 1.578493e+00 -9.727616e-01 1.790631e+00 -4.646714e-03 4.995036e-03 -1.198548e-03
N 1.579486e+00 -9.699979e-01 6.860078e+00 -7.062432e-03 4.133631e-03 9.051877e-04
N 1.586317e+00 -9.652736e-01 -3.304284e+00 -7.936475e-03 4.096695e-03 2.874111e-03
N 3.118408e+00 1.776322e+00 1.794373e+00 3.373468e-03 -1.096913e-03 -8.422673e-03
N 3.114974e+00 1.781601e+00 6.856341e+00 -6.260659e-06 -8.020995e-04 -8.730852e-04
N 3.124054e+00 1.788496e+00 -3.304196e+00 -2.739719e-03 1.056272e-03 -3.790323e-03
N 6.281906e+00 -3.673612e+00 1.787207e+00 -1.173805e-04 3.982510e-04 -1.436404e-03
N 6.282923e+00 -3.681197e+00 6.857426e+00 -3.035141e-04 6.388888e-04 -9.785173e-04
N 6.295342e+00 -3.677572e+00 -3.302778e+00 -3.029876e-04 -2.306821e-04 8.434947e-04
N 4.766082e+00 -8.906235e-01 1.833424e+00 -1.823046e-02 -1.982002e-02 -7.723850e-03
N 4.716739e+00 -9.656963e-01 6.860059e+00 -1.376860e-03 5.824391e-03 -7.094855e-05
N 4.725696e+00 -9.626570e-01 -3.304582e+00 -1.416844e-03 3.317361e-03 -2.023491e-05
N -3.200859e+00 1.781934e+00 1.792253e+00 -1.987170e-03 1.172774e-03 -9.091249e-03
N -3.201863e+00 1.785730e+00 6.858458e+00 5.917646e-04 -8.215330e-04 -1.167740e-03
N -3.192601e+00 1.793045e+00 -3.304152e+00 3.096468e-03 1.122911e-03 -3.390846e-03
N -3.243092e-02 -3.680611e+00 1.794102e+00 6.660047e-04 4.181507e-04 -4.346328e-03
N -3.416144e-02 -3.677390e+00 6.860130e+00 3.118220e-04 5.818665e-04 -1.509609e-03
N -2.537147e-02 -3.671890e+00 -3.273124e+00 3.825621e-04 7.844982e-04 1.342657e-02
N -1.589850e+00 -9.610095e-01 1.798852e+00 -1.936149e-04 6.950281e-03 -4.359033e-03
N -1.601325e+00 -9.601277e-01 6.885524e+00 -1.188148e-03 6.350637e-03 1.238210e-02
N -1.589839e+00 -9.562232e-01 -3.303941e+00 -2.578880e-04 6.276784e-03 1.488391e-03
