108
Energy=-1443723.914739 Lattice="9.507551 0.000000 0.000000 -4.770799 8.225782 0.000000 -0.000327 0.002217 15.353578" Stress="-0.000033 -0.000010 0.000009 -0.000011 -0.000022 0.000003 0.000009 0.000003 -0.000029" Properties=species:S:1:pos:R:3:forces:R:3
Al 1.680074 0.957159 2.419785 -0.051335 -0.044456 0.012412
Al 1.546921 0.862417 7.548338 0.002693 0.005191 0.000057
Al 1.552907 0.881569 -2.743313 0.004156 0.000318 0.005247
Al -0.040351 3.590960 2.397366 -0.000817 -0.001830 0.005967
Al -0.027273 3.599489 7.585790 -0.001308 0.003700 -0.001997
Al -0.014829 3.632084 -2.693487 -0.001155 -0.007809 -0.027998
Al 3.242496 -1.917860 2.427897 -0.052210 -0.000874 -0.004041
Al 3.161243 -1.859024 7.522700 -0.002114 -0.002492 0.006332
Ga 3.162335 -1.884107 -2.722032 0.001940 0.001656 0.004053
Al -4.822456 0.892600 2.384056 0.010167 0.002829 0.011188
Ga -4.788107 0.872901 7.553156 -0.000989 -0.001410 0.001978
Ga -4.784344 0.894873 -2.741677 0.001797 -0.001682 0.000530
Ga -6.382354 3.589347 2.392446 0.005248 0.008626 0.006780
Al -6.387262 3.610595 7.563252 0.001491 -0.000912 0.002175
Al -6.375893 3.635366 -2.722965 0.002349 -0.003770 -0.023163
Ga -3.207611 -1.866430 2.423623 0.006737 -0.000813 0.002747
Al -3.171337 -1.886682 7.552981 -0.007625 0.004016 -0.002442
Al -3.173591 -1.866591 -2.750150 -0.000941 -0.000329 0.001402
Ga -1.638636 0.885900 2.424538 0.005225 -0.000812 0.003651
Al -1.622049 0.886670 7.519423 0.004811 -0.001730 0.006325
Ga -1.613773 0.908584 -2.722176 0.001300 -0.000916 0.001842
Al -3.201211 3.622348 2.388524 0.000269 -0.001704 0.004720
Ga -3.188514 3.619860 7.552414 0.000936 0.003764 0.004079
Al -3.207170 3.656816 -2.695056 0.001754 -0.008744 -0.010505
Al -0.020038 -1.857756 2.450063 0.006158 0.003036 -0.000714
Ga -0.027069 -1.843376 7.520473 0.004451 -0.001268 0.000536
Al -0.019075 -1.852121 -2.737968 0.000559 -0.002989 0.002139
Ga -0.024941 1.769180 4.995424 0.002547 0.000976 0.000256
Al -0.004730 1.794418 -5.251100 -0.009846 -0.001041 -0.010801
Ga -0.023553 1.804544 -0.123335 0.001362 -0.006416 -0.009800
Ga 3.146339 -3.693424 4.951607 -0.000018 0.002668 0.005827
Al 3.164391 -3.733140 -5.246491 0.000973 0.007916 -0.001489
Al 3.162552 -3.722925 -0.160834 -0.002175 0.005331 0.002253
Al 1.573256 -0.946128 4.951563 -0.003962 0.001636 -0.002909
Ga 1.591280 -0.954574 -5.273737 0.000360 0.000212 0.001672
Ga 1.578397 -0.960123 -0.112731 -0.003921 0.002011 0.007027
Al 3.138653 1.770241 5.015381 -0.003986 0.000663 0.001300
Al 3.135422 1.799773 -5.278978 0.002693 -0.001815 0.005726
Al 3.145484 1.778325 -0.195874 -0.003996 -0.003057 -0.004876
Ga 6.323637 -3.705260 5.009742 -0.001377 0.000134 0.002074
Al 6.321026 -3.705150 -5.265732 0.000914 0.000131 0.002545
Ga 6.320974 -3.723658 -0.215405 0.000012 0.003653 0.002424
Ga 4.719326 -0.922179 4.971320 -0.000932 0.002426 0.001163
Al 4.747169 -0.971221 -5.287260 -0.003001 -0.000327 0.003035
Ga 4.756188 -0.959425 -0.106661 -0.005534 0.001415 -0.011853
Al -3.194463 1.817934 5.040809 -0.010599 -0.008422 -0.028564
Al -3.204157 1.783964 -5.291558 0.000672 0.005101 0.011564
Al -3.205681 1.802818 -0.150856 -0.001207 -0.001392 -0.003071
Ga -0.025139 -3.710207 4.973471 0.000334 0.003911 -0.000440
Al -0.008578 -3.715016 -5.250018 -0.002003 0.003095 0.000914
Ga -0.009872 -3.719367 -0.183376 0.001014 0.007165 0.000454
Al -1.610675 -0.928309 4.998020 0.001191 -0.004717 0.000660
Ga -1.614292 -0.944566 -5.280701 -0.000953 0.004387 0.001257
Ga -1.597185 -0.956563 -0.141533 0.001593 0.001134 -0.011327
N 1.597729 0.859282 4.360230 0.004710 0.004869 -0.004021
N 1.560074 0.915165 -5.888114 0.000869 0.000164 -0.004892
N 1.581656 0.889367 -0.810189 0.003239 0.002167 -0.001598
N -0.034577 3.610230 4.328264 0.002048 -0.000218 -0.008660
N -0.024103 3.604992 -5.847293 -0.000371 0.001545 -0.004078
N -0.080756 3.626445 -0.860235 0.002204 0.001007 0.021471
N 3.107323 -1.837601 4.294644 0.005583 -0.006141 0.012068
N 3.193827 -1.889605 -5.903304 0.000836 -0.007779 0.000964
N 3.162133 -1.912101 -0.736795 0.002583 -0.004645 0.000501
N -4.818382 0.955460 4.327356 0.012863 -0.003137 0.002844
N -4.773485 0.858617 -5.819213 -0.005088 0.004774 -0.003246
N -4.782534 0.907002 -0.752534 0.003655 0.001183 0.004439
N -6.384243 3.547312 4.383734 -0.001116 0.003028 -0.005796
N -6.366857 3.615058 -5.862301 0.001248 0.001485 -0.001938
N -6.362567 3.552319 -0.885136 -0.000582 0.000939 0.028159
N -3.159574 -1.843297 4.395908 0.001942 -0.000555 -0.002045
N -3.215806 -1.893069 -5.891384 -0.000642 -0.003863 -0.002838
N -3.179895 -1.869633 -0.836994 -0.001755 -0.000630 0.003362
N -1.668055 0.866229 4.420202 -0.000796 0.000218 -0.004779
N -1.644102 0.935397 -5.919814 0.012531 -0.002345 0.003179
N -1.651741 0.906916 -0.740990 -0.000779 0.000729 -0.000666
N -3.205961 3.569427 4.324404 0.000913 0.001870 -0.004275
N -3.196137 3.611013 -5.820160 -0.002297 0.001522 -0.003944
N -3.152308 3.595465 -0.793979 -0.001396 -0.000854 0.003718
N -0.033816 -1.819797 4.373832 -0.001854 -0.000188 0.001010
N -0.017597 -1.892190 -5.870187 0.001346 -0.008088 0.000800
N -0.013475 -1.861904 -0.827435 0.000675 -0.003900 -0.001484
N 0.016277 1.781856 1.822195 0.006887 0.006667 0.010261
N -0.026804 1.777264 6.984413 -0.000907 0.003556 -0.001060
N 0.022327 1.795329 -3.375328 -0.001635 0.008387 0.011129
N 3.171815 -3.729862 1.788760 0.000021 0.001024 -0.003552
N 3.196001 -3.665181 6.941190 0.003006 -0.004703 0.001173
N 3.161056 -3.748774 -3.328589 0.000585 0.000997 -0.004079
N 1.547799 -0.968048 1.901865 0.018539 0.008575 -0.008193
N 1.614777 -0.917670 6.892855 -0.000688 -0.004710 -0.002642
N 1.550029 -0.938135 -3.307342 -0.002914 0.002453 0.001346
N 3.123283 1.742286 1.731853 0.025435 0.015343 -0.012008
N 3.097859 1.802777 6.939500 0.000318 0.002634 -0.003324
N 3.105164 1.816297 -3.352887 -0.003238 0.001622 -0.003978
N 6.271509 -3.723956 1.777845 0.001106 -0.000608 -0.002463
N 6.318084 -3.709453 6.998086 0.000458 0.000476 -0.000573
N 6.328713 -3.685317 -3.331379 -0.001049 -0.000753 -0.001093
N 4.647065 -0.938693 1.866954 0.029498 0.012448 -0.009643
N 4.728457 -0.990161 6.950143 0.007518 -0.001919 -0.000753
N 4.781256 -0.974864 -3.370100 -0.000542 0.000375 -0.001994
N -3.246799 1.810695 1.766715 -0.005226 0.000248 -0.000310
N -3.162782 1.771428 6.883494 -0.003432 0.002441 0.011715
N -3.195309 1.859103 -3.368098 -0.001538 0.000875 -0.000729
N 0.013932 -3.661887 1.807309 -0.002754 -0.004645 0.003330
N -0.050275 -3.715886 6.946312 -0.003881 -0.002646 -0.001651
N -0.014435 -3.681125 -3.322483 -0.000421 0.000453 -0.000015
N -1.570545 -0.972871 1.791147 -0.005346 -0.002736 0.012641
N -1.644940 -0.916478 6.918416 -0.003511 -0.002927 -0.001946
N -1.599201 -0.970604 -3.314658 -0.000560 -0.001451 0.001836
