108
Energy=-1.993030e+06 Lattice="9.605243e+00 0.000000e+00 0.000000e+00 -4.818961e+00 8.290419e+00 0.000000e+00 2.788759e-01 -1.666967e-01 1.557220e+01" Stress="5.570254e-03 -8.678774e-05 1.111933e-02 -9.046496e-05 1.184437e-03 -6.879476e-03 1.114785e-02 -6.880561e-03 6.102981e-03" Properties=species:S:1:pos:R:3:forces:R:3 Config_type=AlGaN_super3_34_1_5.xyz
Al 1.667690e+00 8.219731e-01 2.429635e+00 4.640628e-04 3.925987e-03 3.019638e-03
Al 1.730853e+00 8.009333e-01 7.642930e+00 -4.075353e-04 3.272020e-03 3.081361e-03
Ga 1.505582e+00 9.232472e-01 -2.734060e+00 1.325425e-03 9.621863e-04 7.302534e-04
Al -3.223381e-02 3.552713e+00 2.422919e+00 2.297333e-02 1.492959e-02 -5.777691e-03
Al 1.176486e-01 3.563761e+00 7.613541e+00 -9.431957e-04 -3.131441e-04 3.502081e-03
Ga -9.994645e-02 3.702162e+00 -2.698353e+00 9.080420e-05 -1.173039e-04 1.675570e-03
Al 3.272574e+00 -1.943324e+00 2.452712e+00 9.240145e-04 3.525974e-04 1.879426e-04
Ga 3.351428e+00 -1.960256e+00 7.607207e+00 -1.051387e-04 -4.764424e-04 2.920643e-03
Ga 3.107553e+00 -1.837575e+00 -2.702171e+00 7.016437e-04 1.344764e-04 1.839610e-03
Ga -4.750172e+00 8.424155e-01 2.439985e+00 -1.392866e-03 -6.826623e-04 1.821223e-03
Al -4.690282e+00 7.855872e-01 7.612681e+00 5.328772e-04 2.898906e-03 3.062479e-03
Al -4.911787e+00 9.279778e-01 -2.719631e+00 -1.272243e-03 1.908599e-03 3.530720e-03
Ga -6.369720e+00 3.602073e+00 2.409764e+00 -4.469522e-03 2.660726e-03 3.598691e-03
Ga -6.304784e+00 3.547084e+00 7.646426e+00 1.444990e-04 4.510684e-04 1.383050e-03
Al -6.515355e+00 3.689463e+00 -2.736181e+00 1.186981e-04 -8.476617e-04 1.157739e-03
Ga -3.145146e+00 -1.921439e+00 2.411304e+00 -2.141254e-03 -3.825257e-03 2.875755e-03
Al -3.090631e+00 -1.958263e+00 7.624392e+00 -5.644661e-04 -1.822653e-04 2.307461e-03
Al -3.282565e+00 -1.838716e+00 -2.702915e+00 -1.490129e-03 -1.425281e-04 3.249250e-03
Ga -1.559606e+00 8.529683e-01 2.408344e+00 -1.781303e-03 -1.399840e-03 5.411856e-03
Ga -1.495430e+00 8.056175e-01 7.625642e+00 9.590280e-04 1.005885e-03 1.024737e-03
Ga -1.729573e+00 9.095344e-01 -2.699727e+00 1.081218e-03 7.174836e-04 -3.798442e-04
Al -3.136690e+00 3.607942e+00 2.423669e+00 -5.648487e-03 -1.433516e-03 1.934781e-03
Ga -3.079651e+00 3.555978e+00 7.612480e+00 -1.447948e-04 -1.917634e-04 2.694566e-03
Ga -3.321464e+00 3.687308e+00 -2.684026e+00 -6.691112e-05 -2.930383e-04 1.490420e-03
Ga 7.314928e-02 -1.906547e+00 2.407805e+00 -2.621847e-03 -5.635984e-04 5.688527e-03
Ga 1.209662e-01 -1.949946e+00 7.636501e+00 5.641478e-05 -1.074356e-03 1.750140e-03
Al -1.118754e-01 -1.835797e+00 -2.712008e+00 -6.444734e-04 -2.089922e-03 1.426675e-03
Ga 8.664837e-02 1.750793e+00 5.018745e+00 -4.823608e-04 -5.071012e-04 2.928090e-03
Ga -1.243247e-01 1.867229e+00 -5.346721e+00 -9.161709e-04 1.842259e-03 2.139648e-03
Ga -8.710198e-02 1.829994e+00 -1.266082e-01 3.478137e-03 -9.242877e-04 -5.898683e-03
Al 3.312462e+00 -3.798523e+00 4.995555e+00 -2.853652e-03 2.695964e-03 4.100528e-03
Ga 3.084339e+00 -3.669374e+00 -5.336132e+00 2.529645e-04 1.252980e-03 3.056382e-03
Al 3.156179e+00 -3.718585e+00 -8.159023e-02 -9.841258e-04 2.264416e-03 -1.322872e-02
Ga 1.719992e+00 -1.027035e+00 5.024109e+00 -1.748139e-03 1.472982e-03 1.520771e-03
Ga 1.481295e+00 -8.940479e-01 -5.323207e+00 -1.116186e-03 1.491376e-03 9.420632e-04
Ga 1.528969e+00 -9.501560e-01 -9.109636e-02 3.545408e-03 -6.428070e-04 -1.728563e-02
Ga 3.298351e+00 1.721793e+00 5.035993e+00 -2.254050e-03 1.378867e-03 2.373522e-03
Al 3.073568e+00 1.856417e+00 -5.338984e+00 -1.237700e-03 2.538255e-04 2.804006e-03
Ga 3.128270e+00 1.829783e+00 -1.199302e-01 3.175690e-03 -4.046814e-04 -1.890578e-02
Ga 6.475393e+00 -3.776893e+00 5.037200e+00 1.320813e-03 3.580552e-04 3.118897e-04
Ga 6.277302e+00 -3.660726e+00 -5.332225e+00 -1.049310e-03 7.724745e-04 2.138685e-03
Al 6.358953e+00 -3.695894e+00 -1.399517e-01 -1.241356e-03 4.345029e-04 -1.310760e-02
Al 4.910720e+00 -1.020340e+00 5.033602e+00 -3.152686e-03 -1.131699e-03 1.329515e-03
Ga 4.682697e+00 -8.814582e-01 -5.323079e+00 -8.748785e-04 5.830480e-05 2.041790e-03
Ga 4.752402e+00 -9.458241e-01 -1.234052e-01 1.746694e-03 -4.723955e-04 -1.321582e-02
Al -3.115620e+00 1.742905e+00 5.019260e+00 -2.578178e-03 1.834184e-03 3.636824e-03
Ga -3.362989e+00 1.863986e+00 -5.329626e+00 -1.044211e-03 5.194521e-04 3.252921e-03
Al -3.263921e+00 1.819098e+00 -1.144455e-01 -3.899182e-03 7.597002e-04 -1.615967e-02
Ga 1.175262e-01 -3.794760e+00 5.013027e+00 -2.232434e-03 3.735876e-04 1.327809e-03
Ga -1.267432e-01 -3.664431e+00 -5.299958e+00 -1.154278e-03 5.193022e-04 1.823299e-03
Ga -6.780997e-02 -3.700692e+00 -1.272200e-01 2.878281e-03 -1.969924e-03 -1.415541e-02
Ga -1.522296e+00 -1.015045e+00 5.035819e+00 -1.150451e-03 -3.930208e-04 2.358356e-03
Ga -1.734495e+00 -9.009701e-01 -5.316738e+00 -2.447945e-03 -1.213159e-04 2.706074e-03
Al -1.659608e+00 -9.452327e-01 -1.386555e-01 -3.370864e-03 -2.043985e-03 -1.656999e-02
N 1.682828e+00 8.204122e-01 4.342331e+00 1.933651e-03 8.326212e-04 -6.881541e-04
N 1.501830e+00 9.699821e-01 -5.991361e+00 2.076155e-03 -1.302729e-04 -1.656488e-03
N 1.516163e+00 9.036089e-01 -7.614094e-01 2.501902e-03 -8.470933e-04 -6.535132e-04
N 4.082335e-02 3.613341e+00 4.340872e+00 -1.128966e-03 -3.284583e-03 -1.458487e-03
N -1.464269e-01 3.715140e+00 -6.025942e+00 1.740428e-03 -6.042193e-04 -3.122728e-03
N -8.456458e-02 3.719569e+00 -7.034109e-01 3.588184e-03 -8.843191e-04 -1.856805e-03
N 3.340532e+00 -1.966041e+00 4.390768e+00 1.912021e-03 -8.647194e-04 -9.409695e-04
N 3.077276e+00 -1.813681e+00 -5.969976e+00 1.555316e-03 -5.040518e-04 -2.389335e-03
N 3.128081e+00 -1.909673e+00 -7.147718e-01 2.227260e-03 -2.109779e-03 -2.600345e-03
N -4.676647e+00 7.963775e-01 4.431415e+00 1.194023e-03 1.428918e-03 -2.105629e-03
N -4.986921e+00 9.699525e-01 -6.014411e+00 1.345964e-03 -2.963424e-04 -3.020016e-03
N -4.847595e+00 9.341347e-01 -7.825827e-01 4.004683e-03 -5.503826e-04 -3.065256e-03
N -6.336365e+00 3.586852e+00 4.398622e+00 4.294188e-04 -6.529696e-04 -8.731647e-04
N -6.545687e+00 3.664669e+00 -5.934369e+00 2.087948e-04 1.626833e-04 -1.660398e-03
N -6.524655e+00 3.686565e+00 -8.051290e-01 2.045328e-03 -8.320312e-04 -1.377922e-03
N -3.149380e+00 -1.915296e+00 4.401752e+00 7.058034e-04 -6.546884e-04 -1.692195e-03
N -3.338129e+00 -1.807919e+00 -6.016885e+00 9.299937e-04 -9.872056e-04 -2.224848e-03
N -3.226246e+00 -1.877640e+00 -7.638591e-01 1.707340e-03 -1.389467e-04 -5.271139e-03
N -1.564712e+00 8.488082e-01 4.409876e+00 1.715963e-03 5.341863e-04 -2.780863e-03
N -1.752453e+00 9.534160e-01 -5.959101e+00 1.429757e-03 -4.918833e-04 -2.425055e-03
N -1.723298e+00 8.816259e-01 -7.089330e-01 2.656900e-03 -3.075112e-04 -2.538781e-03
N -3.078093e+00 3.564322e+00 4.368909e+00 1.030663e-03 -2.178596e-03 -2.642204e-03
N -3.347821e+00 3.717666e+00 -5.966413e+00 -2.414533e-04 -1.278382e-03 -3.538769e-03
N -3.230735e+00 3.650502e+00 -6.887705e-01 7.008234e-04 -1.882095e-03 -5.559499e-03
N 8.733275e-02 -1.927158e+00 4.391869e+00 6.918727e-04 -1.321235e-03 -1.218753e-03
N -1.332702e-01 -1.809574e+00 -5.955532e+00 8.548657e-04 -2.011104e-03 -1.962885e-03
N -1.065643e-01 -1.826820e+00 -7.878941e-01 2.791176e-03 -1.951695e-03 8.559354e-04
N 1.010352e-01 1.737024e+00 1.833872e+00 -7.090710e-03 1.032209e-02 7.230635e-03
N 1.628831e-01 1.739423e+00 7.027141e+00 -4.181422e-04 6.256027e-04 -2.046217e-03
N -1.169864e-01 1.847748e+00 -3.354743e+00 -3.426184e-04 4.670590e-04 -8.765428e-04
N 3.233070e+00 -3.768595e+00 1.805297e+00 3.418835e-03 5.684910e-04 1.387325e-02
N 3.370433e+00 -3.831705e+00 6.940237e+00 9.383199e-04 -1.977572e-04 -3.333931e-03
N 3.103828e+00 -3.685668e+00 -3.352376e+00 3.416893e-04 2.279438e-05 -3.046942e-03
N 1.724161e+00 -9.806893e-01 1.838095e+00 -5.287506e-03 -1.649215e-03 1.263479e-02
N 1.730612e+00 -9.880892e-01 7.016521e+00 -5.458612e-04 -2.777678e-03 -2.836551e-03
N 1.455507e+00 -9.473174e-01 -3.334190e+00 1.500437e-03 1.238406e-04 -2.445142e-03
N 3.216252e+00 1.732935e+00 1.793020e+00 -3.178154e-03 1.827858e-03 1.894319e-02
N 3.312163e+00 1.668091e+00 7.029582e+00 8.083912e-04 2.178784e-04 -1.880860e-03
N 3.131495e+00 1.864405e+00 -3.385215e+00 1.463678e-03 4.358683e-04 -2.432180e-03
N 6.439376e+00 -3.755032e+00 1.720891e+00 -1.374971e-02 -1.302931e-02 2.287766e-02
N 6.486035e+00 -3.781940e+00 7.036354e+00 2.167871e-04 4.914754e-04 -2.695434e-03
N 6.338041e+00 -3.649753e+00 -3.326001e+00 1.423072e-03 -5.602708e-04 -2.317956e-03
N 4.820784e+00 -1.024495e+00 1.814021e+00 -4.893447e-03 1.855465e-03 1.165955e-02
N 4.968432e+00 -1.011243e+00 6.975652e+00 4.825894e-04 -2.742391e-03 -3.526918e-03
N 4.746229e+00 -8.854969e-01 -3.310332e+00 7.422030e-04 -3.056777e-03 -2.172347e-03
N -3.172368e+00 1.814271e+00 1.751479e+00 8.348977e-04 1.171556e-03 1.735309e-02
N -3.132978e+00 1.700421e+00 6.954994e+00 -7.115992e-04 -2.172732e-04 -2.020633e-03
N -3.359141e+00 1.825270e+00 -3.334348e+00 5.745680e-04 7.545008e-04 -2.805647e-03
N 1.058600e-01 -3.783358e+00 1.808630e+00 -4.380253e-03 1.520813e-03 1.193517e-02
N 1.233221e-01 -3.805194e+00 6.996698e+00 -4.203838e-04 -2.176988e-04 -2.137915e-03
N -1.349260e-01 -3.653393e+00 -3.300123e+00 6.417018e-05 -6.150027e-04 -1.405093e-03
N -1.555260e+00 -9.879257e-01 1.721515e+00 2.095071e-03 -1.136583e-03 1.689495e-02
N -1.521449e+00 -1.062433e+00 7.018394e+00 -7.450526e-04 -8.611644e-04 -1.833758e-03
N -1.705099e+00 -9.613142e-01 -3.316588e+00 -3.681856e-05 -7.957149e-04 -2.592471e-03
