108
Energy=-1077520.892073 Lattice="9.471734 0.000000 0.000000 -4.737829 8.199707 0.000000 0.000205 0.002187 15.259970" Stress="0.000000 -0.000001 -0.000000 -0.000001 -0.000002 0.000001 -0.000000 0.000001 0.000003" Properties=species:S:1:pos:R:3:forces:R:3
Al 1.555434 0.866951 2.373711 -0.000015 -0.000093 0.000041
Al 1.551321 0.857941 7.485068 0.000044 -0.000012 0.000054
Al 1.557952 0.857449 -2.682492 -0.000134 0.000030 0.000093
Al -0.011804 3.600678 2.381530 -0.000039 0.000116 0.000027
Al -0.026491 3.607062 7.490221 0.000071 0.000042 -0.000032
Al -0.037705 3.604159 -2.687140 -0.000043 -0.000010 0.000005
Al 3.130350 -1.846790 2.379737 -0.000113 -0.000086 0.000129
Al 3.132140 -1.853161 7.497034 0.000016 -0.000035 0.000118
Al 3.126434 -1.861521 -2.702733 -0.000099 -0.000026 -0.000030
Al -4.781326 0.862446 2.386083 0.000109 -0.000263 -0.000125
Al -4.762172 0.857510 7.502740 0.000153 -0.000022 -0.000021
Al -4.773514 0.861717 -2.698166 -0.000170 0.000036 0.000175
Al -6.345652 3.601064 2.367480 0.000117 0.000385 0.000176
Ga -6.344534 3.605844 7.514441 -0.000143 0.000016 -0.000063
Ga -6.333825 3.594508 -2.696525 -0.000052 0.000047 0.000030
Ga -3.193985 -1.869249 2.406364 -0.000040 0.000112 -0.000059
Al -3.183868 -1.854290 7.480825 0.000004 -0.000034 -0.000039
Ga -3.190393 -1.854805 -2.700836 0.000004 0.000111 0.000139
Ga -1.581479 0.878473 2.414358 0.000258 0.000087 0.000090
Al -1.593702 0.866305 7.478213 0.000039 -0.000054 -0.000007
Al -1.591884 0.872725 -2.696953 0.000002 0.000089 0.000040
Ga -3.183023 3.622697 2.373499 0.000188 -0.000034 -0.000142
Al -3.170445 3.612864 7.513963 0.000001 -0.000108 0.000052
Al -3.170586 3.619917 -2.693341 0.000107 -0.000034 -0.000033
Al -0.003671 -1.857634 2.397860 -0.000042 -0.000196 -0.000106
Al -0.014308 -1.843506 7.500114 -0.000001 -0.000029 0.000069
Al -0.003171 -1.854652 -2.711251 0.000085 0.000011 -0.000052
Al -0.007796 1.782018 4.954662 0.000032 0.000014 -0.000012
Ga -0.008825 1.781988 -5.228935 -0.000048 0.000098 0.000057
Al -0.006072 1.793575 -0.169423 0.000095 -0.000065 -0.000186
Ga 3.158439 -3.668750 4.953098 -0.000071 0.000113 0.000045
Al 3.139986 -3.667877 -5.233307 -0.000072 -0.000027 0.000049
Al 3.148686 -3.668936 -0.165669 0.000062 0.000021 -0.000084
Al 1.553035 -0.941961 4.938451 0.000015 0.000050 -0.000011
Al 1.562493 -0.956769 -5.232370 -0.000016 0.000072 0.000178
Al 1.566348 -0.953986 -0.163128 -0.000103 0.000028 -0.000033
Ga 3.118360 1.772781 4.926894 0.000019 0.000025 -0.000032
Al 3.129518 1.766714 -5.229052 0.000041 0.000021 0.000050
Al 3.124988 1.774579 -0.143426 -0.000032 -0.000075 -0.000126
Al 6.284727 -3.681862 4.941778 -0.000037 -0.000014 0.000168
Al 6.285779 -3.675699 -5.238386 0.000099 0.000032 -0.000036
Al 6.281833 -3.697751 -0.146056 0.000048 -0.000011 0.000097
Al 4.708413 -0.955486 4.956418 -0.000028 0.000071 0.000067
Al 4.704380 -0.959206 -5.246509 0.000029 -0.000030 0.000037
Al 4.688844 -0.954535 -0.156984 0.000010 0.000059 0.000047
Ga -3.182277 1.766292 4.972074 -0.000019 0.000119 0.000073
Ga -3.190101 1.780902 -5.225641 0.000085 -0.000048 -0.000019
Ga -3.190354 1.784575 -0.175962 0.000075 -0.000065 -0.000066
Ga -0.035655 -3.660182 4.953747 0.000066 -0.000099 0.000042
Al -0.016488 -3.669055 -5.231661 -0.000040 -0.000005 0.000021
Al -0.020550 -3.671877 -0.158911 -0.000043 0.000017 0.000046
Al -1.593016 -0.957087 4.961410 -0.000007 0.000000 0.000044
Al -1.597242 -0.964809 -5.245545 -0.000083 -0.000030 -0.000068
Ga -1.585135 -0.960515 -0.154131 -0.000072 0.000055 0.000120
N 1.508225 0.846026 4.296667 -0.000038 -0.000056 0.000027
N 1.594401 0.840932 -5.863499 -0.000053 0.000008 -0.000024
N 1.560184 0.867043 -0.759317 0.000065 0.000037 0.000073
N 0.017139 3.577754 4.306803 0.000053 0.000039 -0.000064
N -0.024160 3.649073 -5.860081 -0.000014 -0.000029 -0.000016
N -0.024025 3.609116 -0.770080 -0.000065 -0.000012 0.000069
N 3.133604 -1.809297 4.306931 0.000071 0.000014 -0.000011
N 3.131382 -1.860038 -5.842794 -0.000075 -0.000081 -0.000123
N 3.133391 -1.860629 -0.778958 -0.000107 -0.000016 -0.000036
N -4.758877 0.820461 4.296151 -0.000072 -0.000080 0.000082
N -4.801227 0.844213 -5.851802 -0.000041 -0.000001 0.000040
N -4.811467 0.843673 -0.785774 0.000111 -0.000013 -0.000198
N -6.378746 3.631328 4.288853 -0.000142 0.000024 -0.000188
N -6.338827 3.602383 -5.767848 -0.000009 0.000025 0.000066
N -6.337399 3.601945 -0.709746 -0.000048 0.000021 0.000072
N -3.182554 -1.858460 4.395269 -0.000035 -0.000084 -0.000108
N -3.180091 -1.861244 -5.848365 0.000015 0.000089 -0.000020
N -3.223376 -1.885758 -0.724620 -0.000141 0.000001 -0.000103
N -1.556579 0.851523 4.391989 0.000020 -0.000049 -0.000029
N -1.598153 0.825344 -5.872782 0.000174 -0.000036 -0.000074
N -1.557184 0.891428 -0.794124 0.000119 0.000012 -0.000048
N -3.179273 3.608683 4.336675 -0.000003 -0.000038 -0.000122
N -3.177105 3.652841 -5.837944 0.000124 0.000030 0.000037
N -3.177342 3.661570 -0.774880 -0.000044 0.000034 0.000064
N -0.018167 -1.810137 4.313994 0.000005 0.000083 0.000046
N -0.017380 -1.855722 -5.840610 0.000120 -0.000100 -0.000034
N 0.025140 -1.882405 -0.798815 -0.000023 -0.000067 -0.000010
N 0.018575 1.808402 1.748795 -0.000024 -0.000171 -0.000009
N -0.015061 1.787415 6.881471 -0.000010 0.000052 -0.000007
N -0.015840 1.783316 -3.250040 0.000094 -0.000062 0.000058
N 3.185685 -3.653260 1.758091 -0.000027 -0.000034 0.000059
N 3.138401 -3.677557 6.932272 0.000030 -0.000007 0.000040
N 3.139353 -3.682038 -3.306753 0.000028 0.000025 -0.000020
N 1.556571 -0.952452 1.765085 -0.000109 0.000044 -0.000043
N 1.558000 -0.952308 6.867691 -0.000135 0.000134 -0.000212
N 1.560526 -0.948129 -3.310493 -0.000113 0.000144 0.000006
N 3.131938 1.778316 1.783143 -0.000042 0.000142 -0.000164
N 3.133444 1.737040 6.903125 0.000050 0.000020 0.000055
N 3.127056 1.729044 -3.318326 0.000168 0.000073 -0.000139
N 6.288207 -3.727100 1.763786 0.000022 -0.000182 -0.000085
N 6.252755 -3.662938 6.861129 -0.000013 0.000005 -0.000092
N 6.247233 -3.708620 -3.334659 0.000018 -0.000045 0.000097
N 4.670123 -0.928048 1.755911 0.000046 0.000117 0.000094
N 4.708331 -0.950011 6.881335 -0.000083 -0.000044 -0.000044
N 4.668120 -0.930061 -3.333745 0.000040 -0.000065 -0.000005
N -3.219589 1.755196 1.794398 -0.000129 -0.000039 0.000006
N -3.186454 1.785277 6.953246 0.000059 -0.000006 -0.000028
N -3.184320 1.782931 -3.238594 0.000075 0.000022 -0.000016
N -0.064391 -3.650158 1.758240 -0.000055 0.000056 0.000017
N 0.015923 -3.655515 6.927028 0.000083 -0.000048 0.000025
N 0.020966 -3.659185 -3.320164 -0.000084 -0.000010 -0.000059
N -1.559817 -0.973166 1.809273 -0.000115 -0.000102 0.000036
N -1.596134 -0.956840 6.883699 -0.000018 -0.000041 0.000054
N -1.560051 -0.929578 -3.326048 -0.000030 -0.000107 0.000012
