108
Energy=-1260622.515087 Lattice="9.484042 0.000000 0.000000 -4.749529 8.210278 0.000000 0.000638 0.001490 15.309057" Stress="-0.000030 0.000004 -0.000003 0.000004 -0.000027 -0.000001 -0.000003 -0.000001 0.000002" Properties=species:S:1:pos:R:3:forces:R:3
Al 1.583113 0.872585 2.423599 -0.013847 -0.000037 0.004953
Al 1.552868 0.866473 7.515821 0.000602 0.004388 0.001481
Al 1.552331 0.865853 -2.737522 0.001291 -0.001585 0.000491
Al -0.015567 3.591246 2.446318 -0.006047 0.007070 -0.003048
Al -0.026834 3.595948 7.516001 0.002384 -0.000632 -0.000389
Al -0.012314 3.581077 -2.700021 -0.002889 0.007246 -0.009357
Al 3.040784 -1.831310 2.322133 0.053963 -0.014470 0.025739
Al 3.137236 -1.881565 7.536890 0.005209 0.006360 0.000669
Ga 3.143759 -1.859243 -2.742887 -0.000129 -0.000237 0.002780
Al -4.795214 0.888899 2.429937 0.016847 -0.007825 0.001101
Al -4.786164 0.875078 7.505529 0.000359 0.001472 -0.000679
Al -4.783912 0.873480 -2.718275 0.000830 -0.001332 0.001207
Ga -6.356871 3.578768 2.444696 -0.000732 0.004697 0.001100
Al -6.357638 3.601109 7.514544 -0.000547 -0.000367 -0.001652
Ga -6.362102 3.602270 -2.735586 0.001417 -0.000262 0.001531
Ga -3.191582 -1.875522 2.409115 -0.003310 0.001909 0.001479
Ga -3.182902 -1.864441 7.515309 0.000847 0.000269 -0.001206
Ga -3.183346 -1.869653 -2.719396 -0.001067 0.000268 0.001023
Ga -1.605034 0.894254 2.415304 -0.000439 -0.001497 0.000097
Al -1.600417 0.886159 7.490640 0.001169 -0.001454 -0.001126
Ga -1.602732 0.887140 -2.694263 0.000914 -0.000614 0.001320
Al -3.176312 3.609905 2.451014 0.000990 -0.003299 -0.001677
Ga -3.192888 3.628136 7.507957 0.000232 -0.002531 -0.001396
Ga -3.191884 3.620325 -2.730793 0.001358 0.000663 0.001718
Ga 0.005096 -1.863667 2.422743 -0.007210 -0.000105 0.002165
Al -0.005390 -1.853778 7.507155 -0.004730 -0.000106 -0.000918
Al -0.007708 -1.852106 -2.717397 0.001721 0.000254 -0.000131
Al -0.022000 1.794196 4.981943 -0.001279 -0.002984 -0.000307
Al -0.015894 1.798636 -5.268335 0.001311 -0.000757 -0.000052
Al -0.012013 1.772637 -0.165925 -0.001656 0.000623 0.007625
Al 3.149849 -3.710938 4.969583 -0.000913 0.010309 -0.007111
Al 3.163539 -3.683812 -5.266421 0.002913 0.001659 -0.001163
Ga 3.170155 -3.710475 -0.123995 -0.002667 0.000805 -0.000402
Ga 1.580654 -0.954755 4.984716 -0.001352 0.002011 0.000709
Al 1.568750 -0.954320 -5.287154 -0.000862 0.000899 0.001965
Al 1.567467 -0.949300 -0.173045 -0.002296 0.001478 0.000166
Al 3.129229 1.800821 4.993077 0.001026 -0.002125 -0.001154
Al 3.122479 1.776323 -5.281222 0.000495 -0.000375 0.001553
Ga 3.127568 1.759054 -0.136514 0.001378 0.000546 -0.001108
Al 6.294225 -3.707823 4.994152 0.002031 0.004152 -0.001373
Al 6.299156 -3.713656 -5.276697 -0.001529 0.004498 -0.001250
Al 6.293317 -3.695790 -0.161422 0.000027 0.000913 0.006678
Ga 4.719627 -0.949207 4.964790 -0.000391 0.001636 -0.002422
Al 4.711987 -0.945956 -5.276884 -0.000316 0.000220 0.000793
Al 4.735649 -0.946795 -0.164150 0.000117 0.001442 0.009125
Al -3.197554 1.794987 4.977477 0.000015 -0.001990 -0.001250
Ga -3.196801 1.793175 -5.284067 -0.000138 -0.001752 0.002188
Al -3.195963 1.777493 -0.152477 -0.000148 0.000288 0.007339
Al -0.031872 -3.688121 4.986136 0.000400 -0.000865 -0.001769
Al -0.028110 -3.677157 -5.286251 0.001583 0.000206 0.005513
Ga -0.020989 -3.673043 -0.147839 0.001118 -0.002359 0.002284
Al -1.593105 -0.944784 4.987026 -0.002112 0.001389 -0.000333
Ga -1.581009 -0.949515 -5.272528 -0.001725 0.000699 0.001624
Al -1.595260 -0.948374 -0.173919 -0.001842 0.000678 0.005954
N 1.554093 0.922434 4.354008 0.000111 -0.000963 -0.002127
N 1.546320 0.874574 -5.872710 0.000944 -0.000304 -0.000008
N 1.520836 0.843961 -0.805207 -0.000889 -0.001603 -0.000711
N -0.021260 3.596529 4.368652 -0.001138 0.002008 -0.000952
N -0.025200 3.605396 -5.878846 -0.000090 -0.000290 -0.002114
N 0.017950 3.573716 -0.797149 0.000643 -0.000521 0.000569
N 3.146700 -1.881393 4.284875 -0.004849 -0.011773 -0.000912
N 3.148486 -1.868669 -5.854643 -0.000896 -0.000210 -0.001990
N 3.152738 -1.838733 -0.751726 -0.001071 0.003053 0.003300
N -4.776520 0.928292 4.350746 0.000282 0.001776 -0.000530
N -4.811674 0.858001 -5.899985 -0.000698 -0.000446 0.000002
N -4.737060 0.851806 -0.791898 0.001460 -0.000427 -0.002475
N -6.357329 3.612129 4.420779 -0.000019 0.000030 0.001380
N -6.347553 3.603307 -5.870738 0.000627 -0.000017 -0.000371
N -6.384865 3.621725 -0.757277 -0.001560 -0.000274 0.001014
N -3.136739 -1.883098 4.394637 0.000620 -0.004655 0.001894
N -3.213514 -1.879445 -5.830952 -0.000649 -0.004044 0.001194
N -3.180570 -1.872317 -0.730629 0.000688 -0.000689 0.001116
N -1.612287 0.883481 4.406848 0.002041 -0.000494 0.001554
N -1.565576 0.908083 -5.909722 0.000675 -0.000397 -0.000481
N -1.612463 0.884217 -0.711469 0.002603 -0.000997 0.001214
N -3.198896 3.609116 4.381185 0.002570 0.002236 0.000717
N -3.169695 3.670604 -5.836550 -0.006457 -0.000401 -0.000519
N -3.184725 3.574251 -0.759591 0.000683 -0.002021 -0.000313
N -0.053118 -1.877721 4.395185 0.001110 -0.000625 0.000646
N 0.016989 -1.882967 -5.897957 0.002657 -0.001098 -0.001427
N -0.013746 -1.819805 -0.795161 0.001838 0.002039 0.001014
N 0.025585 1.811310 1.786828 0.003126 -0.002890 -0.004342
N -0.018769 1.784320 6.903061 0.000126 0.000293 -0.001448
N 0.013178 1.800523 -3.342442 0.000177 0.000844 -0.001949
N 3.136573 -3.671014 1.860611 0.002647 -0.008123 -0.000308
N 3.189665 -3.664870 6.895479 -0.000349 -0.000763 -0.005410
N 3.184105 -3.708773 -3.377514 0.005853 -0.004740 0.008719
N 1.607433 -0.926931 1.777820 -0.026260 0.016593 -0.016469
N 1.581355 -0.954184 6.971772 -0.002483 -0.000969 -0.002378
N 1.530806 -0.935340 -3.363850 -0.003583 0.001826 0.000167
N 3.132586 1.716403 1.856336 -0.000508 0.007747 -0.010592
N 3.127710 1.783262 6.913636 -0.000674 0.000517 -0.001071
N 3.132103 1.738522 -3.353180 -0.000353 -0.001537 -0.000781
N 6.264833 -3.731951 1.776220 -0.000090 0.000597 -0.005126
N 6.296391 -3.734809 6.906088 -0.000113 -0.002310 -0.001398
N 6.263380 -3.709461 -3.378428 -0.003201 -0.003586 0.003846
N 4.706335 -0.906464 1.782546 -0.013379 -0.003974 -0.005240
N 4.681273 -0.925505 6.937683 -0.004221 -0.003167 -0.000084
N 4.727977 -0.905844 -3.368206 -0.000410 0.002755 0.000215
N -3.223011 1.819230 1.795839 -0.005133 0.000024 -0.003033
N -3.198010 1.750598 6.895830 0.000223 -0.000641 -0.000849
N -3.229339 1.764337 -3.318212 -0.001026 -0.001418 0.000275
N 0.018308 -3.725662 1.834359 0.000282 0.002569 -0.001978
N -0.068017 -3.661723 6.896244 0.000252 0.000625 -0.000354
N -0.028852 -3.634478 -3.353393 -0.000450 0.000509 -0.005670
N -1.591212 -0.955347 1.759540 0.001916 0.000163 -0.007562
N -1.564246 -0.926091 6.898944 0.003130 0.000756 -0.000113
N -1.559233 -0.964548 -3.305063 0.000890 -0.000082 0.001153
