108
Energy=-940194.394633 Lattice="9.467306 0.000000 0.000000 -4.739026 8.190155 0.000000 -0.001612 -0.001885 15.257435" Stress="0.000025 -0.000001 -0.000000 -0.000001 0.000015 -0.000001 -0.000000 -0.000001 0.000043" Properties=species:S:1:pos:R:3:forces:R:3
Al 1.562598 0.874952 2.404015 0.000036 0.004591 0.000474
Al 1.556727 0.866074 7.491434 0.000563 -0.000197 0.000681
Al 1.559107 0.881379 -2.715882 0.000085 -0.001144 -0.001036
Al -0.022711 3.600829 2.377597 0.002361 -0.001040 0.001149
Al -0.029322 3.596752 7.506598 -0.000402 0.000245 0.000515
Al -0.017776 3.592145 -2.714867 0.000138 0.000335 0.001263
Al 3.141709 -1.863922 2.434464 0.002158 0.002012 0.000313
Al 3.140344 -1.862244 7.477631 -0.000158 0.000017 0.000674
Al 3.142193 -1.855487 -2.726469 -0.000462 0.000114 -0.001740
Al -4.767203 0.867255 2.404458 -0.000788 0.000788 0.000551
Al -4.770691 0.866701 7.492739 0.000316 -0.000243 0.000457
Al -4.769633 0.875637 -2.719218 0.000278 0.000408 -0.000815
Al -6.346125 3.589817 2.408823 -0.001577 -0.000721 0.000826
Al -6.336439 3.592488 7.490359 0.000267 -0.000078 0.000200
Al -6.349846 3.586103 -2.717679 -0.001288 -0.000582 0.000816
Al -3.171925 -1.860888 2.416438 -0.000885 -0.000686 -0.000150
Al -3.177692 -1.855689 7.491923 -0.000142 0.000267 0.000373
Ga -3.183327 -1.862118 -2.720698 -0.000048 0.000061 0.000537
Al -1.594787 0.863952 2.407699 -0.000631 0.003015 -0.002841
Al -1.606997 0.869041 7.502175 0.000694 -0.000668 0.000489
Al -1.600022 0.886127 -2.717587 0.000211 0.000238 0.000199
Ga -3.170533 3.605057 2.408078 -0.000205 -0.000748 0.000298
Al -3.183793 3.608115 7.495177 0.000350 -0.000020 -0.000093
Ga -3.176931 3.593602 -2.715412 0.000513 0.000157 0.000674
Al -0.027643 -1.852288 2.448026 0.003831 0.003576 -0.000010
Al -0.020888 -1.855521 7.478005 0.000246 -0.000423 0.000492
Ga -0.015114 -1.846422 -2.734359 0.000439 0.000058 0.000013
Ga -0.020523 1.771493 4.953407 0.000312 0.000617 0.000440
Al -0.023188 1.776736 -5.246090 -0.000178 0.000337 0.000507
Al -0.027292 1.794464 -0.162647 0.001730 0.000365 0.001401
Al 3.135394 -3.670677 4.969710 0.000957 0.000460 0.000406
Al 3.143895 -3.678952 -5.255864 -0.000373 0.000635 0.000423
Al 3.156134 -3.686176 -0.159749 0.000223 0.000566 -0.000379
Al 1.565382 -0.959427 4.953095 -0.000706 0.000602 0.000012
Al 1.568848 -0.948254 -5.263003 -0.000493 0.000127 -0.001440
Ga 1.574635 -0.942522 -0.129063 -0.000068 0.001749 -0.000617
Al 3.131079 1.769596 4.952991 -0.000028 0.000245 0.000651
Al 3.128790 1.780604 -5.245618 0.000090 -0.000076 0.000927
Al 3.124954 1.789080 -0.161962 -0.000426 0.000143 0.000438
Ga 6.290034 -3.679072 4.953052 0.000250 -0.000410 0.000434
Al 6.293020 -3.686280 -5.258908 -0.000038 0.000250 0.000269
Al 6.284387 -3.699016 -0.145044 0.000148 -0.000553 0.001032
Al 4.707510 -0.951335 4.951293 -0.000653 -0.000023 0.000032
Al 4.709996 -0.945609 -5.256717 -0.000571 -0.000217 0.000826
Ga 4.705003 -0.944655 -0.137045 -0.000003 0.000243 -0.000762
Ga -3.194760 1.775427 4.964823 -0.000045 -0.000117 0.000716
Al -3.185750 1.777981 -5.259101 0.000124 -0.000011 0.000056
Al -3.180847 1.779415 -0.155898 -0.000015 -0.000385 0.001006
Al -0.025146 -3.673864 4.966427 -0.000481 0.000188 -0.000408
Al -0.025451 -3.678911 -5.266631 -0.000211 -0.000168 0.000180
Ga -0.034433 -3.690241 -0.137246 -0.000540 -0.000444 0.001237
Al -1.600017 -0.954601 4.958652 0.000321 0.000077 -0.000039
Al -1.597971 -0.940574 -5.265655 -0.000382 0.000013 0.000105
Ga -1.599010 -0.929883 -0.122081 -0.000863 0.000296 -0.001568
N 1.592912 0.846480 4.326094 0.000594 0.000011 -0.000313
N 1.555578 0.871431 -5.847719 0.000272 0.000438 -0.000517
N 1.550595 0.917121 -0.785177 0.000448 -0.000490 -0.000812
N -0.069662 3.619706 4.296746 -0.000453 0.000463 -0.000183
N -0.024938 3.596443 -5.842084 -0.000187 -0.000167 -0.000046
N -0.019975 3.601815 -0.774119 -0.000587 -0.000193 -0.000303
N 3.138100 -1.867921 4.360310 -0.000128 -0.000210 -0.000756
N 3.140743 -1.861648 -5.861604 0.000079 -0.000029 -0.001012
N 3.136629 -1.903273 -0.814118 -0.000320 -0.000300 0.000930
N -4.803984 0.846728 4.326929 0.000665 0.000239 -0.001041
N -4.767537 0.871110 -5.849575 0.000430 0.000237 -0.000400
N -4.764102 0.919880 -0.793068 0.001002 0.000040 0.000949
N -6.299499 3.570578 4.332567 0.000062 -0.000216 -0.000414
N -6.336333 3.595223 -5.855180 0.000048 -0.000076 -0.000306
N -6.382107 3.580007 -0.790612 0.000345 0.000050 -0.000096
N -3.176830 -1.818143 4.336685 0.000028 0.000914 -0.000895
N -3.177025 -1.857526 -5.845505 -0.000027 0.000077 -0.000198
N -3.174141 -1.904203 -0.742207 0.000262 0.000076 -0.000243
N -1.607281 0.829779 4.309145 -0.000168 -0.001072 0.001593
N -1.603958 0.876885 -5.847607 0.000752 -0.000254 -0.000008
N -1.600495 0.924600 -0.786231 -0.001393 -0.000798 -0.001190
N -3.178865 3.650521 4.388990 -0.000236 -0.000794 -0.000817
N -3.179954 3.607301 -5.843809 0.000186 -0.000352 0.000092
N -3.143880 3.584611 -0.727796 0.000520 -0.000640 0.000652
N -0.023698 -1.859112 4.371562 0.000446 0.000379 -0.000633
N -0.017975 -1.853038 -5.856572 -0.000020 -0.000623 -0.000325
N -0.018943 -1.851307 -0.769879 0.000499 -0.000565 0.000614
N -0.019453 1.775038 1.782356 -0.000968 0.000735 -0.000912
N -0.025718 1.776472 6.934913 -0.000137 0.000298 -0.000610
N -0.022313 1.780154 -3.318597 -0.000115 -0.000181 0.000413
N 3.185728 -3.650375 1.763680 -0.002693 0.001478 -0.001091
N 3.140545 -3.685515 6.890968 0.000036 0.000111 -0.000770
N 3.181157 -3.660160 -3.338524 -0.000078 0.000268 0.000017
N 1.577593 -0.928930 1.861763 -0.005620 -0.011036 0.000067
N 1.562203 -0.952122 6.880118 -0.000699 0.000456 -0.000800
N 1.604565 -0.926632 -3.358619 0.000209 0.002106 0.004945
N 3.131648 1.780469 1.774486 0.000997 0.000751 -0.000145
N 3.127169 1.777355 6.878330 -0.000013 -0.000044 -0.000925
N 3.129955 1.782814 -3.322846 -0.000106 -0.000797 0.000039
N 6.296616 -3.681837 1.793161 0.000003 0.000108 0.000049
N 6.287610 -3.683681 6.935598 0.000076 0.000112 -0.000083
N 6.290989 -3.727531 -3.342302 -0.000057 -0.000551 -0.000579
N 4.714871 -0.948972 1.848091 -0.001353 -0.001646 0.000956
N 4.716058 -0.949463 6.879122 -0.000361 -0.000077 -0.001028
N 4.675084 -0.922496 -3.340045 -0.000666 0.000252 0.000349
N -3.184306 1.731345 1.775518 0.001302 -0.000180 -0.000132
N -3.186688 1.779131 6.943555 0.000118 -0.000149 0.000159
N -3.184270 1.734261 -3.342326 -0.000020 -0.000446 0.000341
N -0.068491 -3.650094 1.851975 0.002143 0.000065 -0.003680
N -0.026232 -3.679945 6.889756 0.000049 -0.000007 -0.000504
N -0.067846 -3.706566 -3.352932 0.001399 0.000628 -0.000577
N -1.592817 -0.945686 1.855404 -0.000011 -0.002284 0.000562
N -1.601150 -0.947304 6.885051 -0.000496 0.000215 -0.000934
N -1.601971 -0.895240 -3.359673 -0.000038 -0.000171 0.000355
