108
Energy=-1.489500e+06 Lattice="9.502282e+00 0.000000e+00 0.000000e+00 -4.761145e+00 8.226322e+00 0.000000e+00 -2.351629e-02 -6.938702e-03 1.535759e+01" Stress="-9.592265e-03 1.254695e-03 -1.031957e-03 1.250706e-03 -8.351359e-03 2.590436e-05 -1.035000e-03 1.944099e-05 -3.592641e-03" Properties=species:S:1:pos:R:3:forces:R:3 Config_type=AlGaN_super3_23_0_5.xyz
Al 1.551757e+00 8.840419e-01 2.403205e+00 2.355842e-03 -9.372850e-03 3.947114e-03
Al 1.528718e+00 8.965139e-01 7.511785e+00 5.000581e-03 -8.551027e-03 -2.960088e-03
Al 1.558625e+00 8.845345e-01 -2.711012e+00 3.186688e-03 8.164547e-04 5.423190e-03
Al -2.564672e-02 3.607510e+00 2.404948e+00 1.015041e-02 1.259159e-03 8.383308e-03
Al -3.199739e-02 3.608138e+00 7.515971e+00 3.004665e-03 -1.380513e-03 1.997180e-03
Al 1.368661e-02 3.584316e+00 -2.728797e+00 -3.325582e-03 7.427545e-03 3.764502e-03
Al 3.131082e+00 -1.865155e+00 2.413703e+00 4.166392e-03 3.665772e-03 1.220968e-02
Al 3.149644e+00 -1.868284e+00 7.509642e+00 -4.552489e-03 -6.603186e-04 3.759050e-03
Ga 3.175873e+00 -1.855719e+00 -2.717067e+00 2.308837e-03 -3.184747e-03 3.605682e-03
Al -4.787268e+00 8.704566e-01 2.434064e+00 2.930867e-03 2.241972e-03 8.052662e-03
Ga -4.804886e+00 8.763829e-01 7.519106e+00 -3.245071e-03 -5.845774e-04 1.415291e-03
Al -4.777342e+00 8.793912e-01 -2.729482e+00 -6.131126e-04 -7.621354e-04 4.210518e-03
Al -6.409066e+00 3.612588e+00 2.416304e+00 3.245004e-03 -5.520358e-03 8.670650e-03
Al -6.403673e+00 3.608595e+00 7.505150e+00 2.242464e-04 9.597328e-04 2.339728e-03
Al -6.375400e+00 3.615788e+00 -2.718020e+00 3.667106e-04 -1.055845e-03 3.641622e-03
Ga -3.186335e+00 -1.880462e+00 2.391008e+00 3.711826e-04 7.289674e-04 5.936717e-03
Ga -3.205210e+00 -1.883432e+00 7.522011e+00 3.211311e-03 -1.977031e-03 1.047169e-03
Al -3.181130e+00 -1.870103e+00 -2.725840e+00 -2.754216e-03 -2.410402e-03 4.608613e-03
Al -1.611674e+00 9.083407e-01 2.412660e+00 -2.251442e-03 -9.287818e-03 3.881720e-03
Al -1.629911e+00 8.855612e-01 7.520299e+00 5.565617e-03 -3.365614e-03 7.261137e-03
Ga -1.618746e+00 8.929575e-01 -2.710396e+00 3.626094e-03 7.825743e-04 3.904699e-03
Ga -3.193667e+00 3.576200e+00 2.473861e+00 -1.254131e-03 7.876294e-04 1.123025e-03
Ga -3.195507e+00 3.609127e+00 7.518295e+00 1.007943e-03 5.848573e-03 8.702510e-04
Ga -3.200645e+00 3.607986e+00 -2.705487e+00 3.430579e-03 2.126053e-03 2.049651e-03
Ga -1.575664e-02 -1.841089e+00 2.404260e+00 1.337195e-03 -1.361593e-03 3.829584e-03
Ga -2.841661e-02 -1.842682e+00 7.509450e+00 4.982988e-03 -1.154998e-04 -5.905785e-04
Ga -2.335509e-02 -1.850794e+00 -2.695437e+00 3.704954e-03 -3.097554e-03 2.671029e-03
Ga -4.087961e-02 1.774746e+00 4.970992e+00 9.964944e-05 1.740963e-03 7.729506e-04
Al -1.570566e-02 1.799190e+00 -5.302692e+00 -2.110552e-03 3.322529e-05 3.428141e-03
Al -2.194622e-02 1.774521e+00 -1.452975e-01 -8.847890e-04 2.105418e-03 4.632968e-04
Al 3.146467e+00 -3.703071e+00 4.978926e+00 3.989668e-04 3.474104e-03 -4.096672e-03
Ga 3.194127e+00 -3.707773e+00 -5.287614e+00 -2.730186e-03 2.860225e-03 2.447866e-03
Ga 3.178421e+00 -3.715578e+00 -1.100150e-01 -9.956320e-04 3.164631e-03 4.352633e-03
Al 1.576953e+00 -9.565195e-01 4.961285e+00 6.052916e-04 1.869331e-03 3.874769e-03
Ga 1.589927e+00 -9.374103e-01 -5.288860e+00 4.150044e-05 -4.887422e-04 1.797789e-03
Al 1.572672e+00 -9.513193e-01 -1.549081e-01 1.116907e-03 1.532280e-03 -1.291452e-04
Al 3.111635e+00 1.787781e+00 4.962605e+00 7.313179e-03 -7.204593e-04 -3.332954e-03
Ga 3.123692e+00 1.793288e+00 -5.282524e+00 8.972772e-04 8.878450e-04 3.239155e-03
Ga 3.134542e+00 1.788037e+00 -1.160676e-01 4.701121e-04 -2.095547e-04 -2.538763e-03
Al 6.291808e+00 -3.709139e+00 4.962590e+00 3.328108e-03 -1.880358e-03 2.923025e-03
Al 6.322850e+00 -3.692541e+00 -5.274337e+00 -1.443272e-03 -1.318216e-03 2.177942e-03
Al 6.328536e+00 -3.704627e+00 -1.868305e-01 -2.122753e-03 2.178014e-03 6.178704e-04
Ga 4.726988e+00 -9.718110e-01 4.965536e+00 -1.776799e-03 4.652932e-03 -5.303505e-03
Al 4.756085e+00 -9.457447e-01 -5.278610e+00 -4.099884e-03 -1.141148e-03 3.667664e-03
Ga 4.757751e+00 -9.508937e-01 -1.136135e-01 -2.869023e-03 8.115770e-04 -6.633622e-03
Al -3.173440e+00 1.784505e+00 5.078049e+00 -1.564579e-02 -4.500526e-03 -4.468361e-02
Al -3.189074e+00 1.785618e+00 -5.288038e+00 1.823108e-04 -1.777724e-05 5.215089e-03
Al -3.191069e+00 1.776671e+00 -1.357526e-01 -1.281447e-03 -6.294528e-04 3.458319e-03
Ga -4.252321e-02 -3.695256e+00 4.982597e+00 -2.206899e-03 -2.874516e-04 -5.234357e-03
Ga -2.860980e-02 -3.698409e+00 -5.283473e+00 -8.176221e-05 -2.786258e-05 1.758361e-03
Ga -2.727136e-02 -3.687050e+00 -1.006981e-01 -1.078653e-03 -1.433188e-03 -3.909075e-03
Al -1.606544e+00 -9.299379e-01 4.974952e+00 -2.121706e-03 -4.401002e-03 2.027337e-05
Ga -1.609071e+00 -9.358689e-01 -5.275913e+00 -9.816876e-04 2.904593e-03 1.662109e-03
Al -1.591337e+00 -9.368580e-01 -1.513525e-01 -4.702385e-03 1.200396e-04 -2.347368e-03
N 1.573638e+00 8.515823e-01 4.344194e+00 9.095349e-04 -3.324528e-03 -6.333809e-03
N 1.515725e+00 8.947759e-01 -5.948145e+00 1.715766e-03 2.608523e-03 2.117590e-03
N 1.523524e+00 8.510927e-01 -7.660829e-01 -1.782336e-03 1.173347e-04 -4.198726e-03
N -4.647558e-02 3.644435e+00 4.346523e+00 4.767853e-03 3.235950e-04 -3.684032e-03
N 3.272998e-02 3.599053e+00 -5.914844e+00 1.735566e-03 -1.543566e-03 -2.644009e-03
N 1.788931e-02 3.584905e+00 -7.877704e-01 1.228903e-03 -3.482265e-03 -8.738341e-04
N 3.106142e+00 -1.899590e+00 4.341161e+00 -3.626669e-03 3.300008e-04 -5.955387e-05
N 3.199241e+00 -1.845262e+00 -5.919280e+00 3.236705e-03 6.971323e-04 -3.596221e-03
N 3.133428e+00 -1.853047e+00 -7.448899e-01 -1.856819e-03 -1.510088e-03 1.060919e-03
N -4.782132e+00 9.082595e-01 4.354301e+00 2.678537e-03 6.004883e-03 6.688944e-03
N -4.748751e+00 8.633698e-01 -5.865571e+00 3.699589e-03 -4.451722e-04 3.216285e-04
N -4.747212e+00 8.941132e-01 -7.904841e-01 3.228731e-03 2.284436e-03 -3.632496e-03
N -6.420684e+00 3.596807e+00 4.344657e+00 -3.895295e-03 -8.917950e-04 -2.590931e-03
N -6.405075e+00 3.640059e+00 -5.933910e+00 -3.996338e-04 8.109545e-04 -1.304589e-03
N -6.390275e+00 3.634741e+00 -7.934254e-01 3.807855e-04 -7.795857e-04 -4.287050e-03
N -3.139520e+00 -1.904219e+00 4.388242e+00 5.747617e-04 5.874888e-04 -2.748030e-03
N -3.213775e+00 -1.886370e+00 -5.858903e+00 -4.747908e-04 -1.654823e-03 3.024423e-05
N -3.147240e+00 -1.884290e+00 -7.817657e-01 3.982267e-03 -1.894362e-03 -2.603408e-03
N -1.678921e+00 8.632412e-01 4.363265e+00 6.139752e-03 -1.163452e-03 -9.321408e-03
N -1.608683e+00 9.312981e-01 -5.905343e+00 -5.084774e-04 1.042623e-03 -2.833533e-03
N -1.615848e+00 8.875072e-01 -7.199641e-01 3.094140e-03 3.292518e-04 -4.653400e-04
N -3.176624e+00 3.575376e+00 4.443641e+00 3.500207e-03 1.297202e-03 1.647670e-03
N -3.188323e+00 3.584384e+00 -5.875329e+00 1.248223e-03 -3.165383e-03 -8.962135e-04
N -3.195778e+00 3.581476e+00 -7.255296e-01 1.697356e-03 -2.726034e-03 2.805115e-03
N -2.150602e-02 -1.808348e+00 4.394168e+00 -3.869394e-04 4.910800e-04 -1.141622e-03
N -1.360733e-02 -1.849281e+00 -5.889354e+00 3.927068e-04 -2.279032e-03 -8.876116e-04
N -1.147171e-02 -1.818832e+00 -7.171074e-01 -2.788245e-04 -5.317181e-04 1.371868e-04
N -2.587809e-02 1.794113e+00 1.801124e+00 -4.040957e-04 -1.056396e-03 -7.215514e-04
N -4.853340e-02 1.770514e+00 6.960794e+00 -2.345761e-03 7.050916e-03 -2.671377e-03
N 2.141554e-02 1.796067e+00 -3.354170e+00 -5.499941e-04 6.444678e-04 -5.580622e-03
N 3.201674e+00 -3.662379e+00 1.960644e+00 -7.498965e-03 -1.125142e-02 -3.197315e-02
N 3.194647e+00 -3.677786e+00 6.903298e+00 -2.280664e-03 2.283354e-05 -8.752869e-04
N 3.203613e+00 -3.721206e+00 -3.316925e+00 2.165217e-03 -3.270375e-03 2.243895e-03
N 1.635290e+00 -9.649675e-01 1.743029e+00 -1.262452e-02 1.441032e-02 8.950131e-03
N 1.610075e+00 -9.292616e-01 6.889259e+00 -1.000007e-03 2.415386e-03 -7.182770e-04
N 1.583374e+00 -9.108085e-01 -3.318636e+00 -2.971391e-03 3.095443e-03 1.180129e-04
N 3.137050e+00 1.782725e+00 1.886349e+00 -6.292163e-04 1.868686e-03 -9.856070e-03
N 3.085309e+00 1.811513e+00 6.894872e+00 -9.151981e-04 7.147603e-04 -3.598984e-03
N 3.136725e+00 1.791535e+00 -3.293002e+00 1.549422e-04 -3.731376e-04 2.406392e-03
N 6.328304e+00 -3.744502e+00 1.724307e+00 -9.215502e-03 -4.535856e-04 7.383052e-03
N 6.299310e+00 -3.740254e+00 6.887524e+00 -1.323090e-03 -2.348839e-03 -3.316931e-03
N 6.325313e+00 -3.697617e+00 -3.338433e+00 2.872583e-06 9.648474e-04 -9.551476e-04
N 4.672953e+00 -9.375351e-01 1.849330e+00 6.713618e-03 1.395028e-03 1.020790e-03
N 4.691858e+00 -9.773728e-01 6.924830e+00 -1.076897e-03 1.109909e-03 -8.863137e-04
N 4.780634e+00 -9.283720e-01 -3.346173e+00 2.423959e-03 2.035623e-03 -3.140751e-03
N -3.196575e+00 1.726225e+00 1.798268e+00 -3.214321e-03 3.804017e-03 -6.111546e-03
N -3.173413e+00 1.762116e+00 6.878337e+00 1.193509e-03 -1.982843e-03 2.476929e-02
N -3.225199e+00 1.774622e+00 -3.365071e+00 -3.182230e-03 -1.780492e-03 -4.547040e-03
N -7.480206e-02 -3.740365e+00 1.873096e+00 5.377075e-03 4.937771e-03 -3.758102e-03
N -7.092196e-02 -3.712531e+00 6.936174e+00 -2.230950e-03 -2.743527e-03 2.459119e-03
N -5.236259e-02 -3.708492e+00 -3.310669e+00 -2.919040e-03 -5.884312e-04 4.650330e-04
N -1.606930e+00 -8.958099e-01 1.750723e+00 7.870472e-04 2.093797e-03 3.760816e-03
N -1.616059e+00 -9.052606e-01 6.895812e+00 -4.376824e-03 3.311316e-03 -4.051614e-03
N -1.627713e+00 -9.606184e-01 -3.309157e+00 -4.563321e-03 -7.947712e-04 -2.419279e-04
