108
Energy=-1.169072e+06 Lattice="9.481195e+00 0.000000e+00 0.000000e+00 -4.754934e+00 8.209161e+00 0.000000e+00 2.588187e-03 6.077839e-03 1.526111e+01" Stress="-1.650099e-03 -1.232151e-03 5.856133e-04 -1.241315e-03 -1.988888e-03 3.840961e-04 5.927238e-04 3.867752e-04 -3.075349e-03" Properties=species:S:1:pos:R:3:forces:R:3 Config_type=AlGaN_super3_16_0_11.xyz
Al 1.551010e+00 8.625054e-01 2.412527e+00 -7.141181e-04 2.165497e-03 -2.288692e-04
Al 1.560265e+00 8.682331e-01 7.465308e+00 -1.061637e-03 -1.423750e-04 2.448953e-04
Al 1.542667e+00 8.904104e-01 -2.696834e+00 -2.329042e-03 -3.135503e-03 -1.947943e-03
Al -2.449274e-02 3.608775e+00 2.376013e+00 5.642390e-04 -1.642207e-04 2.591614e-04
Al -2.794168e-02 3.603117e+00 7.479570e+00 2.331236e-04 -5.080142e-04 2.727541e-05
Al -1.902524e-02 3.595447e+00 -2.679428e+00 9.117571e-04 -8.288596e-04 2.018429e-03
Al 3.140597e+00 -1.873859e+00 2.395580e+00 4.628513e-04 4.235621e-04 8.242047e-04
Al 3.141998e+00 -1.861809e+00 7.460724e+00 -1.865288e-03 -5.768888e-04 1.291174e-03
Al 3.152813e+00 -1.860911e+00 -2.675613e+00 -6.971943e-03 3.159512e-04 -4.632697e-04
Al -4.764407e+00 8.644383e-01 2.390661e+00 -2.898129e-04 1.830492e-03 -2.199718e-03
Al -4.782297e+00 8.673347e-01 7.484946e+00 2.119922e-04 1.729087e-03 7.314705e-04
Ga -4.784920e+00 8.696463e-01 -2.674874e+00 6.809178e-04 4.644697e-04 4.901902e-04
Al -6.350983e+00 3.620663e+00 2.413838e+00 -1.820879e-04 -1.139152e-03 -9.920590e-04
Ga -6.352073e+00 3.601325e+00 7.470138e+00 5.196074e-04 5.703838e-04 9.408071e-04
Al -6.358706e+00 3.623622e+00 -2.696692e+00 1.142899e-03 1.677324e-04 6.115856e-04
Al -3.179606e+00 -1.873606e+00 2.387540e+00 2.082501e-03 1.138279e-03 -2.086447e-03
Ga -3.181639e+00 -1.863148e+00 7.505014e+00 1.620585e-03 -1.864461e-04 9.236960e-06
Ga -3.183678e+00 -1.870715e+00 -2.699868e+00 1.925842e-03 6.036734e-04 5.215636e-04
Al -1.601666e+00 8.830534e-01 2.373128e+00 1.632700e-04 1.026984e-03 -7.288144e-06
Al -1.593693e+00 8.764500e-01 7.496596e+00 9.643719e-04 -3.346164e-04 -9.281565e-05
Al -1.590063e+00 8.836554e-01 -2.685620e+00 1.886994e-03 -8.646301e-04 4.156847e-04
Al -3.188721e+00 3.616535e+00 2.378283e+00 -4.816584e-05 -1.062940e-03 4.990440e-04
Ga -3.186513e+00 3.626810e+00 7.472091e+00 3.344077e-04 -5.319108e-05 -3.892339e-04
Ga -3.196945e+00 3.628513e+00 -2.663477e+00 -4.888093e-04 3.690162e-05 -8.181843e-05
Al -3.440000e-03 -1.867148e+00 2.409012e+00 -2.557521e-03 -5.652700e-05 -7.103601e-04
Al -3.168608e-03 -1.850481e+00 7.481884e+00 -2.614472e-03 -4.662596e-04 -5.486328e-03
Al -3.695397e-03 -1.848046e+00 -2.715366e+00 -1.064279e-02 -6.026407e-03 8.137179e-03
Ga -1.258858e-02 1.788173e+00 4.931764e+00 -6.367120e-04 1.254304e-03 1.656252e-03
Al -1.530608e-02 1.781814e+00 -5.240483e+00 -2.685035e-03 1.558101e-03 6.896769e-04
Al -3.320761e-02 1.797589e+00 -1.479872e-01 -3.972496e-04 7.729818e-04 1.952130e-03
Al 3.152315e+00 -3.688465e+00 4.916473e+00 -2.378736e-04 1.278630e-04 6.570044e-04
Ga 3.167514e+00 -3.686641e+00 -5.224564e+00 -2.122326e-04 5.945120e-04 6.610788e-04
Al 3.158902e+00 -3.693506e+00 -1.408838e-01 -4.031834e-04 1.025190e-04 3.337298e-04
Al 1.573416e+00 -9.667002e-01 4.936165e+00 -1.261412e-03 5.044584e-04 1.094373e-03
Ga 1.549118e+00 -9.515199e-01 -5.249920e+00 6.799073e-04 3.913877e-04 1.207801e-03
Ga 1.567717e+00 -9.599762e-01 -1.510072e-01 -2.219003e-03 6.920358e-04 1.149860e-03
Al 3.132171e+00 1.784786e+00 4.917447e+00 2.205721e-04 5.970115e-04 -7.167459e-04
Al 3.123697e+00 1.789791e+00 -5.229600e+00 -3.609444e-03 -1.431247e-03 -2.155824e-03
Ga 3.124769e+00 1.803951e+00 -1.241460e-01 -8.472363e-04 2.286599e-04 2.155959e-03
Al 6.305522e+00 -3.700216e+00 4.918307e+00 2.694854e-04 3.360004e-04 -1.424002e-04
Al 6.309756e+00 -3.702580e+00 -5.225095e+00 -7.212526e-04 4.354296e-04 5.501508e-04
Al 6.300734e+00 -3.689284e+00 -1.430153e-01 3.344254e-04 -3.001617e-03 1.922163e-03
Ga 4.713738e+00 -9.632548e-01 4.929965e+00 2.683703e-05 4.540085e-04 -2.328599e-04
Al 4.713744e+00 -9.487637e-01 -5.247138e+00 -4.133652e-04 -1.259834e-03 -2.729959e-04
Al 4.721747e+00 -9.633996e-01 -1.202273e-01 -6.874147e-04 1.251743e-04 1.764713e-03
Ga -3.195255e+00 1.792343e+00 4.929465e+00 -3.629119e-04 9.792895e-04 2.209439e-04
Ga -3.194361e+00 1.774116e+00 -5.241902e+00 4.289661e-04 -4.081706e-04 2.742184e-04
Al -3.187252e+00 1.793942e+00 -1.290907e-01 1.903024e-03 -2.313246e-05 1.761082e-03
Al -1.092977e-02 -3.682893e+00 4.911164e+00 -8.284199e-04 -7.950949e-05 -2.929943e-04
Al -4.033767e-02 -3.678545e+00 -5.230286e+00 -8.516627e-05 -5.078337e-04 5.824415e-04
Al -2.049639e-02 -3.685945e+00 -1.283914e-01 -1.475311e-03 1.615718e-04 -2.003164e-04
Ga -1.581590e+00 -9.627927e-01 4.925005e+00 -1.427784e-03 -1.329263e-04 1.277622e-03
Al -1.589895e+00 -9.486141e-01 -5.229702e+00 -2.384543e-03 -9.058106e-04 -1.012273e-03
Ga -1.598736e+00 -9.491786e-01 -1.379225e-01 5.900551e-04 3.787748e-04 2.532300e-04
N 1.590671e+00 8.399130e-01 4.324657e+00 8.246433e-04 -3.178402e-04 -3.650616e-04
N 1.534297e+00 9.105262e-01 -5.880887e+00 8.772774e-03 1.940599e-03 4.048172e-03
N 1.508885e+00 9.004452e-01 -7.915124e-01 1.716729e-03 -1.382706e-04 5.882269e-04
N -2.554558e-02 3.648443e+00 4.293780e+00 -4.284139e-04 4.162737e-04 -1.267444e-03
N 1.215297e-02 3.583526e+00 -5.861934e+00 8.441911e-04 -5.007439e-05 -1.468678e-03
N -2.422326e-02 3.607635e+00 -7.488384e-01 1.045473e-04 4.029321e-06 -7.312053e-04
N 3.106237e+00 -1.893010e+00 4.311394e+00 -4.834132e-04 -3.648814e-04 -1.312036e-03
N 3.171244e+00 -1.847316e+00 -5.887807e+00 7.842439e-04 3.799215e-04 -1.717602e-03
N 3.186185e+00 -1.884506e+00 -7.598605e-01 1.356889e-03 -3.510324e-04 -1.387944e-03
N -4.803125e+00 8.874435e-01 4.285322e+00 4.697195e-05 4.613440e-04 1.896042e-03
N -4.820913e+00 8.525387e-01 -5.858127e+00 -7.476070e-05 1.162503e-04 -1.276636e-04
N -4.734616e+00 8.487642e-01 -6.979265e-01 -3.235461e-04 -5.526717e-04 -7.669139e-04
N -6.348925e+00 3.611351e+00 4.330391e+00 3.834525e-04 -2.537780e-04 8.675376e-04
N -6.349831e+00 3.605839e+00 -5.804443e+00 -8.465306e-04 -6.331499e-04 -2.582992e-04
N -6.348730e+00 3.661473e+00 -7.748510e-01 -2.429371e-04 -1.051811e-04 -1.385846e-04
N -3.175790e+00 -1.912735e+00 4.290206e+00 6.445752e-05 -4.021003e-04 1.294200e-03
N -3.180254e+00 -1.871542e+00 -5.772223e+00 9.041986e-04 1.070493e-03 5.810825e-04
N -3.220897e+00 -1.888649e+00 -7.166770e-01 -3.617513e-04 1.863070e-03 -1.556733e-03
N -1.607364e+00 8.782594e-01 4.270497e+00 1.120282e-03 -1.092130e-04 -9.390925e-05
N -1.565166e+00 8.528983e-01 -5.854699e+00 -1.046915e-04 -6.739226e-04 5.049505e-04
N -1.610764e+00 9.249726e-01 -7.648752e-01 4.018559e-04 1.639846e-04 -4.355806e-04
N -3.185876e+00 3.655506e+00 4.302579e+00 2.640711e-04 -8.308968e-05 -5.323911e-04
N -3.231716e+00 3.643986e+00 -5.820171e+00 -3.111161e-04 -5.881362e-04 -1.331300e-04
N -3.197639e+00 3.618299e+00 -6.828293e-01 1.093104e-03 -7.667623e-04 2.680402e-04
N 2.982970e-02 -1.883170e+00 4.313386e+00 9.393340e-04 -1.061842e-03 -9.378656e-04
N -6.446734e-02 -1.893802e+00 -5.882947e+00 -1.700829e-04 7.726046e-04 5.574554e-03
N -2.160113e-02 -1.913682e+00 -7.922261e-01 8.066182e-04 1.153206e-03 -1.958558e-03
N -1.549525e-02 1.782175e+00 1.780105e+00 -3.156579e-04 9.097696e-04 -1.869250e-04
N -2.384647e-02 1.783151e+00 6.914307e+00 -1.636560e-04 9.102570e-04 -7.904591e-04
N -2.897094e-02 1.788423e+00 -3.307385e+00 2.043795e-04 1.164124e-03 -1.727088e-03
N 3.151356e+00 -3.689810e+00 1.781400e+00 -1.955550e-04 5.562108e-04 -6.609222e-04
N 3.193956e+00 -3.670348e+00 6.842616e+00 7.677981e-05 1.004234e-03 -9.616119e-04
N 3.193702e+00 -3.669661e+00 -3.249340e+00 -6.010071e-04 2.194127e-03 1.593157e-04
N 1.558387e+00 -9.521494e-01 1.833258e+00 3.592149e-03 -7.185110e-04 -9.632059e-04
N 1.565076e+00 -9.523865e-01 6.869758e+00 3.945496e-04 -1.477368e-04 -1.212055e-03
N 1.532262e+00 -9.557840e-01 -3.259624e+00 1.746731e-02 5.408520e-03 2.001821e-04
N 3.122855e+00 1.789592e+00 1.867256e+00 1.781000e-03 8.813699e-05 -5.386837e-03
N 3.137851e+00 1.741484e+00 6.838568e+00 -2.918902e-04 -1.159610e-03 -7.500446e-04
N 3.092300e+00 1.815569e+00 -3.308832e+00 -6.035531e-04 -1.283417e-03 -9.399869e-04
N 6.312828e+00 -3.693628e+00 1.783245e+00 -2.936473e-04 3.379516e-04 -1.246000e-03
N 6.266060e+00 -3.711273e+00 6.831976e+00 -4.765371e-04 9.259862e-04 -8.781871e-04
N 6.299615e+00 -3.736015e+00 -3.311701e+00 -6.200798e-04 -8.107305e-04 -3.325765e-04
N 4.719360e+00 -9.590892e-01 1.799425e+00 -4.191462e-04 -3.486269e-04 -2.456888e-04
N 4.687201e+00 -9.281996e-01 6.903121e+00 5.037473e-04 -2.995671e-04 -1.409543e-03
N 4.673707e+00 -9.698178e-01 -3.339543e+00 -2.026829e-04 5.120792e-04 -8.190493e-04
N -3.189547e+00 1.785894e+00 1.793315e+00 3.960051e-04 4.590728e-04 -1.390008e-03
N -3.187717e+00 1.742166e+00 6.911645e+00 -2.952455e-04 -1.369783e-03 6.297548e-04
N -3.154878e+00 1.767940e+00 -3.275251e+00 9.083196e-05 -3.848757e-04 7.149739e-04
N -2.264711e-02 -3.681993e+00 1.793526e+00 2.646520e-04 -7.318522e-04 5.038290e-04
N -2.005626e-02 -3.637296e+00 6.816832e+00 4.388433e-04 1.030981e-03 1.078365e-03
N -5.517226e-02 -3.655312e+00 -3.318717e+00 -9.471400e-04 -4.748656e-04 -5.561653e-04
N -1.578803e+00 -9.418856e-01 1.841421e+00 -4.446994e-03 -4.453830e-03 2.877528e-04
N -1.563332e+00 -9.223123e-01 6.902130e+00 1.138782e-03 -1.380113e-03 1.059611e-04
N -1.557441e+00 -9.168105e-01 -3.308332e+00 -1.054751e-03 -6.987451e-04 -1.130759e-03
