108
Energy=-665541.672857 Lattice="9.423335 0.000000 0.000000 -4.711591 8.160871 0.000000 -0.000554 0.000293 15.125876" Stress="0.000000 -0.000000 0.000000 -0.000000 0.000000 0.000000 0.000000 0.000000 -0.000000" Properties=species:S:1:pos:R:3:forces:R:3
Al 1.549397 0.870446 2.367937 -0.000006 -0.000026 -0.000020
Al 1.547746 0.878460 7.386346 0.000004 -0.000189 -0.000480
Al 1.541009 0.872616 -2.637128 0.000056 -0.000057 0.000018
Al -0.021560 3.589560 2.378048 0.000016 -0.000029 -0.000030
Al -0.020688 3.586711 7.400083 0.000001 -0.000009 -0.000076
Al -0.014008 3.587593 -2.667512 0.000010 0.000057 -0.000042
Al 3.120594 -1.853095 2.373022 -0.000017 0.000004 -0.000032
Al 3.132034 -1.852543 7.391070 -0.000016 0.000028 -0.000019
Al 3.131696 -1.850530 -2.648919 0.000035 0.000023 -0.000041
Al -4.735654 0.868523 2.376306 -0.000041 -0.000061 0.000010
Al -4.730528 0.864067 7.388688 0.000016 -0.000037 -0.000048
Al -4.731274 0.855714 -2.653031 0.000035 -0.000043 -0.000019
Al -6.308570 3.586456 2.373170 0.000021 0.000009 -0.000055
Al -6.309424 3.586673 7.391642 0.000054 -0.000034 -0.000051
Al -6.314626 3.594499 -2.648574 0.000029 0.000024 -0.000092
Al -3.163940 -1.853237 2.369214 0.000022 -0.000008 -0.000056
Al -3.177396 -1.854882 7.395300 -0.000032 0.000022 -0.000034
Al -3.172390 -1.857768 -2.651044 0.000012 0.000018 -0.000064
Al -1.593057 0.868419 2.373065 0.000064 -0.000061 -0.000071
Al -1.595884 0.881273 7.391772 0.000059 -0.000009 0.000048
Al -1.589870 0.869785 -2.648802 -0.000010 -0.000084 0.000040
Al -3.160550 3.587730 2.370040 -0.000025 0.000061 0.000036
Al -3.161142 3.581460 7.403750 0.000023 -0.000004 -0.000056
Ga -3.162372 3.586055 -2.657509 0.000070 -0.000045 -0.000086
Al -0.023634 -1.849585 2.374365 -0.000006 -0.000004 -0.000047
Ga -0.022505 -1.855875 7.386942 0.000061 0.000026 -0.000124
Al -0.026847 -1.854944 -2.637916 0.000004 0.000059 -0.000039
Al -0.022667 1.776219 4.878409 0.000048 -0.000033 -0.000062
Al -0.030799 1.789385 -5.191848 0.000155 -0.000140 -0.000177
Al -0.024799 1.778673 -0.135920 -0.000075 -0.000066 -0.000068
Al 3.118016 -3.667292 4.885480 0.000019 0.000016 -0.000043
Al 3.127284 -3.670213 -5.207119 0.000034 -0.000005 -0.000058
Al 3.126922 -3.665169 -0.130133 0.000027 -0.000024 -0.000182
Al 1.554622 -0.942252 4.870966 -0.000071 0.000102 -0.000026
Ga 1.561548 -0.948987 -5.172764 0.000007 -0.000019 -0.000046
Al 1.549167 -0.948293 -0.140144 -0.000015 0.000065 -0.000022
Al 3.118332 1.775807 4.885223 -0.000009 -0.000018 -0.000031
Ga 3.124103 1.782195 -5.189088 0.000061 0.000090 -0.000061
Al 3.120278 1.774838 -0.144027 0.000020 0.000057 0.000042
Al 6.258729 -3.665482 4.881726 0.000010 0.000011 -0.000022
Al 6.251828 -3.666685 -5.194391 0.000003 0.000018 -0.000091
Al 6.256469 -3.667876 -0.139873 -0.000012 0.000061 0.000005
Al 4.689964 -0.946428 4.878405 0.000003 0.000035 -0.000032
Al 4.692861 -0.953330 -5.192575 0.000024 0.000015 -0.000099
Al 4.689503 -0.946924 -0.135680 0.000021 0.000075 0.000016
Al -3.163414 1.777402 4.882336 0.000036 -0.000016 -0.000056
Al -3.160090 1.776374 -5.204364 0.000137 -0.000053 -0.000080
Al -3.164799 1.767099 -0.125189 0.000195 -0.000155 -0.000428
Al -0.021334 -3.673214 4.867803 0.000016 0.000005 -0.000070
Al -0.024133 -3.678942 -5.187693 0.000019 -0.000215 0.000009
Al -0.028774 -3.665202 -0.123160 0.000141 0.000036 0.000251
Al -1.599846 -0.941999 4.874615 0.000021 0.000025 -0.000046
Ga -1.609393 -0.940333 -5.175110 0.000011 0.000061 -0.000068
Al -1.595205 -0.946376 -0.144141 0.000034 0.000171 0.000031
N 1.549283 0.872147 4.282722 -0.000023 -0.000051 -0.000013
N 1.507371 0.891252 -5.830713 -0.000297 0.000154 0.000603
N 1.543756 0.870242 -0.724931 -0.000032 -0.000020 0.000008
N -0.022690 3.589794 4.290265 -0.000033 -0.000026 0.000048
N -0.019148 3.586599 -5.801719 0.000022 -0.000069 0.000062
N -0.022840 3.587429 -0.746946 0.000066 0.000015 0.000079
N 3.121487 -1.855574 4.284983 -0.000007 -0.000016 0.000011
N 3.160511 -1.873803 -5.819534 0.000010 0.000026 0.000064
N 3.123303 -1.856161 -0.733051 0.000013 -0.000024 -0.000009
N -4.734997 0.869345 4.291179 0.000001 -0.000033 0.000034
N -4.694440 0.841270 -5.818844 -0.000014 -0.000089 0.000041
N -4.730493 0.864563 -0.736147 0.000041 -0.000023 -0.000004
N -6.309202 3.586196 4.284898 0.000009 -0.000029 0.000057
N -6.307247 3.636403 -5.819109 -0.000026 -0.000074 0.000099
N -6.305478 3.591729 -0.733165 0.000056 -0.000004 0.000043
N -3.165077 -1.854474 4.281477 0.000009 0.000002 0.000036
N -3.204754 -1.877233 -5.814576 0.000033 0.000003 0.000099
N -3.168751 -1.856167 -0.734600 -0.000001 0.000003 0.000034
N -1.593586 0.870769 4.284917 -0.000011 -0.000014 0.000066
N -1.589677 0.914984 -5.818290 -0.000119 0.000060 -0.000019
N -1.594119 0.872943 -0.732791 0.000051 -0.000076 -0.000009
N -3.159082 3.587219 4.281936 0.000007 -0.000017 0.000056
N -3.164974 3.588993 -5.793023 0.000013 -0.000037 0.000057
N -3.162937 3.585683 -0.680845 -0.000348 0.000480 0.000127
N -0.023473 -1.850666 4.291624 0.000029 0.000021 0.000016
N -0.023420 -1.896446 -5.776330 -0.000022 0.000216 0.000023
N -0.022830 -1.858590 -0.724791 0.000050 -0.000025 0.000027
N -0.023322 1.778053 1.779610 -0.000034 0.000023 0.000038
N -0.023394 1.778248 6.792245 -0.000053 -0.000009 0.000020
N -0.022636 1.773523 -3.265172 -0.000008 -0.000021 0.000008
N 3.123940 -3.664850 1.781788 -0.000054 -0.000063 0.000169
N 3.118042 -3.668560 6.806138 -0.000044 -0.000018 0.000066
N 3.160904 -3.641529 -3.288533 -0.000077 0.000002 0.000039
N 1.549406 -0.945984 1.779009 -0.000036 -0.000038 0.000055
N 1.593172 -0.920962 6.779364 0.000046 0.000045 0.000135
N 1.551272 -0.945485 -3.193099 -0.000056 0.000043 -0.000013
N 3.120606 1.775536 1.773963 -0.000031 -0.000075 -0.000006
N 3.120675 1.775962 6.803440 -0.000025 0.000013 0.000013
N 3.118514 1.774362 -3.204534 -0.000073 -0.000028 -0.000016
N 6.257850 -3.666883 1.776108 -0.000029 -0.000047 0.000009
N 6.257718 -3.666102 6.797773 -0.000037 0.000031 0.000028
N 6.260381 -3.665906 -3.268308 -0.000029 -0.000014 0.000075
N 4.689267 -0.944225 1.779541 -0.000042 -0.000011 -0.000008
N 4.690070 -0.945619 6.790020 -0.000000 0.000028 0.000044
N 4.689547 -0.947091 -3.267329 -0.000054 0.000036 0.000091
N -3.164710 1.771296 1.784870 -0.000066 -0.000046 0.000365
N -3.164237 1.778118 6.798356 -0.000004 0.000008 0.000096
N -3.163420 1.724908 -3.287033 -0.000050 0.000042 0.000014
N -0.025810 -3.664742 1.790950 0.000024 -0.000086 -0.000256
N -0.020075 -3.718567 6.774333 -0.000042 0.000095 0.000082
N -0.065114 -3.646131 -3.275168 0.000019 -0.000051 0.000089
N -1.593867 -0.944669 1.775843 -0.000023 -0.000041 -0.000026
N -1.638957 -0.919721 6.785446 0.000009 0.000029 0.000056
N -1.596717 -0.945547 -3.195897 -0.000007 0.000072 0.000038
