108
Energy=-1.581051e+06 Lattice="9.534493e+00 0.000000e+00 0.000000e+00 -4.771196e+00 8.251723e+00 0.000000e+00 -1.222825e-04 1.405698e-02 1.539839e+01" Stress="-3.225785e-04 -2.575424e-04 7.111502e-05 -2.618967e-04 -9.334262e-04 5.898392e-04 8.064960e-05 5.720727e-04 -7.256927e-04" Properties=species:S:1:pos:R:3:forces:R:3 Config_type=AlGaN_super3_25_1_49.xyz
Al 1.556547e+00 8.894977e-01 2.401453e+00 3.097341e-04 -8.005251e-04 1.832599e-04
Al 1.562414e+00 8.994462e-01 7.560029e+00 1.538237e-04 2.379249e-04 1.978459e-04
Al 1.555392e+00 8.746128e-01 -2.706972e+00 2.359110e-04 1.533747e-04 -1.031997e-03
Al -3.484989e-02 3.616701e+00 2.419144e+00 2.326000e-03 -9.596646e-04 5.715825e-04
Al -2.675887e-02 3.618334e+00 7.543646e+00 -8.846465e-04 -9.297580e-05 2.215150e-03
Ga -4.426145e-02 3.612262e+00 -2.717185e+00 -7.602421e-05 -8.975100e-06 -1.244015e-05
Al 3.166795e+00 -1.873471e+00 2.423182e+00 -2.868300e-04 7.322191e-04 1.782375e-04
Ga 3.156945e+00 -1.872929e+00 7.561751e+00 7.390393e-05 -1.195296e-04 1.065551e-04
Al 3.151075e+00 -1.889105e+00 -2.728123e+00 -1.030624e-05 1.291087e-05 -6.476168e-05
Al -4.780726e+00 8.846739e-01 2.410528e+00 -2.611171e-03 -2.442625e-03 -4.877103e-04
Al -4.790535e+00 9.036458e-01 7.562533e+00 7.338858e-04 2.622531e-04 3.679980e-04
Ga -4.794646e+00 8.777243e-01 -2.716780e+00 3.593352e-04 -2.250855e-05 -1.569006e-04
Ga -6.376376e+00 3.626181e+00 2.420448e+00 4.573948e-05 1.793712e-04 4.724807e-04
Ga -6.382805e+00 3.622392e+00 7.539893e+00 3.315643e-05 3.111684e-04 1.399868e-04
Ga -6.372951e+00 3.617039e+00 -2.700232e+00 -9.316980e-05 -2.969128e-04 1.358819e-04
Al -3.215060e+00 -1.869088e+00 2.432056e+00 -1.351418e-04 -3.330635e-05 -1.036987e-04
Ga -3.203235e+00 -1.867544e+00 7.553577e+00 5.859066e-05 -9.145404e-05 5.064209e-04
Al -3.189717e+00 -1.863504e+00 -2.718750e+00 -1.016572e-04 8.828141e-05 -5.590327e-05
Al -1.614024e+00 8.995082e-01 2.421149e+00 1.775890e-03 1.322250e-04 2.777731e-03
Ga -1.617545e+00 9.124730e-01 7.558437e+00 1.605821e-04 -1.952389e-04 -1.902590e-04
Al -1.603984e+00 8.727585e-01 -2.739336e+00 2.592724e-04 3.944460e-04 -6.640715e-05
Al -3.196486e+00 3.619661e+00 2.429102e+00 -2.086628e-03 1.919849e-03 3.285414e-05
Al -3.200495e+00 3.619796e+00 7.550581e+00 5.548553e-04 -3.589136e-04 -1.263024e-03
Al -3.193976e+00 3.630623e+00 -2.720397e+00 5.944236e-04 -1.682432e-04 -1.274804e-03
Ga -1.256525e-02 -1.877519e+00 2.411599e+00 4.431819e-04 -4.892238e-05 2.702521e-04
Ga -1.683855e-02 -1.862911e+00 7.560584e+00 2.402056e-04 -2.634535e-04 3.097633e-04
Al -2.359523e-02 -1.868647e+00 -2.709853e+00 4.526199e-05 1.320371e-05 4.719818e-05
Al -2.131040e-02 1.809365e+00 4.976653e+00 7.412531e-06 -2.759622e-04 1.583914e-05
Al -2.767021e-02 1.780750e+00 -5.283870e+00 9.922744e-04 2.816177e-03 2.344414e-04
Al -1.982716e-02 1.784178e+00 -1.458675e-01 3.101702e-04 4.432023e-05 6.002436e-04
Ga 3.158105e+00 -3.730595e+00 4.969546e+00 -4.679443e-04 4.829902e-04 6.996893e-04
Al 3.152749e+00 -3.738762e+00 -5.287843e+00 4.859602e-04 1.277108e-04 1.852199e-04
Ga 3.145313e+00 -3.718683e+00 -1.259496e-01 1.457613e-05 4.107457e-04 1.682197e-04
Ga 1.564134e+00 -9.394921e-01 4.979761e+00 -4.384567e-04 2.238924e-04 1.833803e-04
Ga 1.563098e+00 -9.427712e-01 -5.250516e+00 -1.812986e-04 4.800225e-04 1.975821e-04
Ga 1.573075e+00 -9.481060e-01 -1.634697e-01 -7.127759e-04 3.278280e-04 1.121678e-05
Ga 3.152526e+00 1.799005e+00 4.978649e+00 -3.117296e-04 1.220982e-04 4.771555e-04
Al 3.146235e+00 1.780794e+00 -5.293462e+00 1.703933e-04 3.810700e-06 3.276591e-04
Al 3.142251e+00 1.792761e+00 -1.299673e-01 -1.443408e-04 1.137571e-04 5.993320e-04
Al 6.327192e+00 -3.712078e+00 4.972580e+00 3.572452e-05 2.221247e-04 -1.831752e-04
Ga 6.325119e+00 -3.721088e+00 -5.271517e+00 -4.269684e-04 -4.944636e-04 1.054135e-04
Ga 6.340087e+00 -3.715841e+00 -1.372997e-01 -3.918472e-05 1.157180e-04 8.252419e-05
Ga 4.753866e+00 -9.415547e-01 4.975748e+00 -1.566894e-04 -1.451291e-04 5.585105e-04
Ga 4.753050e+00 -9.484457e-01 -5.268623e+00 -2.831898e-04 4.032533e-04 -1.842120e-04
Ga 4.744888e+00 -9.602905e-01 -1.339459e-01 -3.906717e-04 1.657354e-04 -3.093109e-04
Al -3.206840e+00 1.812406e+00 4.963825e+00 1.224961e-03 -2.600591e-04 2.669977e-03
Al -3.190164e+00 1.800511e+00 -5.277092e+00 -1.827409e-03 -1.000683e-03 -4.502935e-04
Ga -3.196477e+00 1.805810e+00 -1.421004e-01 -9.741306e-05 -2.261292e-04 -8.523434e-04
Al -1.517962e-02 -3.713829e+00 4.994437e+00 -1.092470e-04 -1.844670e-04 -2.394845e-05
Ga -5.131979e-03 -3.722079e+00 -5.269552e+00 -2.137907e-04 -9.524723e-05 4.560805e-04
Al -1.232030e-02 -3.717648e+00 -1.643602e-01 -2.048866e-04 2.814580e-04 3.953484e-04
Ga -1.614210e+00 -9.426332e-01 4.960714e+00 -8.274414e-05 3.764790e-04 -7.808805e-05
Al -1.610457e+00 -9.419260e-01 -5.248194e+00 -1.520824e-04 -3.002116e-04 2.176216e-04
Ga -1.605385e+00 -9.485568e-01 -1.475394e-01 -3.388070e-04 6.792562e-05 -1.190335e-04
N 1.519666e+00 9.119097e-01 4.314836e+00 4.732963e-04 -1.503508e-04 -2.480607e-04
N 1.557713e+00 9.199641e-01 -5.919931e+00 4.475633e-04 -1.937617e-04 -2.466401e-04
N 1.563992e+00 9.326871e-01 -7.845088e-01 2.247652e-04 1.511932e-04 1.578193e-04
N 1.681285e-02 3.600529e+00 4.339336e+00 1.150705e-04 4.187678e-04 -5.649202e-04
N -6.481159e-02 3.594930e+00 -5.918677e+00 5.360805e-06 -1.506509e-03 -8.936019e-04
N -3.172685e-02 3.576828e+00 -7.419534e-01 -7.284435e-05 -2.501671e-04 -2.713366e-04
N 3.156058e+00 -1.872157e+00 4.329245e+00 3.208955e-04 -1.956562e-04 -6.757766e-04
N 3.153733e+00 -1.925946e+00 -5.864192e+00 -3.958922e-05 -1.343095e-04 8.141237e-05
N 3.162510e+00 -1.886790e+00 -8.179039e-01 -1.820614e-05 -1.257296e-04 3.464334e-04
N -4.751688e+00 9.112002e-01 4.322052e+00 2.233179e-04 -6.341034e-05 -1.116110e-03
N -4.786754e+00 9.265474e-01 -5.908030e+00 1.176514e-03 3.885148e-04 2.521962e-04
N -4.833439e+00 9.023847e-01 -7.406512e-01 2.732159e-04 4.509555e-04 2.027983e-05
N -6.377261e+00 3.680189e+00 4.406693e+00 -6.632180e-05 1.294926e-04 -1.652018e-04
N -6.379774e+00 3.580551e+00 -5.882858e+00 1.316321e-04 -1.131762e-04 -4.899730e-04
N -6.340473e+00 3.595905e+00 -7.181742e-01 2.285178e-04 -1.298843e-04 -2.411843e-04
N -3.203348e+00 -1.917047e+00 4.338457e+00 2.037200e-04 -2.681964e-04 -3.145371e-04
N -3.152728e+00 -1.854260e+00 -5.874350e+00 3.259532e-04 1.832115e-04 -9.445530e-05
N -3.196080e+00 -1.872150e+00 -8.135692e-01 1.509298e-04 -2.536758e-05 3.027536e-04
N -1.606574e+00 9.452335e-01 4.355680e+00 -1.804517e-03 -2.183165e-04 -2.717159e-03
N -1.613367e+00 8.760053e-01 -5.844912e+00 -7.247244e-04 -4.436161e-04 -1.136861e-04
N -1.571320e+00 9.046749e-01 -8.138701e-01 -1.772092e-05 4.204800e-05 -1.319027e-04
N -3.252936e+00 3.612249e+00 4.343986e+00 5.834343e-04 -4.795038e-04 -6.533879e-04
N -3.163921e+00 3.595416e+00 -5.930061e+00 1.132897e-04 -1.470663e-04 7.745667e-04
N -3.235441e+00 3.647440e+00 -8.124849e-01 7.133081e-05 -2.074959e-04 8.167133e-04
N -1.922350e-02 -1.920763e+00 4.381855e+00 2.265954e-06 -4.186370e-04 -2.384388e-04
N -6.394456e-02 -1.850991e+00 -5.863531e+00 2.346562e-05 -2.464273e-04 -8.907839e-05
N -2.488536e-02 -1.917195e+00 -7.922884e-01 2.047901e-04 -4.315188e-04 6.208944e-05
N -2.973679e-02 1.791318e+00 1.782607e+00 -1.724490e-04 -5.102709e-07 1.929056e-04
N 1.829742e-02 1.819946e+00 6.905723e+00 2.728956e-05 5.665310e-04 2.532213e-05
N -1.687194e-02 1.741845e+00 -3.365467e+00 -5.974238e-04 -7.048449e-04 2.435072e-04
N 3.156328e+00 -3.711211e+00 1.865718e+00 -1.189769e-03 5.146784e-04 -6.512112e-04
N 3.157676e+00 -3.754525e+00 6.955260e+00 -3.756947e-05 -2.012126e-04 -2.355066e-04
N 3.116742e+00 -3.695401e+00 -3.366129e+00 -5.846087e-04 -1.325740e-04 1.919897e-04
N 1.613948e+00 -9.312620e-01 1.820262e+00 -1.558747e-04 4.248653e-04 -1.760557e-04
N 1.572151e+00 -8.963813e-01 6.955026e+00 -4.794813e-04 1.780645e-04 -3.869138e-04
N 1.566875e+00 -9.538008e-01 -3.263478e+00 -2.986487e-04 1.515737e-04 2.764616e-04
N 3.151778e+00 1.747966e+00 1.790063e+00 3.329965e-04 1.601830e-05 1.311135e-05
N 3.152726e+00 1.745986e+00 6.959376e+00 -7.268564e-05 -2.947695e-04 -2.788280e-04
N 3.107083e+00 1.762574e+00 -3.377216e+00 -1.769824e-05 -9.402523e-06 -1.454257e-04
N 6.290800e+00 -3.681833e+00 1.839853e+00 5.027468e-05 6.732711e-06 -3.969222e-04
N 6.286495e+00 -3.723960e+00 6.897102e+00 3.852215e-04 9.227440e-05 -7.628307e-04
N 6.332645e+00 -3.669550e+00 -3.301650e+00 7.915270e-05 1.353212e-04 9.452628e-05
N 4.745954e+00 -9.568648e-01 1.850396e+00 4.630969e-04 9.114935e-04 4.209014e-04
N 4.745317e+00 -8.950250e-01 6.954445e+00 -3.725008e-04 1.137637e-04 -4.339152e-04
N 4.746633e+00 -1.002999e+00 -3.296209e+00 -2.122956e-04 -2.354377e-04 1.828756e-04
N -3.197174e+00 1.800303e+00 1.842654e+00 8.386200e-04 -1.586157e-04 -1.122098e-05
N -3.246713e+00 1.823959e+00 6.903315e+00 -2.497265e-04 2.423780e-04 -9.541119e-04
N -3.163883e+00 1.817067e+00 -3.352623e+00 4.304476e-04 4.178952e-04 1.442555e-04
N 2.672064e-02 -3.733339e+00 1.749581e+00 9.858145e-04 -5.863438e-04 5.321464e-05
N 2.528474e-02 -3.722061e+00 6.910853e+00 8.211326e-05 -1.822525e-04 -3.620159e-04
N 2.177570e-02 -3.688062e+00 -3.294453e+00 8.300780e-05 1.011434e-04 -5.705434e-05
N -1.654451e+00 -9.252973e-01 1.841104e+00 -2.646566e-04 1.447923e-04 -1.126215e-04
N -1.610853e+00 -9.377979e-01 6.923633e+00 -2.734239e-04 4.840566e-05 -1.908285e-04
N -1.608351e+00 -9.573932e-01 -3.323209e+00 -1.146501e-04 8.727628e-05 -2.276509e-05
