108
Energy=-1.581048e+06 Lattice="9.481043e+00 0.000000e+00 0.000000e+00 -4.744726e+00 8.207226e+00 0.000000e+00 -7.116622e-04 -9.974096e-06 1.530602e+01" Stress="-3.301985e-02 4.699196e-03 1.273791e-04 4.689093e-03 -2.711817e-02 -7.155226e-04 1.409978e-04 -7.355097e-04 -2.264328e-02" Properties=species:S:1:pos:R:3:forces:R:3 Config_type=AlGaN_super3_25_1_1.xyz
Al 1.555675e+00 8.669771e-01 2.463837e+00 2.611989e-03 9.912990e-04 -2.611378e-03
Al 1.563814e+00 9.001890e-01 7.516150e+00 -1.443243e-03 -1.247887e-02 -3.553814e-03
Al 1.560444e+00 8.953096e-01 -2.761711e+00 -9.887762e-04 -1.246969e-02 -3.641690e-03
Al 8.386888e-04 3.599984e+00 2.481483e+00 -5.468034e-03 2.258679e-03 -1.120925e-02
Al -6.597714e-03 3.609728e+00 7.514630e+00 -2.151274e-03 -1.270602e-03 -1.749538e-03
Ga -7.452875e-03 3.610395e+00 -2.756605e+00 -2.804415e-03 -1.575090e-03 -9.605295e-04
Al 3.168918e+00 -1.876115e+00 2.464734e+00 -1.261000e-03 5.536396e-04 -5.961927e-03
Ga 3.172399e+00 -1.882457e+00 7.516117e+00 -2.612364e-03 1.011404e-03 -2.162520e-03
Al 3.171453e+00 -1.883318e+00 -2.754486e+00 -2.609513e-03 1.530886e-03 -1.893356e-03
Al -4.780692e+00 9.014623e-01 2.473653e+00 7.053263e-04 -9.602895e-03 -7.237031e-03
Al -4.785963e+00 9.012995e-01 7.516540e+00 1.269768e-03 -1.173485e-02 -1.965117e-03
Ga -4.784205e+00 8.982246e-01 -2.757517e+00 1.529797e-03 -1.437079e-02 -2.952677e-03
Ga -6.351522e+00 3.614631e+00 2.479164e+00 1.072241e-03 -1.659163e-03 -5.981033e-03
Ga -6.352533e+00 3.609959e+00 7.515626e+00 -2.163356e-04 4.193284e-04 -8.095456e-04
Ga -6.351943e+00 3.612358e+00 -2.756333e+00 7.877092e-05 -9.557016e-05 1.980572e-05
Al -3.176643e+00 -1.879559e+00 2.468469e+00 -1.407270e-04 2.434423e-03 -5.904718e-03
Ga -3.175036e+00 -1.879361e+00 7.515350e+00 -1.166563e-03 1.319230e-03 -1.186186e-03
Al -3.174158e+00 -1.881257e+00 -2.753576e+00 4.552461e-04 3.411605e-03 -6.628388e-04
Al -1.651459e+00 9.006924e-01 2.472916e+00 1.258930e-02 -6.478632e-03 -9.310477e-03
Ga -1.649334e+00 9.047147e-01 7.521879e+00 1.463314e-02 -7.264356e-03 -6.439731e-03
Al -1.650583e+00 8.987626e-01 -2.758550e+00 1.184581e-02 -7.415206e-03 -4.194135e-03
Al -3.192206e+00 3.617837e+00 2.448457e+00 7.324491e-05 1.931886e-03 2.734805e-03
Al -3.217741e+00 3.612904e+00 7.514859e+00 1.072737e-02 5.384249e-03 -3.301119e-03
Al -3.216099e+00 3.614535e+00 -2.758791e+00 1.105813e-02 3.779234e-03 -2.325860e-03
Ga -3.874610e-02 -1.874447e+00 2.473660e+00 1.198264e-02 6.500881e-03 -9.203734e-03
Ga -4.110051e-02 -1.878285e+00 7.516965e+00 1.426207e-02 8.238592e-03 -3.954182e-03
Al -3.975054e-02 -1.879047e+00 -2.755724e+00 1.012090e-02 7.634390e-03 -3.239135e-03
Al -2.438772e-02 1.790668e+00 4.987629e+00 -3.145940e-03 -4.034319e-03 -9.708478e-04
Al -2.281887e-02 1.796138e+00 -5.278402e+00 -1.820150e-03 -4.386700e-03 -2.288947e-03
Al -3.785720e-03 1.800324e+00 -2.456651e-01 -1.088392e-02 -7.846527e-03 2.867692e-02
Ga 3.170853e+00 -3.696372e+00 4.994818e+00 -1.447707e-02 -7.007343e-03 -3.947483e-03
Al 3.171931e+00 -3.693385e+00 -5.275902e+00 -1.011927e-02 -4.972983e-03 -1.982295e-03
Ga 3.171391e+00 -3.693984e+00 -2.191421e-01 -1.314993e-02 -6.435248e-03 3.077213e-02
Ga 1.604524e+00 -9.761332e-01 4.998232e+00 -1.410666e-02 9.011932e-03 -5.941792e-03
Ga 1.605434e+00 -9.772866e-01 -5.271308e+00 -1.359055e-02 9.486716e-03 -5.560791e-03
Ga 1.605756e+00 -9.781253e-01 -2.226556e-01 -1.395238e-02 8.931850e-03 2.799165e-02
Ga 3.129439e+00 1.804978e+00 4.998005e+00 -7.196643e-04 -3.014488e-03 -3.546342e-03
Al 3.128074e+00 1.802900e+00 -5.277423e+00 -6.523289e-05 -3.498890e-03 -1.475640e-03
Al 3.128533e+00 1.802370e+00 -2.435253e-01 -8.451401e-05 -3.030038e-03 3.221735e-02
Al 6.304401e+00 -3.693827e+00 4.997183e+00 1.176152e-04 -3.873176e-04 -1.062799e-03
Ga 6.305315e+00 -3.692048e+00 -5.273052e+00 -1.054858e-03 -1.223284e-03 -1.668485e-04
Ga 6.308767e+00 -3.694543e+00 -2.189800e-01 -5.232924e-06 7.655158e-05 3.519155e-02
Ga 4.740355e+00 -9.766397e-01 4.993543e+00 -1.174251e-03 1.506232e-02 -3.599258e-03
Ga 4.740904e+00 -9.772094e-01 -5.271807e+00 -1.308788e-03 1.575152e-02 -2.418911e-03
Ga 4.738776e+00 -9.776168e-01 -2.181712e-01 -2.672628e-04 1.480842e-02 3.218189e-02
Al -3.213745e+00 1.802579e+00 5.004834e+00 1.588301e-03 -3.968787e-05 -6.459761e-03
Al -3.209938e+00 1.804889e+00 -5.276534e+00 -1.955625e-06 -1.976741e-03 -2.040514e-03
Ga -3.217884e+00 1.806627e+00 -2.256589e-01 3.021037e-03 -2.499678e-03 3.393140e-02
Al -4.261150e-02 -3.688510e+00 5.000171e+00 3.139180e-03 -8.784305e-05 -3.938607e-03
Ga -3.840274e-02 -3.690726e+00 -5.273043e+00 2.559645e-03 2.686234e-04 -9.607633e-04
Al -3.792124e-02 -3.691951e+00 -2.448178e-01 2.092149e-03 1.308125e-03 3.145033e-02
Ga -1.607338e+00 -9.732829e-01 4.995190e+00 1.038484e-03 1.531336e-02 -5.386994e-03
Al -1.605264e+00 -9.741228e-01 -5.269771e+00 5.054710e-04 1.225697e-02 -1.298864e-03
Ga -1.604968e+00 -9.771255e-01 -2.230346e-01 8.096167e-04 1.615172e-02 3.126047e-02
N 1.554082e+00 9.048627e-01 4.401694e+00 -1.728061e-02 -8.488419e-03 -1.249932e-02
N 1.562982e+00 9.047115e-01 -5.874383e+00 -2.848911e-03 3.722251e-03 -1.403977e-03
N 1.561862e+00 9.012946e-01 -8.412773e-01 -5.553057e-04 4.118966e-03 2.089431e-04
N -3.582825e-03 3.601827e+00 4.398400e+00 1.485018e-02 -7.304626e-03 -7.454375e-03
N -1.160908e-02 3.607307e+00 -5.873269e+00 -1.793041e-02 -9.117901e-03 -6.015224e-03
N -5.535777e-03 3.606898e+00 -8.287328e-01 -1.842527e-03 -1.848503e-02 1.030865e-02
N 3.170876e+00 -1.882244e+00 4.390547e+00 -2.340533e-03 7.129497e-04 -2.207530e-02
N 3.172718e+00 -1.887163e+00 -5.868673e+00 -2.405896e-03 -1.783896e-02 8.075214e-03
N 3.172466e+00 -1.883772e+00 -8.298181e-01 -2.377510e-03 1.477336e-03 -1.815912e-02
N -4.778656e+00 9.032444e-01 4.393122e+00 1.821237e-02 -5.944173e-03 -8.047399e-03
N -4.787296e+00 9.048484e-01 -5.873201e+00 3.492215e-03 4.305403e-03 -1.966207e-03
N -4.788185e+00 9.010519e-01 -8.307153e-01 -1.553537e-02 -5.738874e-03 1.355843e-02
N -6.354171e+00 3.618988e+00 4.405808e+00 -9.220748e-04 2.062683e-02 1.445508e-02
N -6.352049e+00 3.607488e+00 -5.868709e+00 -1.396284e-04 -1.802532e-02 7.732764e-03
N -6.348254e+00 3.609055e+00 -8.318301e-01 1.616585e-02 -9.166518e-03 1.748012e-02
N -3.175421e+00 -1.886059e+00 4.393181e+00 -3.903085e-04 -1.792106e-02 -1.454786e-02
N -3.169559e+00 -1.877892e+00 -5.868658e+00 1.711234e-02 1.148994e-02 7.550865e-03
N -3.174242e+00 -1.882563e+00 -8.290154e-01 -1.289634e-03 1.598544e-03 -1.796464e-02
N -1.640531e+00 9.113711e-01 4.392761e+00 5.338293e-03 6.054552e-03 3.909160e-04
N -1.633949e+00 9.041435e-01 -5.858068e+00 5.239369e-03 -9.743368e-03 2.358339e-02
N -1.648127e+00 9.023993e-01 -8.373266e-01 2.799743e-02 -3.525079e-04 -4.581328e-03
N -3.229688e+00 3.608044e+00 4.405487e+00 -1.277173e-04 -2.189706e-03 -7.883920e-03
N -3.213036e+00 3.611811e+00 -5.873939e+00 2.715468e-02 -4.711746e-03 -3.825564e-03
N -3.220449e+00 3.615338e+00 -8.377879e-01 -3.157568e-03 1.618016e-02 -7.496682e-03
N -4.102468e-02 -1.881931e+00 4.401130e+00 1.261088e-02 -1.071724e-02 9.563120e-03
N -4.483318e-02 -1.877493e+00 -5.866991e+00 -4.189769e-03 1.795003e-02 1.118640e-02
N -4.031610e-02 -1.884395e+00 -8.355793e-01 1.280653e-02 -1.054192e-02 -6.356794e-03
N -3.536915e-03 1.792215e+00 1.884981e+00 -1.076025e-02 -4.698325e-03 -2.655254e-02
N 1.280969e-03 1.805266e+00 6.919613e+00 2.374244e-03 2.684380e-04 -4.828028e-03
N -6.895386e-03 1.795199e+00 -3.359182e+00 -9.754353e-03 -2.481420e-02 -2.585612e-03
N 3.143365e+00 -3.683014e+00 1.852550e+00 3.595206e-03 -6.810781e-03 -4.942587e-03
N 3.172504e+00 -3.697380e+00 6.919683e+00 -1.069769e-02 -2.377295e-02 1.685129e-02
N 3.168526e+00 -3.689905e+00 -3.356439e+00 -2.726711e-02 5.111347e-03 -4.104687e-03
N 1.610932e+00 -9.589835e-01 1.870642e+00 8.489485e-04 7.087888e-03 -1.559759e-02
N 1.606107e+00 -9.727509e-01 6.921633e+00 -1.462486e-02 2.438943e-02 1.269132e-02
N 1.606074e+00 -9.785838e-01 -3.348305e+00 -1.203257e-02 6.528285e-03 2.596240e-02
N 3.130694e+00 1.798108e+00 1.888202e+00 -1.302633e-03 -2.227986e-02 -3.629485e-02
N 3.130006e+00 1.798213e+00 6.921633e+00 1.243287e-03 -2.158977e-02 1.429996e-02
N 3.124867e+00 1.799777e+00 -3.360489e+00 -1.601242e-02 -1.091311e-02 -1.184494e-02
N 6.308177e+00 -3.682720e+00 1.860345e+00 -1.967554e-02 7.298829e-03 -1.506813e-02
N 6.301512e+00 -3.692969e+00 6.915662e+00 -1.640972e-02 -9.171422e-03 -1.304499e-02
N 6.305858e+00 -3.686468e+00 -3.351145e+00 2.834171e-04 1.919734e-02 8.417865e-03
N 4.739738e+00 -9.749569e-01 1.870077e+00 -1.431955e-03 1.113521e-02 -9.582084e-03
N 4.739505e+00 -9.714663e-01 6.919276e+00 -1.129216e-03 3.169225e-02 8.730721e-03
N 4.740137e+00 -9.828239e-01 -3.349096e+00 -9.766067e-04 -4.849660e-03 1.819799e-02
N -3.212386e+00 1.804146e+00 1.867202e+00 2.229396e-03 -1.516193e-03 -1.247141e-02
N -3.221294e+00 1.807544e+00 6.921656e+00 -1.392932e-02 6.511175e-03 -6.029799e-03
N -3.212217e+00 1.806178e+00 -3.357809e+00 1.828805e-02 8.636002e-03 -6.396638e-03
N -3.036594e-02 -3.691580e+00 1.884810e+00 1.869315e-02 -8.690803e-03 -4.371287e-02
N -3.688344e-02 -3.691184e+00 6.916872e+00 1.826999e-02 -9.005857e-03 -1.262945e-02
N -3.522950e-02 -3.687712e+00 -3.351092e+00 1.827033e-02 1.006089e-02 1.589409e-02
N -1.612556e+00 -9.724751e-01 1.870559e+00 -1.550251e-02 2.153069e-02 -1.675473e-02
N -1.607448e+00 -9.735031e-01 6.918724e+00 5.189630e-04 1.661298e-02 3.630637e-03
N -1.607169e+00 -9.772539e-01 -3.352340e+00 1.480258e-04 1.113153e-02 2.979145e-03
