108
Energy=-1077520.901433 Lattice="9.474168 0.000000 0.000000 -4.743282 8.199319 0.000000 -0.000999 0.000159 15.274911" Stress="0.000005 -0.000003 -0.000001 -0.000003 0.000000 0.000001 -0.000001 0.000001 0.000020" Properties=species:S:1:pos:R:3:forces:R:3
Al 1.557573 0.865752 2.379860 0.000515 -0.000312 0.000380
Al 1.547423 0.855679 7.493264 0.000441 -0.000159 0.000304
Al 1.553685 0.854988 -2.692449 0.000765 -0.000054 0.000599
Al -0.015021 3.598431 2.390066 -0.000430 -0.000638 0.000648
Al -0.027245 3.602182 7.497943 0.000053 0.000335 0.000257
Al -0.039811 3.605615 -2.694284 -0.000046 -0.001018 -0.000077
Al 3.138935 -1.848479 2.387097 -0.000308 0.000308 0.000293
Al 3.137524 -1.855747 7.503547 0.000149 0.000102 0.000417
Al 3.132260 -1.862418 -2.708268 0.000020 0.000151 0.000252
Al -4.782548 0.863366 2.391195 0.000389 -0.000259 -0.000159
Al -4.766874 0.860099 7.512577 -0.000100 -0.000820 -0.000420
Al -4.776717 0.864234 -2.704927 0.000030 -0.000629 0.000804
Al -6.348592 3.601748 2.359269 -0.001181 -0.001962 0.005417
Ga -6.348791 3.605080 7.522569 -0.000178 0.000013 -0.000427
Ga -6.339310 3.591068 -2.706568 0.000026 0.000505 0.000917
Ga -3.187364 -1.873284 2.409958 -0.000435 0.000849 0.000961
Al -3.182038 -1.854019 7.489525 -0.000223 0.000080 0.000420
Ga -3.185561 -1.857745 -2.712468 -0.000096 0.000807 0.001526
Ga -1.584551 0.876035 2.419177 0.000904 0.000877 0.000496
Al -1.601441 0.869055 7.488404 0.000516 -0.000361 -0.000546
Al -1.595790 0.876620 -2.700472 0.000385 -0.000387 -0.000262
Ga -3.192161 3.627639 2.385408 0.001567 -0.001124 -0.000035
Al -3.177023 3.616639 7.521358 0.000376 -0.000351 0.000133
Al -3.175471 3.623739 -2.699639 0.000641 -0.000703 -0.000338
Al -0.001903 -1.856525 2.397187 0.001185 -0.000819 0.001963
Al -0.016729 -1.841674 7.506947 0.000484 -0.000087 0.000537
Al -0.000923 -1.853333 -2.714531 0.000627 -0.000173 -0.000407
Al -0.012211 1.779727 4.960150 0.000918 -0.000120 0.001021
Ga -0.013089 1.779815 -5.239028 0.000154 0.000358 0.001098
Al -0.016129 1.792289 -0.171742 0.002854 0.000479 0.001203
Ga 3.163498 -3.673379 4.963058 -0.000001 0.000694 0.000364
Al 3.144675 -3.670174 -5.245022 -0.000110 0.000349 0.001268
Al 3.147066 -3.669762 -0.163483 0.001756 0.000703 -0.000665
Al 1.558413 -0.946315 4.945497 -0.000777 0.000506 0.001006
Al 1.567906 -0.960109 -5.244136 -0.000795 0.000712 0.001360
Al 1.573158 -0.952894 -0.160130 0.000096 0.000454 -0.001541
Ga 3.115598 1.771079 4.937288 0.000341 0.000894 -0.000405
Al 3.126222 1.769280 -5.239431 -0.000114 -0.000373 0.000749
Al 3.114908 1.784620 -0.147994 0.002082 -0.004705 -0.000776
Al 6.290706 -3.681345 4.954448 0.000589 -0.000652 -0.000713
Al 6.288013 -3.674401 -5.247192 0.000601 -0.000436 -0.000002
Al 6.281432 -3.698559 -0.145522 0.000536 0.000318 -0.000457
Al 4.713302 -0.955047 4.964317 -0.000087 -0.000314 0.000482
Al 4.708015 -0.957686 -5.254760 -0.000004 -0.000270 0.001025
Al 4.697208 -0.955771 -0.159104 -0.000249 0.001259 0.000059
Ga -3.184981 1.764140 4.980018 -0.000770 0.000321 0.000270
Ga -3.195970 1.783863 -5.233641 0.000041 0.000144 0.000716
Ga -3.196012 1.789719 -0.173666 -0.000032 -0.001201 -0.000064
Ga -0.034066 -3.658536 4.961128 -0.000898 -0.000372 0.000369
Al -0.017054 -3.664486 -5.237177 -0.000056 -0.000205 -0.000073
Al -0.015608 -3.675159 -0.155663 -0.001398 0.000625 -0.002913
Al -1.593898 -0.955053 4.968542 0.000460 -0.001291 0.000563
Al -1.597323 -0.959335 -5.252022 0.000042 -0.000551 0.000351
Ga -1.577304 -0.960919 -0.158138 -0.000876 -0.000184 0.000326
N 1.507407 0.844002 4.307696 0.000081 -0.000377 -0.001398
N 1.589155 0.841475 -5.868212 0.001040 -0.000435 -0.001076
N 1.553791 0.868235 -0.766293 0.000194 -0.000158 0.000630
N 0.016983 3.577419 4.320115 -0.000219 -0.000434 -0.001601
N -0.024320 3.644951 -5.866741 -0.000510 0.000688 -0.000582
N -0.029775 3.608521 -0.774988 -0.000003 0.000155 0.001000
N 3.139592 -1.814355 4.319782 -0.000163 0.000576 -0.001792
N 3.137876 -1.861300 -5.850740 -0.000400 -0.000093 -0.000550
N 3.139975 -1.861624 -0.779902 -0.000325 0.000226 -0.000216
N -4.763775 0.820977 4.305841 0.000308 -0.000258 -0.001208
N -4.805924 0.845703 -5.856994 0.000133 0.000244 -0.000504
N -4.814158 0.847480 -0.789796 -0.000734 -0.000092 0.000569
N -6.380239 3.628606 4.296354 -0.000637 0.000510 -0.002239
N -6.343051 3.603900 -5.779903 0.000062 0.000269 0.001647
N -6.344466 3.599639 -0.717812 0.000533 0.002753 0.001281
N -3.180317 -1.859464 4.401931 -0.000130 0.000037 -0.000401
N -3.178387 -1.859776 -5.853420 -0.000073 0.000366 -0.000354
N -3.215178 -1.886253 -0.732257 -0.000920 -0.000260 0.000781
N -1.560419 0.848701 4.400948 -0.000045 0.001064 -0.001651
N -1.605656 0.830155 -5.879425 0.000302 -0.000573 -0.000293
N -1.562002 0.894691 -0.794024 -0.000826 -0.000760 -0.000786
N -3.182956 3.608177 4.350431 0.000044 0.000088 -0.001848
N -3.182547 3.655603 -5.843024 0.000059 0.000192 -0.000845
N -3.178112 3.663602 -0.778958 -0.001194 -0.000415 0.000269
N -0.017473 -1.808587 4.322109 0.000458 -0.000328 -0.001768
N -0.018934 -1.850749 -5.847398 0.000593 -0.000705 -0.000345
N 0.034039 -1.883924 -0.801095 -0.000920 -0.000116 0.000808
N 0.022724 1.803531 1.756903 -0.001999 0.000912 -0.001619
N -0.019582 1.783467 6.890347 0.000101 0.000266 -0.000574
N -0.016773 1.781663 -3.261260 -0.000911 0.000660 0.001234
N 3.186311 -3.654165 1.763450 0.000146 -0.000461 0.000473
N 3.145363 -3.680439 6.940595 -0.001215 -0.000052 0.000386
N 3.143465 -3.682029 -3.316010 -0.000379 -0.000047 0.000336
N 1.564115 -0.954165 1.767178 -0.000553 -0.000304 0.001051
N 1.562558 -0.956528 6.880157 -0.000938 0.000524 -0.001599
N 1.566052 -0.952813 -3.319547 -0.000639 0.000685 0.000362
N 3.133121 1.775359 1.778282 -0.000423 0.001034 0.001308
N 3.129634 1.737231 6.912085 0.000115 -0.000314 0.000279
N 3.124967 1.728950 -3.327637 0.000108 -0.000393 -0.000032
N 6.288785 -3.731258 1.774087 0.000343 0.000724 -0.003351
N 6.257035 -3.663276 6.875058 -0.000176 0.000016 -0.001374
N 6.252546 -3.710359 -3.343092 -0.000424 0.000090 0.000055
N 4.680492 -0.929180 1.762664 -0.000456 -0.000070 -0.000952
N 4.713283 -0.949729 6.891624 -0.000363 0.000254 -0.000650
N 4.675983 -0.930820 -3.338943 -0.000785 0.000271 -0.000325
N -3.219461 1.760853 1.802383 -0.000656 -0.000701 -0.000795
N -3.193423 1.787575 6.960749 0.000521 0.000213 0.000102
N -3.187871 1.784513 -3.246876 0.000216 0.000629 0.000545
N -0.068355 -3.654150 1.756989 0.002041 0.002119 0.000790
N 0.012648 -3.653378 6.934894 0.000991 -0.000048 -0.000186
N 0.018586 -3.658068 -3.323903 0.000415 -0.000018 -0.000584
N -1.553383 -0.975473 1.810944 -0.001745 0.000352 -0.000994
N -1.597258 -0.953362 6.891735 -0.000103 -0.000327 -0.000108
N -1.556628 -0.928256 -3.331409 -0.000325 0.000516 0.000422
