108
Energy=-8.486435e+05 Lattice="9.445881e+00 0.000000e+00 0.000000e+00 -4.724843e+00 8.176970e+00 0.000000e+00 -9.638134e-03 -5.935970e-03 1.519061e+01" Stress="5.791166e-04 -1.026956e-04 -4.314798e-04 -1.054593e-04 -1.420068e-04 -2.797377e-04 -4.458489e-04 -2.840838e-04 9.991920e-04" Properties=species:S:1:pos:R:3:forces:R:3 Config_type=AlGaN_super3_9_1_85.xyz
Al 1.551012e+00 8.686096e-01 2.422663e+00 -4.439595e-06 1.478170e-04 -8.983526e-05
Al 1.551921e+00 8.742585e-01 7.443881e+00 -3.147159e-05 1.725478e-04 4.999112e-05
Al 1.552992e+00 8.725225e-01 -2.719104e+00 1.526709e-05 1.256873e-05 -2.970846e-05
Al -9.683354e-03 3.598159e+00 2.418420e+00 1.556313e-04 3.405171e-05 1.670317e-04
Al -2.869919e-02 3.591279e+00 7.442704e+00 -2.301552e-05 2.576616e-05 -6.103435e-05
Al -2.008551e-02 3.589866e+00 -2.714722e+00 5.346201e-05 -3.709619e-05 1.026309e-04
Al 3.134540e+00 -1.846308e+00 2.413853e+00 1.560812e-04 -3.147213e-05 1.070329e-04
Al 3.130222e+00 -1.859459e+00 7.445152e+00 1.167087e-04 -8.872252e-05 -4.486691e-07
Al 3.127263e+00 -1.850333e+00 -2.709825e+00 -1.914283e-04 -1.329906e-05 -3.305270e-05
Al -4.744435e+00 8.595895e-01 2.402777e+00 5.910320e-05 2.073811e-06 -1.519243e-05
Al -4.756519e+00 8.646160e-01 7.432809e+00 5.973680e-05 -3.819755e-05 -8.074778e-05
Al -4.751123e+00 8.685826e-01 -2.689318e+00 -1.810955e-04 2.531584e-04 2.334472e-04
Al -6.336584e+00 3.597600e+00 2.390451e+00 -4.230768e-05 1.079293e-04 -1.008042e-04
Al -6.336382e+00 3.579566e+00 7.459310e+00 -1.623212e-05 8.242472e-06 -2.046835e-05
Al -6.317252e+00 3.593322e+00 -2.699853e+00 -9.035039e-06 -2.127942e-05 -1.907855e-05
Al -3.173186e+00 -1.859448e+00 2.380014e+00 -8.848875e-06 -6.093519e-05 -2.614277e-05
Al -3.182606e+00 -1.858035e+00 7.444156e+00 3.461387e-05 3.658761e-05 -4.012632e-05
Ga -3.173405e+00 -1.854376e+00 -2.678303e+00 8.170072e-05 -7.464818e-05 3.674955e-05
Al -1.601307e+00 8.605649e-01 2.399466e+00 -2.553921e-04 -1.875141e-06 3.461361e-05
Al -1.601193e+00 8.694715e-01 7.435084e+00 -4.971657e-06 -2.430894e-05 2.548195e-04
Al -1.587416e+00 8.732601e-01 -2.684737e+00 -1.806750e-05 8.136562e-05 4.066710e-05
Ga -3.174464e+00 3.586503e+00 2.388361e+00 -9.219654e-05 -6.109940e-05 -1.097718e-04
Al -3.165409e+00 3.586564e+00 7.451027e+00 1.257757e-04 -8.705873e-05 -1.527915e-04
Al -3.174444e+00 3.600441e+00 -2.685570e+00 -5.127913e-05 1.111933e-04 1.089486e-04
Al -3.191724e-02 -1.848064e+00 2.392682e+00 -8.148809e-05 -1.304839e-04 -9.558204e-05
Ga -2.833648e-02 -1.849524e+00 7.464459e+00 -8.351740e-05 -1.130288e-05 -1.752181e-05
Al -1.649258e-02 -1.856161e+00 -2.702696e+00 -6.986678e-05 5.288717e-05 -2.903412e-04
Al -2.715190e-02 1.776063e+00 4.920840e+00 -5.251012e-05 6.053795e-05 -8.597457e-05
Al -1.360266e-02 1.778888e+00 -5.227296e+00 -1.212774e-04 -3.398814e-05 -1.657143e-05
Ga -2.866375e-02 1.781258e+00 -1.379941e-01 -2.460364e-05 -2.940312e-05 -3.348708e-05
Al 3.138122e+00 -3.670953e+00 4.932958e+00 1.593051e-04 6.613873e-05 -5.926006e-06
Al 3.134520e+00 -3.664573e+00 -5.219775e+00 -7.693874e-06 -7.488352e-06 -7.656046e-05
Ga 3.138269e+00 -3.667558e+00 -1.562688e-01 -1.094123e-04 -7.485265e-05 -3.476846e-05
Al 1.557007e+00 -9.407713e-01 4.917963e+00 -2.511550e-04 -1.944202e-04 -3.237674e-04
Al 1.562415e+00 -9.429429e-01 -5.211289e+00 -1.772624e-04 -8.444349e-05 -5.597940e-05
Ga 1.550750e+00 -9.546715e-01 -1.475958e-01 -2.517875e-05 6.605938e-05 -6.661827e-06
Al 3.118387e+00 1.771908e+00 4.919690e+00 2.940901e-05 -2.650456e-05 -5.053951e-06
Al 3.122742e+00 1.779142e+00 -5.219639e+00 -5.043566e-05 3.526207e-05 -3.166253e-06
Ga 3.138996e+00 1.785104e+00 -1.454694e-01 8.038897e-05 5.544483e-05 -1.348135e-05
Al 6.266079e+00 -3.672083e+00 4.926478e+00 -1.685350e-04 4.381619e-05 -1.567209e-05
Al 6.278589e+00 -3.673590e+00 -5.234541e+00 6.250112e-07 -1.774684e-05 -4.304365e-05
Al 6.282324e+00 -3.666900e+00 -1.403999e-01 2.513851e-04 7.569671e-05 1.374799e-04
Al 4.701346e+00 -9.518126e-01 4.920294e+00 -3.208858e-05 -1.855738e-05 -5.343859e-05
Al 4.697931e+00 -9.503899e-01 -5.236207e+00 -1.369066e-05 2.084328e-05 -1.412077e-04
Al 4.710021e+00 -9.437620e-01 -1.318786e-01 2.551203e-04 2.475526e-04 1.928979e-04
Al -3.170686e+00 1.761701e+00 4.938104e+00 3.062432e-05 -3.476368e-05 -4.664522e-06
Ga -3.168046e+00 1.776847e+00 -5.215803e+00 7.274670e-05 -3.920097e-05 -5.546836e-05
Al -3.175585e+00 1.763663e+00 -1.648696e-01 -7.720392e-05 -6.219806e-05 9.576330e-05
Ga -3.383065e-02 -3.676346e+00 4.929847e+00 -1.563413e-05 1.993294e-05 -4.503877e-05
Al -2.231442e-02 -3.672741e+00 -5.210690e+00 -7.146815e-05 -2.001250e-04 7.170526e-05
Al -3.629290e-02 -3.667137e+00 -1.597992e-01 -3.905511e-05 -3.210202e-04 9.347967e-05
Al -1.611297e+00 -9.422858e-01 4.907495e+00 -1.344487e-04 3.848291e-05 -6.550183e-05
Al -1.594111e+00 -9.467914e-01 -5.212605e+00 -8.020747e-05 2.040800e-04 -2.930498e-04
Al -1.600753e+00 -9.509840e-01 -1.386656e-01 -1.561829e-04 1.250522e-04 4.445044e-05
N 1.547751e+00 8.698624e-01 4.332084e+00 4.902549e-06 -5.921060e-05 2.908163e-05
N 1.556100e+00 8.709871e-01 -5.822066e+00 -8.507085e-06 -3.876273e-05 -1.132485e-06
N 1.552171e+00 8.724176e-01 -8.146648e-01 3.215030e-05 -2.078379e-05 4.767782e-05
N -2.318636e-02 3.595748e+00 4.334096e+00 4.427380e-05 3.972523e-05 9.680278e-05
N -2.290411e-02 3.596334e+00 -5.826835e+00 -2.096101e-06 -1.539510e-05 3.634047e-05
N 2.465949e-02 3.617985e+00 -8.035553e-01 -2.637300e-04 -9.510378e-05 -2.786226e-04
N 3.127426e+00 -1.857516e+00 4.328469e+00 -8.226264e-06 3.793588e-05 6.216363e-05
N 3.127606e+00 -1.855612e+00 -5.826329e+00 1.259537e-06 -1.210084e-05 2.517063e-05
N 3.173810e+00 -1.825832e+00 -8.003235e-01 -2.059962e-04 -1.605920e-04 -4.930388e-05
N -4.745102e+00 8.674164e-01 4.326361e+00 2.262853e-05 1.120321e-05 5.373444e-05
N -4.785306e+00 8.499833e-01 -5.847835e+00 3.866820e-05 2.182675e-05 1.033247e-04
N -4.710029e+00 8.395468e-01 -7.756669e-01 -1.125601e-05 -5.674027e-05 -3.128941e-05
N -6.370502e+00 3.572304e+00 4.299854e+00 1.372191e-04 -1.776856e-05 2.984912e-05
N -6.317976e+00 3.593236e+00 -5.816885e+00 1.732048e-05 -4.127273e-05 2.239333e-05
N -6.325298e+00 3.642789e+00 -7.808361e-01 7.157554e-05 -3.530322e-05 -8.249594e-05
N -3.176185e+00 -1.861390e+00 4.306066e+00 6.774535e-06 2.232754e-05 5.118116e-05
N -3.165810e+00 -1.852573e+00 -5.825017e+00 -2.821613e-05 -3.288171e-06 3.398345e-06
N -3.171896e+00 -1.854798e+00 -6.928978e-01 -1.528327e-05 -7.330832e-05 -4.481084e-05
N -1.604129e+00 8.701799e-01 4.318423e+00 8.458263e-07 -2.782630e-05 5.696371e-05
N -1.552361e+00 8.464651e-01 -5.845070e+00 8.506790e-05 -3.525029e-05 -2.638002e-04
N -1.630067e+00 8.431872e-01 -7.699445e-01 1.078490e-04 -6.223382e-05 -1.194317e-04
N -3.133198e+00 3.566480e+00 4.358764e+00 -1.308333e-04 -7.136962e-05 -2.341440e-05
N -3.165757e+00 3.643710e+00 -5.830307e+00 6.887249e-05 -1.336051e-05 1.654447e-04
N -3.212883e+00 3.575891e+00 -7.625484e-01 4.872907e-05 7.803759e-05 -1.005791e-04
N -2.793992e-02 -1.810746e+00 4.305265e+00 4.435302e-04 1.301004e-04 2.361947e-04
N -1.841451e-02 -1.852342e+00 -5.755540e+00 2.863335e-04 3.131485e-04 -2.180641e-05
N -6.384249e-02 -1.875145e+00 -7.807873e-01 8.386652e-06 1.620111e-04 1.020595e-04
N -2.374467e-02 1.779246e+00 1.848305e+00 2.884551e-04 -1.717605e-04 -1.751144e-04
N -2.575599e-02 1.775139e+00 6.841393e+00 1.722240e-05 1.189529e-06 5.750630e-05
N -2.549709e-02 1.777633e+00 -3.308030e+00 -1.163260e-05 2.780853e-05 5.650828e-05
N 3.173614e+00 -3.647773e+00 1.819358e+00 -1.489376e-04 3.720394e-05 -8.315971e-05
N 3.126175e+00 -3.674068e+00 6.849166e+00 -2.608489e-06 5.258108e-05 4.666880e-05
N 3.126598e+00 -3.673112e+00 -3.295646e+00 4.064769e-05 2.619575e-05 3.083386e-05
N 1.554295e+00 -9.480427e-01 1.838833e+00 -1.033004e-04 2.037561e-04 -1.087874e-04
N 1.589472e+00 -9.266445e-01 6.830274e+00 -1.109829e-04 -1.090038e-04 1.464961e-05
N 1.555924e+00 -9.472931e-01 -3.296395e+00 -7.433258e-05 1.462299e-06 -2.281323e-05
N 3.125881e+00 1.774269e+00 1.838956e+00 -3.129928e-04 -2.219431e-04 3.520748e-05
N 3.119411e+00 1.777542e+00 6.838135e+00 -9.260918e-06 1.605374e-05 2.934673e-05
N 3.132220e+00 1.780475e+00 -3.299005e+00 -5.814703e-05 2.860704e-05 -2.402780e-05
N 6.270493e+00 -3.678467e+00 1.781358e+00 -3.669987e-05 2.415011e-05 6.879874e-05
N 6.272559e+00 -3.675442e+00 6.849437e+00 1.428299e-05 3.867016e-05 4.638248e-05
N 6.279459e+00 -3.714426e+00 -3.325287e+00 -5.551248e-06 3.280445e-05 2.065468e-05
N 4.695206e+00 -9.463550e-01 1.791785e+00 -8.799099e-06 1.890022e-05 5.438356e-05
N 4.697556e+00 -9.534913e-01 6.839219e+00 -1.295841e-05 3.332007e-05 3.799825e-05
N 4.665643e+00 -9.218113e-01 -3.326839e+00 2.213585e-04 -1.507108e-04 -1.553244e-04
N -3.174177e+00 1.724030e+00 1.755205e+00 2.064146e-04 -9.364417e-05 1.445033e-04
N -3.176299e+00 1.772301e+00 6.854496e+00 9.670184e-06 9.448736e-07 2.564100e-05
N -3.169832e+00 1.778656e+00 -3.238543e+00 2.701394e-04 -1.716285e-04 -1.014721e-04
N -6.727075e-02 -3.649389e+00 1.763896e+00 1.279212e-04 1.969228e-04 1.618763e-04
N -3.083063e-02 -3.722750e+00 6.892698e+00 -8.988343e-05 8.378391e-05 1.911378e-05
N -1.953162e-02 -3.676107e+00 -3.292867e+00 -1.450462e-05 4.076998e-05 1.127047e-05
N -1.596203e+00 -9.458461e-01 1.785124e+00 1.819952e-05 4.349756e-05 -1.299858e-06
N -1.643915e+00 -9.296162e-01 6.818725e+00 -7.800715e-05 -5.568841e-05 7.625812e-05
N -1.561273e+00 -9.205183e-01 -3.306536e+00 1.470566e-04 -1.894855e-04 4.187266e-04
