108
Energy=-1489500.273352 Lattice="9.522845 0.000000 0.000000 -4.765094 8.247326 0.000000 -0.002220 0.002682 15.370860" Stress="-0.000000 -0.000001 0.000000 -0.000001 0.000002 0.000001 0.000000 0.000001 -0.000001" Properties=species:S:1:pos:R:3:forces:R:3
Al 1.565239 0.881161 2.394359 0.000717 -0.001194 -0.000455
Al 1.558053 0.860256 7.523495 0.000420 -0.000325 0.000328
Al 1.552475 0.860460 -2.687982 0.000220 0.000135 0.000427
Al -0.032731 3.613560 2.392859 -0.000218 -0.000199 -0.000002
Al -0.024292 3.623947 7.545501 -0.000182 -0.000036 0.000642
Al -0.035910 3.625650 -2.703600 -0.000910 -0.000892 0.000685
Al 3.147218 -1.867003 2.411854 -0.001327 -0.000582 0.000189
Al 3.138308 -1.857695 7.530368 -0.000155 -0.000188 -0.000047
Al 3.132048 -1.883050 -2.709200 -0.000008 -0.000313 -0.000027
Al -4.804217 0.881263 2.421579 0.001040 0.000313 -0.000889
Al -4.787685 0.872285 7.523634 -0.000015 -0.000067 0.000249
Ga -4.792352 0.874736 -2.696137 0.000090 0.000035 0.000230
Al -6.364962 3.606836 2.391565 0.000091 0.000347 -0.000142
Ga -6.383083 3.620367 7.549519 0.000081 0.000021 0.000130
Ga -6.386413 3.619197 -2.691732 0.000237 -0.000055 0.000150
Ga -3.209286 -1.870116 2.416978 0.000436 0.000031 0.000116
Ga -3.208314 -1.871172 7.551603 0.000089 0.000003 0.000120
Ga -3.187603 -1.874763 -2.716864 0.000040 0.000112 -0.000123
Ga -1.598051 0.898147 2.417423 0.000255 -0.000307 0.000229
Ga -1.607772 0.890560 7.538016 0.000218 -0.000126 0.000399
Al -1.593455 0.871228 -2.709170 -0.000082 0.000296 -0.000126
Al -3.197592 3.632168 2.397547 0.000127 0.000174 -0.000079
Ga -3.188588 3.624874 7.551827 0.000333 -0.000452 0.000240
Ga -3.173808 3.637114 -2.705147 0.000074 -0.000082 0.000305
Ga 0.000096 -1.874228 2.384151 0.000425 0.000133 0.000654
Al 0.003139 -1.851534 7.550044 0.000238 0.000029 0.000633
Al -0.009978 -1.847758 -2.692665 0.000050 -0.000197 0.000434
Al -0.016797 1.792621 4.973433 0.000176 0.000059 0.000426
Ga -0.022366 1.795212 -5.254792 -0.000343 -0.000017 0.000624
Al -0.017499 1.786208 -0.170856 0.000001 0.000205 -0.000796
Ga 3.159081 -3.704229 4.960443 -0.000186 0.000190 0.000523
Al 3.165836 -3.698590 -5.276772 0.000072 0.000167 -0.000019
Al 3.148051 -3.698672 -0.136698 0.000612 0.000177 0.000367
Al 1.574445 -0.943769 4.971293 -0.000271 -0.000218 0.000324
Al 1.561170 -0.961315 -5.264217 0.000085 -0.000369 0.000252
Al 1.564795 -0.954629 -0.161888 -0.000131 0.000068 -0.000028
Ga 3.147210 1.771976 4.960414 -0.000027 -0.000066 0.000655
Ga 3.145132 1.778914 -5.282892 -0.000037 -0.000215 0.000504
Al 3.132375 1.786201 -0.118530 -0.000051 0.000061 -0.000030
Ga 6.313240 -3.716156 4.957520 0.000138 -0.000234 0.000367
Al 6.310313 -3.705889 -5.257372 -0.000045 -0.000241 0.000121
Ga 6.321225 -3.719799 -0.132812 -0.000135 -0.000085 0.000010
Al 4.722308 -0.941122 4.976844 -0.000405 -0.000110 0.000008
Ga 4.731303 -0.962688 -5.276398 -0.000419 0.000136 0.000155
Ga 4.716755 -0.961032 -0.139365 -0.000131 -0.000066 -0.000056
Al -3.202427 1.790675 4.950647 -0.000548 0.000377 0.000507
Al -3.190327 1.785497 -5.259131 -0.000075 -0.000029 0.000589
Ga -3.189465 1.798320 -0.134767 -0.000238 -0.000065 0.000787
Ga -0.008970 -3.702508 4.970294 -0.000078 -0.000279 0.000665
Ga -0.014179 -3.683396 -5.260773 -0.000091 0.000136 0.000119
Al -0.016691 -3.694828 -0.145811 0.000151 0.000062 -0.000169
Ga -1.599735 -0.941689 4.988014 -0.000209 -0.000220 0.000200
Al -1.592955 -0.954576 -5.262046 -0.000093 -0.000072 -0.000010
Al -1.586395 -0.949275 -0.164845 -0.000192 0.000089 0.000386
N 1.516612 0.850556 4.324162 -0.000411 0.000139 -0.000072
N 1.554419 0.821415 -5.930318 0.000007 -0.000142 -0.000050
N 1.566369 0.873003 -0.760444 0.000303 0.000042 -0.000503
N -0.031271 3.569697 4.302853 -0.000052 -0.000046 -0.000260
N -0.023878 3.665522 -5.904000 -0.000062 0.000328 -0.000481
N -0.073899 3.607502 -0.780604 -0.000445 -0.000044 0.000234
N 3.147401 -1.823494 4.337309 0.000229 0.000260 -0.000084
N 3.102756 -1.893255 -5.915485 -0.000224 0.000028 0.000321
N 3.105820 -1.903295 -0.789156 -0.000364 -0.000233 -0.000110
N -4.747673 0.852392 4.335729 0.000131 -0.000174 0.000200
N -4.738303 0.899253 -5.928161 0.000514 0.000044 -0.000578
N -4.829126 0.904165 -0.732865 0.000070 0.000198 0.000161
N -6.366678 3.621644 4.303572 -0.000006 0.000068 -0.000625
N -6.414102 3.650287 -5.852942 -0.000091 0.000327 -0.000220
N -6.335222 3.597227 -0.713796 0.000321 -0.000260 0.000137
N -3.237416 -1.842280 4.389271 -0.000049 0.000300 -0.000257
N -3.152805 -1.895757 -5.835597 0.000255 0.000052 0.000054
N -3.156776 -1.851763 -0.743491 0.000203 0.000220 0.000281
N -1.604644 0.928814 4.397156 0.000728 -0.000354 -0.000310
N -1.648491 0.857042 -5.850418 0.000446 -0.000115 -0.000494
N -1.574111 0.855248 -0.787858 0.000546 -0.000209 0.000194
N -3.196310 3.585387 4.314572 0.000118 -0.000053 -0.000287
N -3.154740 3.597928 -5.836216 0.000310 -0.000133 -0.000234
N -3.192786 3.674395 -0.725909 -0.000390 0.000022 -0.000133
N 0.023670 -1.844861 4.357222 0.000311 0.000309 -0.000491
N -0.013642 -1.818143 -5.901628 0.000093 0.000169 -0.000355
N -0.017989 -1.868466 -0.761189 0.000265 -0.000236 -0.000514
N 0.021495 1.813529 1.749480 -0.000682 0.000487 0.000165
N 0.022309 1.822235 6.903821 -0.000337 0.000356 -0.000506
N -0.016292 1.794368 -3.263391 -0.000038 -0.000010 -0.000253
N 3.156501 -3.696568 1.797339 -0.000101 -0.000254 -0.000074
N 3.197294 -3.678623 6.946682 0.000004 0.000093 -0.000327
N 3.202325 -3.679413 -3.356182 -0.000243 0.000593 0.000000
N 1.614980 -0.930633 1.754544 -0.000220 0.000951 0.000566
N 1.566890 -0.954262 6.901339 -0.000188 0.000139 -0.000665
N 1.565353 -0.955263 -3.322602 -0.000138 0.000242 -0.000867
N 3.145602 1.786675 1.806418 0.000050 -0.000383 -0.000181
N 3.146749 1.744261 6.947589 -0.000146 -0.000066 -0.000433
N 3.102401 1.761736 -3.312479 -0.000511 -0.000307 -0.000292
N 6.324378 -3.753247 1.839672 0.000158 0.000140 -0.000307
N 6.284285 -3.728750 6.927927 -0.000204 -0.000168 -0.000365
N 6.278823 -3.736732 -3.344379 0.000759 0.000441 -0.000375
N 4.690294 -0.933537 1.832223 0.000693 0.000918 -0.000364
N 4.692547 -0.931821 6.907332 -0.000051 0.000067 -0.000199
N 4.690697 -0.981773 -3.304366 -0.000122 0.000117 -0.000123
N -3.236803 1.813580 1.839033 -0.000862 -0.000254 -0.000374
N -3.241100 1.775370 6.869603 -0.000272 0.000115 -0.000333
N -3.158245 1.767471 -3.342275 0.000216 -0.000326 -0.000159
N -0.019430 -3.749040 1.771265 0.000143 -0.000258 -0.000028
N -0.018395 -3.655596 6.950724 -0.000066 0.000322 -0.000340
N -0.021951 -3.650946 -3.288412 0.000047 0.000228 0.000051
N -1.607044 -0.948180 1.744323 -0.000306 0.000209 -0.000448
N -1.565772 -0.978087 6.953437 -0.000200 0.000013 -0.000116
N -1.557856 -0.933162 -3.339189 0.000044 0.000032 0.000067
