108
Energy=-1.855703e+06 Lattice="9.551197e+00 0.000000e+00 0.000000e+00 -4.793782e+00 8.265726e+00 0.000000e+00 -1.354243e-01 1.322700e-01 1.535805e+01" Stress="-1.504829e-02 1.225100e-03 -5.408337e-03 1.217260e-03 -1.318400e-02 5.355741e-03 -5.418892e-03 5.356611e-03 -1.899928e-02" Properties=species:S:1:pos:R:3:forces:R:3 Config_type=AlGaN_super3_31_1_3.xyz
Al 1.503451e+00 9.520164e-01 2.447517e+00 1.234104e-03 -6.815731e-03 -4.041985e-03
Al 1.485126e+00 9.607178e-01 7.538072e+00 1.455227e-03 -6.867562e-03 -1.935678e-03
Al 1.612279e+00 8.330795e-01 -2.744368e+00 2.847744e-04 -7.100805e-03 -7.420228e-04
Al -8.410758e-02 3.689665e+00 2.430132e+00 -3.076586e-04 -1.751331e-04 -8.208615e-04
Al -9.440292e-02 3.698147e+00 7.537036e+00 -7.318457e-04 -2.924122e-04 -4.663394e-04
Ga 3.219335e-02 3.577000e+00 -2.737440e+00 -2.757525e-03 -1.507448e-03 4.191849e-04
Al 3.122636e+00 -1.817301e+00 2.445353e+00 -8.318080e-04 -1.904262e-03 -3.234166e-03
Al 3.109047e+00 -1.817147e+00 7.531314e+00 -1.724344e-04 6.868786e-04 5.087891e-05
Ga 3.226641e+00 -1.938379e+00 -2.737610e+00 -2.039748e-03 3.483827e-04 -5.317518e-04
Al -4.871704e+00 9.451363e-01 2.438636e+00 2.582771e-03 -4.231457e-03 -1.978803e-03
Ga -4.891645e+00 9.637378e-01 7.527945e+00 1.370926e-03 -7.953556e-03 -2.201541e-03
Ga -4.769505e+00 8.461354e-01 -2.721159e+00 3.977093e-04 -7.646413e-03 -1.728089e-03
Ga -6.456146e+00 3.686969e+00 2.448404e+00 1.608589e-03 -7.120077e-04 -4.232408e-03
Al -6.475571e+00 3.710081e+00 7.531002e+00 9.206005e-04 -1.497898e-04 -3.162138e-04
Ga -6.353904e+00 3.589389e+00 -2.721702e+00 2.338577e-03 -8.269600e-04 2.571937e-03
Ga -3.259853e+00 -1.827764e+00 2.422020e+00 1.380264e-03 -4.986721e-04 1.932627e-03
Ga -3.269544e+00 -1.814762e+00 7.526928e+00 4.450460e-05 1.421701e-03 -1.330403e-03
Ga -3.139580e+00 -1.935789e+00 -2.724454e+00 -3.588014e-04 1.620433e-03 -8.725524e-04
Al -1.702142e+00 9.504341e-01 2.429578e+00 8.368132e-03 -5.796401e-03 -3.772686e-03
Al -1.706346e+00 9.715441e-01 7.535041e+00 6.196808e-03 -4.701887e-03 -1.889334e-03
Ga -1.591288e+00 8.454497e-01 -2.721341e+00 9.012677e-03 -3.876684e-03 -1.774963e-03
Al -3.288655e+00 3.690297e+00 2.433058e+00 7.228427e-03 -2.157950e-04 -4.504375e-04
Ga -3.307206e+00 3.718419e+00 7.532573e+00 6.598685e-03 2.409240e-03 -1.639860e-03
Ga -3.187593e+00 3.594973e+00 -2.734799e+00 6.985639e-03 4.274879e-03 -1.786699e-03
Ga -7.999815e-02 -1.825518e+00 2.448885e+00 9.216353e-03 2.574165e-03 -5.577542e-03
Al -9.535196e-02 -1.809834e+00 7.531381e+00 5.755163e-03 2.034195e-03 -1.433906e-03
Al 2.444898e-02 -1.925287e+00 -2.733366e+00 7.649778e-03 1.714858e-03 1.544918e-03
Ga -8.354976e-02 1.868761e+00 4.981161e+00 -7.342096e-03 -4.047830e-03 5.812781e-04
Al 3.984632e-02 1.743088e+00 -5.292420e+00 -5.255396e-03 -1.857796e-03 -3.154227e-04
Ga 3.609615e-02 1.754973e+00 -1.628230e-01 -1.098555e-02 -1.892849e-03 1.305454e-02
Ga 3.127184e+00 -3.645627e+00 4.976792e+00 -8.040644e-03 -4.478833e-03 -3.673462e-04
Al 3.240870e+00 -3.773267e+00 -5.291346e+00 -4.028211e-03 -1.945535e-03 -1.394359e-03
Ga 3.238768e+00 -3.772325e+00 -1.625457e-01 -1.143179e-02 6.377009e-04 1.514659e-02
Ga 1.540857e+00 -9.130587e-01 4.993448e+00 -7.592289e-03 4.532286e-03 -2.086321e-03
Al 1.651873e+00 -1.036903e+00 -5.291056e+00 -5.627302e-03 4.654775e-03 -1.608334e-03
Ga 1.648744e+00 -1.021419e+00 -1.706970e-01 -1.306155e-02 7.276360e-03 1.382097e-02
Ga 3.085406e+00 1.870009e+00 4.987204e+00 1.412788e-03 -2.188662e-03 5.269344e-04
Ga 3.200037e+00 1.749843e+00 -5.285098e+00 -4.506738e-04 -5.407216e-04 -8.783201e-05
Ga 3.191123e+00 1.757086e+00 -1.656443e-01 -3.716324e-03 3.830389e-03 1.607560e-02
Ga 6.290406e+00 -3.650469e+00 4.988539e+00 -8.729949e-05 2.139814e-04 1.400126e-03
Ga 6.413055e+00 -3.776688e+00 -5.289517e+00 -3.268902e-04 -1.435087e-03 -1.435264e-04
Al 6.384925e+00 -3.741480e+00 -1.803024e-01 2.440893e-03 -1.915430e-03 1.783429e-02
Al 4.698650e+00 -9.078460e-01 4.978203e+00 -5.919887e-05 6.388082e-03 3.947148e-04
Ga 4.818787e+00 -1.033936e+00 -5.279636e+00 -1.378050e-03 7.142705e-03 -1.472836e-03
Ga 4.822055e+00 -1.019400e+00 -1.643022e-01 -6.738367e-03 1.231140e-02 1.301537e-02
Ga -3.297220e+00 1.870862e+00 4.969800e+00 7.150567e-04 3.880469e-04 7.107803e-04
Ga -3.165836e+00 1.760862e+00 -5.284151e+00 1.263136e-03 -1.278739e-03 -1.027605e-03
Al -3.203058e+00 1.780808e+00 -1.821012e-01 2.513786e-03 -1.715459e-03 1.851297e-02
Al -9.248698e-02 -3.646471e+00 4.987771e+00 3.159997e-03 -1.127658e-03 8.252275e-04
Al 3.825584e-02 -3.758411e+00 -5.285175e+00 -3.450580e-04 -7.821356e-04 7.318085e-04
Ga 1.712430e-02 -3.749662e+00 -1.669315e-01 -3.300508e-03 4.866849e-03 1.300869e-02
Ga -1.677650e+00 -9.051317e-01 4.988546e+00 -8.364628e-04 8.075365e-03 -7.623803e-04
Ga -1.538711e+00 -1.026099e+00 -5.283899e+00 -6.821078e-04 8.676024e-03 -1.324556e-03
Al -1.586687e+00 -9.919197e-01 -1.864200e-01 3.347789e-03 5.333507e-03 1.615735e-02
N 1.498997e+00 9.557730e-01 4.362075e+00 4.235110e-04 -8.609558e-03 -9.595188e-03
N 1.604495e+00 8.216974e-01 -5.898181e+00 -9.078348e-03 -1.262784e-02 -1.825895e-03
N 1.613402e+00 8.396223e-01 -8.160226e-01 -1.251514e-03 -5.877827e-03 -1.009577e-02
N -8.371111e-02 3.697256e+00 4.352903e+00 -7.676803e-04 1.400532e-05 -1.248899e-02
N 1.917969e-02 3.564577e+00 -5.896741e+00 -1.106756e-02 -5.452190e-03 -3.318792e-03
N 3.962265e-02 3.595176e+00 -7.814392e-01 8.563203e-03 6.185211e-03 3.985971e-03
N 3.137170e+00 -1.809871e+00 4.362710e+00 8.325792e-03 6.101601e-03 -8.038698e-03
N 3.224946e+00 -1.954379e+00 -5.897229e+00 -1.124822e-02 -4.881429e-03 -4.394780e-03
N 3.232522e+00 -1.939972e+00 -7.867272e-01 -1.201181e-03 1.616796e-03 1.306884e-04
N -4.881328e+00 9.330121e-01 4.365143e+00 1.027606e-04 -1.719229e-02 -7.209259e-03
N -4.757043e+00 8.361510e-01 -5.886710e+00 1.081185e-03 -7.337291e-03 1.812875e-03
N -4.757511e+00 8.617008e-01 -7.734568e-01 9.983888e-03 -2.041557e-03 6.308362e-03
N -6.449843e+00 3.711232e+00 4.391344e+00 9.818102e-03 6.013272e-03 4.824873e-03
N -6.324292e+00 3.590574e+00 -5.902382e+00 1.074226e-02 6.271660e-03 -8.138607e-03
N -6.378295e+00 3.604198e+00 -7.609519e-01 -1.230540e-02 6.720849e-03 1.113807e-03
N -3.279392e+00 -1.812210e+00 4.383733e+00 -1.018937e-02 6.530320e-03 3.220801e-03
N -3.137892e+00 -1.939986e+00 -5.887292e+00 3.191793e-04 1.807563e-03 2.230336e-04
N -3.140606e+00 -1.932241e+00 -7.741606e-01 9.527544e-03 -4.798041e-03 9.585024e-03
N -1.710856e+00 9.585774e-01 4.350128e+00 8.653510e-03 -5.188083e-03 -8.954438e-03
N -1.567679e+00 8.525091e-01 -5.900783e+00 1.536015e-02 -4.832149e-04 -5.530294e-03
N -1.625287e+00 8.516571e-01 -7.635065e-01 -2.972622e-03 -6.427663e-03 9.524155e-03
N -3.317920e+00 3.713581e+00 4.361814e+00 -2.924331e-03 9.460844e-03 -5.793563e-03
N -3.176607e+00 3.607034e+00 -5.874005e+00 5.089798e-03 1.371167e-02 8.977895e-03
N -3.193483e+00 3.580208e+00 -7.846763e-01 6.738866e-03 -6.369516e-03 7.381070e-03
N -9.492427e-02 -1.839645e+00 4.392200e+00 7.569720e-03 -7.342960e-03 6.312085e-03
N 4.933467e-02 -1.949916e+00 -5.899566e+00 1.508773e-02 -3.041988e-03 -3.768258e-03
N -2.221616e-03 -1.911038e+00 -7.930029e-01 -5.344997e-03 1.088969e-02 -8.933662e-03
N -7.806424e-02 1.861525e+00 1.851137e+00 -1.091769e-03 -6.370961e-03 -1.805774e-03
N -8.846812e-02 1.872696e+00 6.941316e+00 -5.272372e-03 -2.048733e-03 1.206830e-02
N 5.410968e-02 1.739456e+00 -3.358036e+00 1.720844e-03 -8.806043e-03 -7.513430e-03
N 3.125577e+00 -3.650322e+00 1.858166e+00 -1.633333e-03 -6.699951e-03 -2.116597e-03
N 3.137399e+00 -3.637160e+00 6.933181e+00 3.250773e-03 2.379741e-03 9.574272e-03
N 3.243155e+00 -3.770665e+00 -3.367192e+00 -6.856648e-03 -3.365571e-03 -1.065207e-02
N 1.558999e+00 -8.974688e-01 1.852486e+00 5.092013e-03 5.041960e-03 -5.291347e-03
N 1.532172e+00 -9.056189e-01 6.946627e+00 -7.321426e-03 4.874574e-03 1.468011e-02
N 1.635323e+00 -1.018744e+00 -3.355495e+00 -1.705246e-02 9.938427e-03 -2.861706e-03
N 3.091242e+00 1.843098e+00 1.854269e+00 3.990849e-03 -1.680523e-02 -7.364189e-03
N 3.060130e+00 1.885218e+00 6.940634e+00 -1.081818e-02 5.317981e-03 7.955549e-03
N 3.183660e+00 1.746188e+00 -3.331129e+00 -9.850132e-03 -5.629068e-03 3.293782e-03
N 6.294812e+00 -3.682969e+00 1.825986e+00 -1.179385e-02 -3.903897e-03 -2.453407e-02
N 6.283629e+00 -3.667109e+00 6.942228e+00 -4.018932e-04 -1.204954e-02 7.811145e-03
N 6.409684e+00 -3.767813e+00 -3.340036e+00 -4.551872e-04 1.129407e-03 -9.716950e-04
N 4.685113e+00 -9.003248e-01 1.836828e+00 -5.068257e-03 7.107622e-03 -4.077983e-03
N 4.678652e+00 -9.142736e-01 6.906096e+00 -1.098814e-02 1.934574e-03 -7.393705e-03
N 4.821530e+00 -1.025146e+00 -3.334192e+00 -2.017324e-04 8.161586e-03 2.219906e-03
N -3.273394e+00 1.848479e+00 1.840540e+00 -1.879639e-03 1.329914e-03 -1.626214e-02
N -3.281541e+00 1.870414e+00 6.927226e+00 1.088247e-02 -5.964934e-03 3.508301e-03
N -3.178119e+00 1.757525e+00 -3.337708e+00 1.064233e-03 -1.002755e-03 -2.068751e-04
N -6.266803e-02 -3.666472e+00 1.832280e+00 1.428292e-02 -9.138105e-03 -7.868762e-03
N -1.113363e-01 -3.632482e+00 6.915242e+00 -9.934024e-03 6.114294e-03 -3.812592e-03
N 2.413399e-02 -3.741151e+00 -3.351189e+00 -1.693723e-04 1.197997e-02 -9.155188e-03
N -1.653224e+00 -9.099364e-01 1.823345e+00 -3.106293e-03 1.850337e-02 -2.359707e-02
N -1.663124e+00 -8.859642e-01 6.941836e+00 9.356836e-03 1.234468e-02 9.231843e-03
N -1.538876e+00 -1.030703e+00 -3.329905e+00 8.220218e-03 3.042160e-03 4.859523e-03
