108
Energy=-1306398.348713 Lattice="9.495473 0.000000 0.000000 -4.748116 8.220997 0.000000 -0.001801 -0.000438 15.322657" Stress="-0.000006 -0.000000 -0.000000 -0.000000 -0.000009 -0.000000 -0.000000 -0.000000 -0.000004" Properties=species:S:1:pos:R:3:forces:R:3
Al 1.566333 0.876700 2.439096 0.000036 -0.000564 -0.000591
Al 1.559186 0.867843 7.480089 0.000037 -0.000023 0.000370
Al 1.560830 0.869261 -2.705900 0.000143 -0.000044 0.000093
Al -0.023250 3.609674 2.421525 0.000840 0.000161 0.000050
Al -0.013678 3.609552 7.491175 0.000235 0.000052 0.000843
Al -0.024881 3.610502 -2.692691 -0.000237 0.000060 0.000127
Al 3.148592 -1.857886 2.400476 0.000394 -0.000012 -0.000583
Al 3.140369 -1.853221 7.535858 -0.000149 -0.000036 0.000211
Ga 3.147883 -1.860710 -2.720396 -0.000021 0.000004 0.000183
Al -4.778620 0.869510 2.406542 -0.000662 0.000500 -0.000549
Al -4.770893 0.872928 7.503398 0.000031 -0.000482 0.000644
Al -4.774793 0.868415 -2.695096 0.000166 -0.000045 0.000203
Ga -6.369559 3.593541 2.405156 -0.000244 0.000093 -0.000423
Al -6.369731 3.606421 7.494520 -0.000108 0.000198 0.000416
Ga -6.359029 3.601535 -2.672462 -0.000167 0.000018 -0.000060
Ga -3.196996 -1.861368 2.406547 -0.000243 -0.000166 0.000051
Al -3.181948 -1.864768 7.503959 -0.000287 0.000003 0.000181
Ga -3.185143 -1.855177 -2.694446 -0.000138 0.000217 0.000182
Al -1.610348 0.875621 2.419995 0.000460 0.000737 -0.000079
Al -1.607061 0.867277 7.500492 -0.000118 0.000074 -0.000606
Ga -1.607088 0.869986 -2.704664 0.000507 -0.000154 0.000280
Ga -3.174452 3.604791 2.398757 -0.000316 -0.000288 -0.000398
Ga -3.182018 3.602607 7.523805 0.000054 -0.000268 0.000252
Ga -3.178011 3.610943 -2.693038 0.000181 -0.000234 -0.000025
Ga -0.019554 -1.845029 2.427072 0.000009 0.000078 0.000068
Al -0.022265 -1.841666 7.503882 -0.000062 0.000001 0.000198
Al -0.023699 -1.847543 -2.705477 0.000109 -0.000047 0.000037
Al -0.022122 1.777546 4.953204 -0.000131 0.000474 -0.000002
Ga -0.031287 1.780853 -5.275636 0.000201 0.000397 0.000177
Ga -0.022680 1.795400 -0.128531 -0.000249 -0.000069 0.000446
Ga 3.156583 -3.688241 4.967469 -0.000136 0.000034 0.000192
Al 3.151445 -3.687932 -5.273523 0.000043 -0.000339 -0.000151
Al 3.154757 -3.694073 -0.131280 0.000444 0.000022 -0.000324
Al 1.563807 -0.938713 4.970772 0.000074 -0.000080 -0.000083
Al 1.558088 -0.955292 -5.270208 -0.000092 0.000142 -0.000360
Ga 1.564468 -0.954735 -0.144318 -0.000435 0.000332 0.000590
Al 3.136184 1.778855 4.971592 0.000204 0.000603 -0.000373
Ga 3.152225 1.764964 -5.269788 0.000357 0.000107 0.000261
Al 3.153301 1.778765 -0.143331 -0.000086 -0.000456 0.000222
Al 6.305455 -3.702761 4.981928 0.000368 0.000411 -0.000029
Ga 6.294833 -3.681084 -5.273859 0.000101 0.000149 0.000131
Al 6.299459 -3.691661 -0.146996 -0.000410 0.000687 0.000431
Ga 4.721823 -0.941597 4.973930 0.000065 -0.000102 0.000150
Al 4.730379 -0.943621 -5.290072 0.000273 0.000129 -0.000254
Al 4.730725 -0.942642 -0.133546 0.000062 0.000225 0.000492
Al -3.187159 1.766986 4.957380 0.000080 0.000293 0.000422
Al -3.189810 1.768644 -5.265524 0.000359 0.000273 -0.000261
Al -3.203566 1.776559 -0.133606 0.000092 -0.000169 -0.000332
Ga -0.036613 -3.689716 4.988987 0.000156 -0.000156 0.000197
Ga -0.016584 -3.674937 -5.268763 0.000134 -0.000187 0.000164
Al -0.027155 -3.688991 -0.153493 0.000159 0.000014 0.000012
Al -1.603066 -0.936616 4.984614 -0.000277 -0.000035 0.000033
Al -1.601903 -0.944025 -5.287783 -0.001547 -0.000896 -0.000604
Al -1.612078 -0.956872 -0.139005 0.000076 0.000566 -0.000094
N 1.563586 0.874436 4.365462 -0.000086 -0.000073 -0.000147
N 1.560548 0.826476 -5.928061 -0.000246 -0.000411 -0.000289
N 1.596349 0.897258 -0.796338 0.000444 0.000066 0.000025
N 0.021757 3.592749 4.339876 -0.000407 -0.000606 -0.000351
N -0.059801 3.631399 -5.926578 -0.000414 0.000116 -0.000692
N -0.028257 3.657020 -0.778899 0.000177 0.000360 0.000194
N 3.105401 -1.839824 4.307645 -0.000629 0.000045 0.000799
N 3.139164 -1.862303 -5.861275 -0.000152 0.000032 0.000020
N 3.188848 -1.890326 -0.737091 0.000014 -0.000128 0.000056
N -4.775870 0.922749 4.324562 0.000067 -0.000050 0.000705
N -4.726428 0.858280 -5.910053 -0.000530 -0.000800 -0.000529
N -4.769787 0.870612 -0.766331 0.000015 0.000226 -0.000090
N -6.396994 3.587810 4.385474 -0.000121 -0.000392 0.000160
N -6.355369 3.608554 -5.922129 -0.000296 0.000062 -0.000691
N -6.356208 3.609647 -0.691770 -0.000017 -0.000038 0.000087
N -3.144914 -1.889616 4.391111 0.000099 -0.000175 0.000118
N -3.184719 -1.820494 -5.903275 0.000907 0.000646 0.000534
N -3.188348 -1.858675 -0.704335 -0.000475 -0.001200 -0.000159
N -1.609350 0.871013 4.348817 0.000249 -0.000017 -0.000312
N -1.646926 0.853759 -5.904366 -0.000097 0.000306 0.000488
N -1.648931 0.851816 -0.728112 0.000187 0.000141 0.000120
N -3.189350 3.569873 4.372368 0.000157 -0.000367 -0.000049
N -3.145562 3.583587 -5.826951 0.000268 0.000359 0.000027
N -3.180846 3.612065 -0.698060 -0.000181 -0.000057 0.000310
N -0.024284 -1.814498 4.400179 0.000085 0.000169 -0.000048
N -0.020247 -1.809857 -5.905620 0.000650 0.000083 -0.000013
N -0.065163 -1.879526 -0.783518 0.000118 -0.000353 -0.000093
N -0.020074 1.784922 1.865530 -0.000417 -0.000385 -0.000003
N -0.027267 1.783754 6.884307 -0.000029 -0.000013 -0.000166
N 0.017964 1.810127 -3.291026 -0.000077 0.000158 0.000185
N 3.193209 -3.669713 1.787256 -0.000623 -0.000200 0.000269
N 3.184545 -3.660206 6.936557 -0.000233 -0.000041 -0.000201
N 3.188805 -3.719370 -3.360060 -0.000033 0.000180 -0.000046
N 1.600302 -0.925081 1.830771 -0.000856 0.001000 -0.000416
N 1.570498 -0.957319 6.891154 -0.000266 0.000147 -0.000157
N 1.519963 -0.929647 -3.342769 -0.000462 0.000178 -0.000072
N 3.137131 1.729472 1.776322 0.000186 0.000150 0.000158
N 3.144660 1.781569 6.892201 0.000093 -0.000162 -0.000218
N 3.143900 1.737717 -3.289538 0.000165 -0.000105 0.000002
N 6.259855 -3.717842 1.760994 -0.000070 -0.000084 -0.000138
N 6.304230 -3.691634 6.899202 0.000176 -0.000134 -0.000210
N 6.268218 -3.714570 -3.300214 0.000189 -0.000190 0.000152
N 4.683329 -0.923622 1.785692 0.000760 -0.000349 -0.000736
N 4.719057 -0.955078 6.954424 0.000236 0.000606 -0.000095
N 4.732125 -0.901935 -3.370088 -0.000217 -0.000012 -0.000145
N -3.193775 1.731849 1.781705 0.000503 0.000141 0.000246
N -3.189611 1.736138 6.871516 0.000256 -0.000275 -0.000756
N -3.233914 1.761423 -3.351275 -0.000051 -0.000237 0.000165
N -0.026858 -3.684916 1.755775 0.000218 0.000048 -0.000194
N -0.061762 -3.666698 6.957397 -0.000003 0.000013 -0.000248
N -0.026427 -3.644959 -3.291215 0.000278 0.000038 0.000255
N -1.603956 -0.902770 1.766357 0.000223 -0.000631 0.000365
N -1.605435 -0.948048 6.900060 -0.000103 0.000037 -0.000211
N -1.565768 -0.975148 -3.371875 0.000039 -0.000025 -0.000091
