108
Energy=-2.542337e+06 Lattice="9.650655e+00 0.000000e+00 0.000000e+00 -4.826810e+00 8.362798e+00 0.000000e+00 -1.472312e-03 1.967469e-03 1.567105e+01" Stress="-1.120627e-03 1.511722e-05 8.605056e-05 1.052180e-05 -1.537653e-04 -1.484131e-04 8.488685e-05 -1.538209e-04 -3.069161e-04" Properties=species:S:1:pos:R:3:forces:R:3 Config_type=AlGaN_super3_46_1_10.xyz
Al 1.583965e+00 8.944670e-01 2.466643e+00 -2.697210e-04 4.802180e-04 -1.256480e-04
Al 1.578934e+00 8.991830e-01 7.689072e+00 -6.365205e-05 -3.090463e-04 7.811953e-05
Ga 1.575423e+00 8.919795e-01 -2.760761e+00 -6.208469e-05 -6.985262e-04 3.565671e-05
Ga -2.701695e-02 3.676386e+00 2.452463e+00 -5.231406e-04 3.262879e-04 -8.835881e-05
Al -1.911966e-02 3.667751e+00 7.690732e+00 -8.474111e-05 -1.752122e-04 1.171687e-04
Ga -4.213244e-02 3.669250e+00 -2.747278e+00 -1.602602e-04 -2.955254e-04 -4.749070e-04
Ga 3.188468e+00 -1.898818e+00 2.457905e+00 -2.128523e-04 8.920070e-04 -2.597062e-04
Ga 3.197507e+00 -1.896120e+00 7.698423e+00 -2.879863e-05 -9.287226e-05 1.091636e-05
Ga 3.194248e+00 -1.907739e+00 -2.765165e+00 -2.325243e-04 -2.490527e-04 5.611257e-04
Ga -4.857087e+00 8.964402e-01 2.460735e+00 -2.352608e-05 4.450004e-04 -6.768622e-05
Ga -4.856641e+00 8.867567e-01 7.705029e+00 -3.620949e-05 -4.094795e-04 -9.637793e-06
Ga -4.838403e+00 8.924187e-01 -2.770280e+00 -9.053414e-05 -5.584259e-04 1.101222e-04
Ga -6.457708e+00 3.676507e+00 2.480701e+00 -1.519973e-04 5.725466e-04 1.193747e-05
Ga -6.462746e+00 3.675282e+00 7.677979e+00 -1.697176e-04 -2.318211e-04 5.775592e-05
Ga -6.450640e+00 3.673931e+00 -2.761494e+00 -9.792819e-06 -4.291078e-04 1.380758e-04
Ga -3.237569e+00 -1.893655e+00 2.466786e+00 -2.313189e-04 8.280378e-04 -1.827804e-04
Ga -3.249052e+00 -1.902200e+00 7.705753e+00 -1.258636e-04 -1.065138e-04 -2.351654e-05
Ga -3.241355e+00 -1.889208e+00 -2.773777e+00 -6.996854e-05 -2.289350e-04 -2.008953e-05
Ga -1.622132e+00 8.980069e-01 2.469113e+00 1.001552e-04 5.085086e-04 -8.411472e-05
Ga -1.618737e+00 9.015024e-01 7.690630e+00 1.748596e-04 -3.010618e-04 4.419205e-05
Al -1.633975e+00 8.995409e-01 -2.764557e+00 2.090578e-04 -5.136109e-04 5.714998e-05
Ga -3.238247e+00 3.688328e+00 2.468332e+00 4.186344e-04 4.368236e-04 -3.728259e-04
Ga -3.240697e+00 3.680858e+00 7.684595e+00 2.421763e-04 -1.754376e-04 -4.096551e-06
Al -3.228899e+00 3.671903e+00 -2.751710e+00 1.507273e-04 -1.088928e-04 -2.751815e-04
Ga -1.813761e-02 -1.890121e+00 2.473937e+00 9.960220e-05 9.374567e-04 -2.069813e-04
Ga -1.814812e-02 -1.899052e+00 7.683176e+00 4.716478e-05 7.134650e-05 -5.157782e-05
Ga -2.186577e-02 -1.897155e+00 -2.760321e+00 1.559927e-04 -1.202881e-04 1.585725e-04
Ga -1.140983e-02 1.820353e+00 5.087289e+00 -3.189513e-04 3.381910e-05 -1.797771e-04
Ga -1.891856e-02 1.822179e+00 -5.375817e+00 -3.218009e-04 -2.829694e-04 -2.327868e-04
Ga -2.990982e-02 1.811314e+00 -1.477733e-01 -2.517474e-04 8.921385e-04 3.988347e-04
Ga 3.189929e+00 -3.758136e+00 5.092973e+00 -2.208804e-04 -4.666894e-04 -3.781516e-05
Ga 3.202427e+00 -3.755946e+00 -5.372900e+00 -3.134093e-04 -1.955858e-04 -9.958161e-05
Al 3.187066e+00 -3.767686e+00 -1.615763e-01 -3.979107e-04 1.793776e-03 5.589188e-04
Ga 1.582961e+00 -9.660459e-01 5.078487e+00 -4.328641e-04 1.550184e-04 -7.561692e-05
Ga 1.596604e+00 -9.633355e-01 -5.381653e+00 -2.675943e-04 5.398348e-05 9.485544e-06
Ga 1.591291e+00 -9.818324e-01 -1.375848e-01 -3.847375e-05 1.622761e-03 1.222024e-05
Ga 3.187332e+00 1.819334e+00 5.082490e+00 5.431330e-05 -1.437085e-04 1.524143e-05
Ga 3.191991e+00 1.809025e+00 -5.384715e+00 -6.129976e-06 -2.146809e-04 -2.627154e-05
Ga 3.189446e+00 1.806969e+00 -1.349883e-01 -1.491351e-04 1.481051e-03 1.965059e-04
Ga 6.413721e+00 -3.756933e+00 5.090623e+00 -1.375184e-04 -1.468440e-04 7.860180e-05
Ga 6.400808e+00 -3.755001e+00 -5.381008e+00 -2.566745e-05 -8.437360e-05 5.872259e-07
Ga 6.403773e+00 -3.768517e+00 -1.490032e-01 -6.005988e-05 1.945674e-03 4.198748e-04
Ga 4.801470e+00 -9.695404e-01 5.078323e+00 1.461246e-04 3.105908e-04 -6.000877e-05
Al 4.801592e+00 -9.697499e-01 -5.366401e+00 1.061538e-05 1.725546e-04 1.403815e-04
Ga 4.799250e+00 -9.878374e-01 -1.509037e-01 -5.835684e-04 1.753361e-03 9.886750e-05
Ga -3.247716e+00 1.828245e+00 5.079887e+00 5.692795e-05 5.625794e-05 4.299874e-05
Ga -3.240405e+00 1.817006e+00 -5.348191e+00 1.195044e-04 -1.318329e-04 -5.180553e-05
Ga -3.227047e+00 1.822679e+00 -1.720922e-01 -1.212103e-04 1.185692e-03 3.264480e-04
Al -2.198540e-02 -3.755269e+00 5.076928e+00 1.467357e-04 -2.072614e-04 1.290440e-04
Ga -1.681000e-02 -3.760338e+00 -5.353643e+00 1.208429e-04 -8.975391e-05 -2.078108e-05
Ga -5.800709e-03 -3.772212e+00 -1.586322e-01 -1.540201e-04 1.918800e-03 3.069799e-04
Ga -1.627896e+00 -9.775261e-01 5.084173e+00 -1.344626e-05 3.064639e-04 1.712164e-05
Ga -1.638676e+00 -9.654344e-01 -5.363734e+00 1.031213e-05 2.572960e-04 2.171750e-05
Ga -1.631212e+00 -9.718704e-01 -1.585575e-01 -4.274057e-05 1.895646e-03 3.008880e-05
N 1.583339e+00 8.899990e-01 4.388315e+00 8.119777e-05 -1.146201e-04 -3.860432e-04
N 1.582014e+00 8.905257e-01 -6.063044e+00 3.653157e-05 -1.929991e-04 -3.786764e-04
N 1.583553e+00 8.848616e-01 -7.861985e-01 8.880293e-05 -1.148661e-03 -3.552635e-05
N -2.726011e-02 3.678605e+00 4.435144e+00 -6.625688e-05 7.214402e-05 -2.872030e-05
N -2.485021e-02 3.673511e+00 -6.059578e+00 -4.305660e-05 -1.110240e-05 -4.147715e-04
N -6.846648e-02 3.693521e+00 -7.620852e-01 4.457399e-05 -5.339516e-04 8.866251e-05
N 3.191376e+00 -1.904596e+00 4.439717e+00 3.061545e-06 3.261565e-04 1.764552e-04
N 3.238683e+00 -1.877037e+00 -5.987599e+00 2.305854e-04 2.033382e-04 2.828289e-05
N 3.193262e+00 -1.950057e+00 -7.742467e-01 6.198748e-05 -1.253270e-03 3.273235e-04
N -4.851548e+00 8.916782e-01 4.439082e+00 -2.310821e-05 -1.203968e-04 4.711978e-05
N -4.842754e+00 8.421546e-01 -5.978438e+00 -5.269740e-05 -5.324527e-04 1.941593e-04
N -4.849980e+00 8.847124e-01 -7.871730e-01 1.083133e-04 -1.187405e-03 9.188040e-05
N -6.418153e+00 3.699926e+00 4.470833e+00 3.144824e-04 3.586061e-04 -2.693935e-07
N -6.452647e+00 3.679881e+00 -6.010357e+00 2.717892e-05 7.429573e-06 -3.280539e-05
N -6.457565e+00 3.669154e+00 -7.821565e-01 1.447124e-04 -9.691612e-04 -1.310280e-04
N -3.238819e+00 -1.900852e+00 4.443193e+00 -1.252698e-04 3.440711e-04 -1.380175e-05
N -3.281121e+00 -1.873965e+00 -5.980781e+00 -3.140230e-04 2.719310e-04 1.264685e-04
N -3.240784e+00 -1.904320e+00 -7.955182e-01 6.695310e-05 -8.704849e-04 5.334883e-05
N -1.630316e+00 8.923393e-01 4.451793e+00 3.170071e-04 9.363266e-06 1.654853e-05
N -1.633611e+00 8.927455e-01 -6.005041e+00 3.415766e-04 -4.203354e-05 3.361317e-05
N -1.628452e+00 8.864406e-01 -8.433612e-01 3.600787e-04 -1.056535e-03 -6.895457e-05
N -3.279564e+00 3.704839e+00 4.456674e+00 -9.213356e-06 3.740138e-04 2.447361e-04
N -3.242565e+00 3.674738e+00 -6.009459e+00 2.452124e-04 2.087981e-04 6.797148e-05
N -3.196336e+00 3.697457e+00 -8.266092e-01 3.438428e-04 -4.670314e-04 -1.202481e-04
N -2.220655e-02 -1.946356e+00 4.462159e+00 3.311732e-04 2.255256e-04 1.046559e-04
N -2.400864e-02 -1.903785e+00 -6.004371e+00 2.896800e-04 1.841624e-04 6.627851e-05
N -2.041048e-02 -1.902757e+00 -7.827396e-01 3.354131e-04 -7.878529e-04 -8.669062e-05
N 1.755732e-02 1.800874e+00 1.839694e+00 1.450761e-04 -1.325957e-03 -1.324760e-04
N 2.249442e-02 1.844148e+00 7.081559e+00 1.032172e-04 1.229666e-04 2.409811e-04
N -6.302766e-02 1.798728e+00 -3.388790e+00 -3.090326e-04 -1.492493e-04 3.128916e-04
N 3.189817e+00 -3.750737e+00 1.767545e+00 -1.096632e-04 -1.469762e-03 -8.241839e-04
N 3.237933e+00 -3.779861e+00 7.078246e+00 1.953987e-05 3.646509e-05 7.118865e-05
N 3.155255e+00 -3.783214e+00 -3.389788e+00 -3.064735e-04 -1.006670e-04 2.336572e-04
N 1.585800e+00 -9.132239e-01 1.849655e+00 -2.208130e-04 -9.085838e-04 2.179308e-04
N 1.588162e+00 -9.182672e-01 7.070069e+00 -1.567504e-04 6.476543e-04 1.917864e-04
N 1.587626e+00 -9.674983e-01 -3.403824e+00 -8.816982e-05 3.328651e-04 -1.072400e-05
N 3.148833e+00 1.806718e+00 1.852415e+00 -5.516594e-05 -1.548871e-03 -1.936773e-04
N 3.151478e+00 1.792238e+00 7.071256e+00 -2.213870e-04 -7.639385e-05 1.392757e-04
N 3.190045e+00 1.815377e+00 -3.406996e+00 2.929831e-05 2.167637e-04 2.108198e-05
N 6.413595e+00 -3.749259e+00 1.831000e+00 2.455555e-04 -1.417932e-03 -3.206144e-04
N 6.367598e+00 -3.777635e+00 7.076695e+00 -1.520706e-04 4.353075e-05 1.275319e-04
N 6.404715e+00 -3.763436e+00 -3.397924e+00 1.522261e-05 2.272725e-04 7.806863e-05
N 4.800729e+00 -9.624078e-01 1.826776e+00 3.416771e-04 -1.184985e-03 -1.957696e-04
N 4.802134e+00 -9.681013e-01 7.051065e+00 -9.355144e-06 3.833281e-04 1.159703e-04
N 4.797914e+00 -9.697044e-01 -3.446137e+00 6.852233e-05 3.150891e-04 -5.748533e-04
N -3.237688e+00 1.830798e+00 1.817145e+00 2.713565e-04 -1.077389e-03 -5.217671e-05
N -3.244516e+00 1.817260e+00 7.056947e+00 1.073885e-04 2.524741e-04 -7.748738e-05
N -3.198094e+00 1.846007e+00 -3.353660e+00 2.994725e-04 3.023495e-04 1.241582e-04
N -2.248910e-02 -3.748659e+00 1.823101e+00 1.861784e-04 -1.448087e-03 -3.085848e-04
N -2.236106e-02 -3.756312e+00 6.997965e+00 1.085404e-04 2.237453e-04 -5.330901e-04
N 2.357410e-02 -3.783746e+00 -3.368898e+00 3.287086e-04 4.619308e-05 1.175591e-04
N -1.629647e+00 -9.566901e-01 1.824316e+00 1.744237e-04 -1.210140e-03 2.986300e-05
N -1.635215e+00 -9.696870e-01 7.062077e+00 1.253863e-04 4.371907e-04 -1.069837e-05
N -1.629759e+00 -9.193820e-01 -3.378770e+00 6.066254e-05 6.669388e-04 8.926440e-05
