108
Energy=-1535275.756486 Lattice="9.527527 0.000000 0.000000 -4.766061 8.250266 0.000000 -0.003694 0.009680 15.387816" Stress="-0.000001 0.000000 0.000000 0.000000 -0.000001 0.000003 0.000000 0.000003 -0.000001" Properties=species:S:1:pos:R:3:forces:R:3
Al 1.555494 0.882801 2.391482 -0.000911 -0.000067 0.000260
Al 1.552707 0.878065 7.541634 -0.000012 -0.000128 0.000206
Al 1.546415 0.858187 -2.689422 -0.000227 -0.000035 0.000313
Al -0.021981 3.609811 2.408984 -0.000885 0.000130 0.000174
Al -0.017530 3.630390 7.537109 -0.000483 -0.000014 0.000237
Al -0.033824 3.622342 -2.704506 0.000269 0.000025 -0.000002
Al 3.159739 -1.860615 2.387348 0.000249 -0.000267 -0.000301
Al 3.150928 -1.867651 7.555807 -0.000091 -0.000044 0.000236
Al 3.138106 -1.882713 -2.697409 0.000578 0.000854 -0.000010
Al -4.797560 0.862992 2.412092 0.000002 0.000204 -0.000018
Ga -4.805583 0.867404 7.533981 0.000171 -0.000041 0.000074
Ga -4.794812 0.865890 -2.685107 0.000064 -0.000154 -0.000047
Al -6.377765 3.624655 2.424993 -0.000252 -0.000031 -0.000232
Ga -6.394323 3.635258 7.546873 0.000152 0.000044 0.000142
Ga -6.385196 3.632464 -2.712868 -0.000062 0.000046 -0.000074
Ga -3.210308 -1.861828 2.417454 0.000222 0.000077 0.000139
Ga -3.208050 -1.880595 7.530530 0.000081 0.000238 0.000404
Ga -3.193059 -1.875378 -2.697948 -0.000035 0.000037 0.000124
Al -1.587530 0.880624 2.408740 0.000203 0.000367 0.000590
Ga -1.591677 0.882181 7.539951 0.000272 -0.000075 0.000084
Al -1.584932 0.867950 -2.692542 0.000013 0.000196 0.000019
Ga -3.197216 3.635538 2.399860 0.000325 0.000373 0.000015
Ga -3.192166 3.649363 7.558714 0.000178 0.000120 0.000090
Ga -3.180953 3.648767 -2.696520 -0.000088 -0.000087 0.000085
Ga -0.019921 -1.864285 2.401444 0.000178 0.000104 0.000297
Ga -0.015459 -1.859698 7.558842 0.000234 0.000045 0.000499
Al -0.010902 -1.858155 -2.707097 -0.000087 0.000448 0.000160
Al -0.018778 1.797803 4.965230 -0.000048 -0.000037 -0.000148
Ga -0.014212 1.794637 -5.259752 -0.000207 0.000142 0.000360
Al -0.028076 1.787562 -0.157033 -0.000508 -0.000151 0.000304
Ga 3.175364 -3.696405 4.973903 -0.000140 0.000030 0.000150
Al 3.164715 -3.694639 -5.275366 0.000024 0.000037 -0.000234
Al 3.165471 -3.692237 -0.144723 -0.000442 0.000055 0.000457
Ga 1.566709 -0.952098 4.969200 -0.000237 0.000192 0.000154
Al 1.564452 -0.971656 -5.260809 -0.000306 -0.000066 0.000076
Al 1.565193 -0.965353 -0.160197 -0.000268 0.000034 -0.000156
Ga 3.136668 1.801729 4.948847 0.000151 0.000123 0.000309
Ga 3.134559 1.791418 -5.269043 0.000023 0.000014 0.000047
Ga 3.139292 1.787693 -0.117834 0.000036 0.000012 0.000197
Al 6.327281 -3.704118 4.954963 -0.000011 -0.000283 -0.000301
Al 6.322917 -3.706848 -5.271871 -0.000085 -0.000017 0.000284
Ga 6.317301 -3.706662 -0.128000 0.000044 0.000050 -0.000163
Al 4.740125 -0.965481 4.967593 -0.000064 0.000014 -0.000002
Ga 4.735167 -0.986345 -5.266807 -0.000198 0.000148 0.000279
Al 4.727004 -0.966890 -0.140109 -0.000066 -0.000585 0.000183
Ga -3.192570 1.784033 4.948034 0.000148 0.000149 0.000167
Ga -3.187750 1.796850 -5.253367 -0.000099 0.000061 0.000125
Ga -3.178449 1.785832 -0.126848 0.000004 -0.000082 -0.000193
Al -0.041254 -3.694465 4.970673 0.000120 0.000091 0.000425
Al -0.020680 -3.686457 -5.257353 0.000021 0.000098 0.000153
Al -0.019111 -3.683488 -0.150407 0.000100 0.000120 0.000277
Al -1.613111 -0.955128 4.959358 -0.000088 0.000296 0.000185
Al -1.594540 -0.974018 -5.249938 -0.000098 0.000098 0.000301
Al -1.593641 -0.949756 -0.155090 -0.000112 -0.000256 0.000157
N 1.513926 0.896725 4.303333 -0.000173 0.000156 0.000024
N 1.557221 0.820093 -5.927657 0.000080 -0.000079 -0.000191
N 1.522115 0.849933 -0.768260 0.000328 -0.000041 -0.000431
N 0.013471 3.599593 4.329910 -0.000044 -0.000353 -0.000379
N -0.021390 3.666889 -5.920310 0.000271 0.000248 0.000006
N -0.067285 3.603682 -0.782472 0.000048 0.000051 -0.000134
N 3.191450 -1.848369 4.301247 0.000194 0.000308 -0.000321
N 3.108811 -1.897315 -5.910657 -0.000037 -0.000279 -0.000177
N 3.150464 -1.876018 -0.768289 0.000073 -0.000200 -0.000191
N -4.792500 0.825061 4.324879 -0.000015 -0.000283 -0.000254
N -4.786121 0.870033 -5.886207 0.000141 -0.000072 -0.000103
N -4.788759 0.832782 -0.721822 0.000011 0.000368 -0.000042
N -6.374974 3.682004 4.339389 0.000095 -0.000004 0.000006
N -6.374153 3.676333 -5.853306 0.000018 0.000162 -0.000039
N -6.338853 3.651296 -0.745855 0.000071 -0.000073 0.000088
N -3.201099 -1.867520 4.405210 -0.000095 0.000145 -0.000032
N -3.149907 -1.899185 -5.863118 0.000204 -0.000147 -0.000288
N -3.197203 -1.826624 -0.717203 0.000319 -0.000013 -0.000002
N -1.559463 0.855065 4.332547 0.000515 -0.000129 -0.000212
N -1.604063 0.822675 -5.873168 0.000341 -0.000299 -0.000184
N -1.566466 0.850459 -0.780593 0.000239 0.000344 0.000149
N -3.238556 3.664634 4.372747 -0.000123 -0.000082 -0.000125
N -3.199108 3.677028 -5.842069 -0.000027 0.000044 -0.000029
N -3.194425 3.678696 -0.712230 0.000123 0.000078 0.000139
N -0.061109 -1.890584 4.379108 0.000035 -0.000250 -0.000313
N -0.020016 -1.871974 -5.838280 0.000117 -0.000106 -0.000208
N -0.019880 -1.869954 -0.772338 0.000063 -0.000182 -0.000190
N -0.023718 1.797134 1.771864 -0.000263 -0.000037 -0.000167
N 0.018305 1.825352 6.899287 0.000223 -0.000430 -0.000512
N -0.018165 1.795414 -3.271615 0.000092 -0.000217 -0.000150
N 3.204754 -3.679145 1.777161 0.000433 0.000013 -0.000147
N 3.201444 -3.675480 6.957877 -0.000562 0.000195 0.000054
N 3.203684 -3.679001 -3.348605 -0.000253 -0.000147 -0.000052
N 1.604947 -0.931816 1.762746 0.000506 -0.000219 0.000061
N 1.608603 -0.929974 6.952383 -0.000131 0.000081 -0.000211
N 1.570360 -0.958167 -3.319987 -0.000025 -0.000013 -0.000283
N 3.148684 1.796434 1.865868 0.000554 0.000412 -0.000150
N 3.102279 1.777830 6.929895 -0.000225 -0.000178 -0.000177
N 3.101550 1.763120 -3.297348 -0.000148 -0.000132 -0.000046
N 6.325503 -3.753311 1.843708 0.000691 0.000198 0.000196
N 6.284283 -3.730225 6.872881 0.000385 0.000193 -0.000068
N 6.279787 -3.731352 -3.355903 -0.000083 -0.000081 -0.000060
N 4.701434 -0.932768 1.769340 -0.000758 -0.000564 0.000206
N 4.693260 -0.982826 6.886517 -0.000275 -0.000026 -0.000098
N 4.696797 -0.987825 -3.300856 -0.000660 -0.000290 0.000160
N -3.192840 1.742690 1.850944 -0.000093 0.000053 0.000118
N -3.198762 1.800248 6.921844 -0.000074 -0.000068 -0.000223
N -3.153821 1.770564 -3.278783 0.000107 0.000014 -0.000044
N -0.068143 -3.723893 1.756522 -0.000065 -0.000052 -0.000330
N -0.026878 -3.699114 6.881434 -0.000064 -0.000004 -0.000378
N -0.019654 -3.655235 -3.346122 0.000052 -0.000080 -0.000223
N -1.610007 -0.905828 1.758041 0.000015 -0.000150 -0.000453
N -1.609012 -0.953148 6.867746 -0.000199 0.000101 -0.000319
N -1.566802 -0.933650 -3.328783 0.000297 -0.000537 -0.000136
