108
Energy=-1.901480e+06 Lattice="9.572239e+00 0.000000e+00 0.000000e+00 -4.785262e+00 8.289932e+00 0.000000e+00 3.629129e-03 -1.309069e-03 1.549778e+01" Stress="7.829753e-06 -6.747440e-06 4.099005e-05 -3.847652e-06 5.447498e-06 3.695978e-05 4.039305e-05 2.600128e-05 9.403717e-07" Properties=species:S:1:pos:R:3:forces:R:3 Config_type=AlGaN_super3_32_0_13.xyz
Al 1.571945e+00 8.783018e-01 2.445426e+00 -1.560832e-05 -5.404091e-06 1.722207e-05
Al 1.574958e+00 9.029703e-01 7.594523e+00 -2.074000e-06 3.104975e-06 3.532253e-06
Al 1.572260e+00 8.939764e-01 -2.739281e+00 -6.751504e-06 8.023686e-06 -2.177247e-06
Al -2.796648e-02 3.638728e+00 2.431804e+00 -1.149300e-05 -1.092680e-05 7.009282e-06
Al -7.675941e-03 3.633976e+00 7.598355e+00 -1.088226e-05 1.934515e-06 -7.982471e-06
Al -1.034788e-02 3.635390e+00 -2.723391e+00 -1.440664e-05 3.908814e-06 7.363114e-06
Al 3.161943e+00 -1.881529e+00 2.421232e+00 -5.169912e-06 -1.457976e-05 7.364731e-06
Ga 3.179840e+00 -1.880901e+00 7.613863e+00 -6.795932e-06 2.395300e-06 1.159008e-05
Ga 3.165125e+00 -1.880530e+00 -2.724641e+00 -1.725843e-05 -1.152895e-05 3.067342e-05
Al -4.815694e+00 8.813861e-01 2.442351e+00 -7.584640e-06 -4.081348e-06 3.022676e-05
Ga -4.824421e+00 8.836240e-01 7.609493e+00 -3.198055e-06 6.739386e-06 1.903650e-05
Ga -4.824272e+00 8.876514e-01 -2.743169e+00 -8.804928e-06 8.784890e-06 2.713165e-05
Ga -6.412658e+00 3.631457e+00 2.451276e+00 -1.142497e-05 -2.110894e-05 2.711518e-05
Al -6.420095e+00 3.628978e+00 7.598669e+00 -1.528242e-07 7.724198e-07 3.997027e-06
Al -6.415494e+00 3.635510e+00 -2.744382e+00 -9.419737e-06 -1.410842e-06 -1.077156e-06
Ga -3.209361e+00 -1.877010e+00 2.448427e+00 -1.514740e-05 -6.673218e-06 3.079559e-05
Al -3.199310e+00 -1.878253e+00 7.603054e+00 -1.321449e-05 3.584989e-06 1.089718e-05
Ga -3.202905e+00 -1.890365e+00 -2.748145e+00 -1.493774e-05 -8.403164e-07 1.818036e-05
Al -1.611801e+00 8.785519e-01 2.435468e+00 -9.193045e-06 -1.200780e-05 9.631635e-06
Al -1.603874e+00 8.679798e-01 7.595867e+00 -7.610209e-06 2.648402e-06 5.568512e-06
Ga -1.599446e+00 8.774125e-01 -2.724591e+00 -2.120709e-05 -3.671914e-06 2.626994e-05
Ga -3.199046e+00 3.642192e+00 2.411675e+00 -2.808959e-05 -9.358608e-06 3.625631e-05
Ga -3.206008e+00 3.640315e+00 7.599680e+00 -1.898620e-05 -1.341782e-05 2.804437e-05
Ga -3.211679e+00 3.647617e+00 -2.697829e+00 -1.245745e-05 -1.539700e-05 2.474149e-05
Al -1.944655e-02 -1.861435e+00 2.456017e+00 -1.838920e-05 -6.138744e-06 5.622327e-06
Ga -4.292149e-02 -1.867154e+00 7.600576e+00 -2.066260e-05 -4.213150e-06 1.591726e-05
Al -2.963413e-02 -1.874762e+00 -2.748710e+00 -1.924590e-05 -1.225198e-05 2.292349e-06
Ga -1.852094e-02 1.793972e+00 5.015363e+00 -2.693696e-06 9.880782e-07 6.670777e-06
Ga -1.441524e-02 1.795599e+00 -5.324691e+00 9.290696e-06 8.215827e-06 1.661951e-05
Ga -2.877330e-02 1.813395e+00 -1.319149e-01 -1.092296e-05 -2.988110e-06 3.718079e-05
Ga 3.178133e+00 -3.721431e+00 5.009880e+00 9.354477e-06 -4.063324e-06 2.168720e-05
Ga 3.180112e+00 -3.723948e+00 -5.302298e+00 8.239661e-06 1.360414e-05 3.720118e-05
Al 3.177331e+00 -3.732883e+00 -1.361659e-01 1.952384e-05 1.093234e-05 -2.879539e-05
Ga 1.571324e+00 -9.489834e-01 5.003563e+00 -6.260222e-06 -4.049871e-06 2.482633e-05
Ga 1.573390e+00 -9.411740e-01 -5.307660e+00 -8.335395e-06 -1.476930e-06 2.873307e-05
Ga 1.565045e+00 -9.621490e-01 -1.347151e-01 -9.196367e-06 -1.299876e-05 1.656966e-05
Al 3.163781e+00 1.796939e+00 5.018046e+00 -1.234256e-05 -4.469293e-06 1.336416e-05
Al 3.159601e+00 1.799619e+00 -5.314447e+00 -9.149567e-06 6.326381e-06 9.971301e-06
Ga 3.170845e+00 1.800151e+00 -1.446009e-01 -1.622855e-05 -1.407582e-05 -1.147172e-05
Ga 6.360908e+00 -3.725987e+00 5.048175e+00 -8.828290e-06 -2.297670e-06 1.174088e-05
Ga 6.361572e+00 -3.722313e+00 -5.332808e+00 -4.659282e-06 -7.162602e-06 2.540618e-05
Ga 6.346516e+00 -3.732877e+00 -1.557027e-01 -2.531121e-05 -8.444816e-06 5.106686e-06
Ga 4.764625e+00 -9.520203e-01 5.009362e+00 -9.586223e-06 -2.434826e-05 1.625731e-05
Al 4.773976e+00 -9.550398e-01 -5.326200e+00 -4.957305e-06 -1.174787e-05 2.454698e-06
Ga 4.760455e+00 -9.532483e-01 -1.204438e-01 -2.628562e-05 -3.441554e-05 3.146982e-05
Ga -3.214286e+00 1.783501e+00 5.014035e+00 -8.707314e-06 -1.337536e-05 1.667996e-05
Ga -3.215811e+00 1.782685e+00 -5.326394e+00 -9.797843e-06 -7.583580e-06 1.439449e-05
Al -3.211259e+00 1.800043e+00 -1.224012e-01 6.334811e-06 -9.104509e-06 -3.577015e-05
Ga -3.556462e-02 -3.719073e+00 5.020171e+00 -1.471929e-05 -1.754138e-05 6.812566e-06
Ga -4.289569e-02 -3.727954e+00 -5.302304e+00 -5.757326e-06 -9.698081e-07 2.769401e-05
Ga -2.291213e-02 -3.718811e+00 -1.527634e-01 -1.592931e-05 1.296039e-07 4.845967e-05
Al -1.616723e+00 -9.523491e-01 5.019465e+00 -1.637240e-05 -1.024207e-05 9.468425e-06
Al -1.629881e+00 -9.567507e-01 -5.324688e+00 1.683696e-06 -1.098816e-05 8.345072e-06
Ga -1.610400e+00 -9.545677e-01 -1.317974e-01 -9.546769e-06 -1.918070e-05 2.333280e-05
N 1.613994e+00 9.091918e-01 4.359241e+00 -3.717442e-06 -9.640503e-06 -2.269985e-05
N 1.616912e+00 9.083403e-01 -5.984945e+00 -9.873534e-06 -1.534791e-06 -1.033995e-05
N 1.569937e+00 8.833620e-01 -8.206798e-01 1.268485e-05 1.329927e-05 -5.707469e-06
N -1.589530e-02 3.643539e+00 4.344314e+00 1.212998e-05 6.570219e-06 -2.251910e-06
N -2.391470e-02 3.641146e+00 -5.995670e+00 1.195600e-05 -6.672988e-06 -6.048412e-06
N -6.522340e-02 3.663672e+00 -8.073461e-01 3.128634e-05 -2.618963e-07 -2.386515e-05
N 3.166817e+00 -1.883391e+00 4.334773e+00 6.827475e-06 7.056998e-06 7.736264e-06
N 3.206057e+00 -1.857870e+00 -5.909992e+00 8.032167e-07 -9.664401e-06 -2.663770e-05
N 3.167639e+00 -1.926775e+00 -7.420668e-01 2.367680e-05 2.486317e-05 -4.018218e-05
N -4.852900e+00 9.099504e-01 4.362327e+00 1.708179e-05 1.450228e-06 -1.205900e-05
N -4.860854e+00 8.605903e-01 -5.904897e+00 2.353413e-05 7.362487e-06 -1.734597e-05
N -4.767278e+00 9.055649e-01 -7.616386e-01 -5.381332e-07 1.027843e-05 -3.848732e-05
N -6.409693e+00 3.595859e+00 4.421935e+00 3.733614e-06 2.302338e-05 -2.548337e-05
N -6.403979e+00 3.588898e+00 -5.978418e+00 -2.690124e-07 1.693465e-05 -1.996391e-05
N -6.405830e+00 3.639693e+00 -8.280642e-01 1.059213e-05 1.616992e-05 -7.026895e-06
N -3.168882e+00 -1.863336e+00 4.421356e+00 -5.877828e-06 -1.017570e-05 -1.608848e-05
N -3.209922e+00 -1.832196e+00 -5.961658e+00 4.531180e-06 -2.386600e-06 -8.545799e-06
N -3.213462e+00 -1.875702e+00 -7.716401e-01 1.827278e-05 8.754018e-06 -1.341478e-05
N -1.615978e+00 8.345942e-01 4.354918e+00 8.995566e-06 1.768568e-05 -9.525667e-06
N -1.612381e+00 8.307175e-01 -5.981536e+00 8.848782e-06 1.394514e-05 -2.009794e-06
N -1.657760e+00 9.054517e-01 -7.469874e-01 2.522366e-05 1.351061e-05 -4.901026e-05
N -3.212420e+00 3.642062e+00 4.387732e+00 9.807378e-06 -2.304855e-06 -2.453362e-05
N -3.215133e+00 3.648235e+00 -5.930271e+00 4.380308e-06 -5.113143e-06 -2.928464e-05
N -3.170395e+00 3.617798e+00 -7.061877e-01 -1.128348e-05 4.682030e-06 -3.756261e-05
N -6.581079e-02 -1.855057e+00 4.374178e+00 2.967848e-05 -6.231958e-06 -7.897025e-06
N -6.537683e-02 -1.856847e+00 -5.920357e+00 2.140187e-05 -1.414633e-05 -3.485264e-05
N -2.579441e-02 -1.875541e+00 -8.353184e-01 4.479868e-06 6.572311e-06 -3.477228e-06
N -1.963191e-02 1.801710e+00 1.864214e+00 2.204197e-05 1.304783e-05 -5.728323e-05
N -2.222627e-02 1.799792e+00 7.014942e+00 6.334346e-06 6.068931e-06 -1.346674e-06
N 1.952217e-02 1.826852e+00 -3.334467e+00 -2.163413e-06 5.470597e-06 -8.872145e-06
N 3.217860e+00 -3.701271e+00 1.786816e+00 -1.342858e-05 3.516175e-06 5.319967e-05
N 3.216146e+00 -3.745770e+00 6.984429e+00 -2.642141e-06 2.146362e-05 -1.908116e-05
N 3.211501e+00 -3.752254e+00 -3.329784e+00 6.269265e-06 1.649648e-05 -3.014335e-05
N 1.566063e+00 -9.576754e-01 1.863680e+00 1.621593e-05 2.394660e-05 -1.721691e-07
N 1.575381e+00 -9.112893e-01 6.988934e+00 1.008354e-05 -1.857712e-05 -1.778255e-05
N 1.532822e+00 -9.302702e-01 -3.322142e+00 3.297644e-05 3.119077e-06 -2.744724e-05
N 3.164540e+00 1.753018e+00 1.834270e+00 7.742101e-06 3.731098e-05 2.732691e-05
N 3.126506e+00 1.822979e+00 6.942826e+00 1.463484e-05 -1.106160e-05 -3.640722e-06
N 3.121775e+00 1.826291e+00 -3.385684e+00 2.444225e-05 -6.306457e-06 -5.279807e-06
N 6.317958e+00 -3.749880e+00 1.821650e+00 3.527569e-05 1.778654e-05 -8.348725e-06
N 6.359352e+00 -3.721279e+00 7.041606e+00 7.773783e-06 -3.784385e-07 -8.487919e-06
N 6.356225e+00 -3.774248e+00 -3.340610e+00 8.343267e-06 1.363667e-05 -1.300638e-05
N 4.724342e+00 -9.349816e-01 1.859780e+00 3.433874e-05 6.309643e-06 -5.472478e-05
N 4.806703e+00 -9.823232e-01 6.987176e+00 -4.484169e-06 2.734033e-07 -2.769729e-05
N 4.765261e+00 -9.623203e-01 -3.412415e+00 1.317995e-05 3.228179e-06 2.701787e-06
N -3.214957e+00 1.745746e+00 1.803790e+00 -1.465335e-05 2.038780e-05 4.706739e-05
N -3.172359e+00 1.770150e+00 6.995015e+00 -1.932531e-05 1.549357e-05 -1.516191e-05
N -3.207293e+00 1.803056e+00 -3.358985e+00 1.106424e-05 1.343021e-05 -1.839245e-05
N -3.145007e-02 -3.668346e+00 1.830629e+00 1.639937e-05 -2.066406e-05 -5.074208e-05
N -6.726818e-02 -3.745602e+00 6.997975e+00 1.283332e-05 6.429823e-06 -1.594005e-05
N -6.487927e-02 -3.705236e+00 -3.312298e+00 2.623392e-05 -1.328859e-06 -1.573119e-05
N -1.571831e+00 -9.383183e-01 1.843842e+00 -1.005913e-05 -6.602584e-06 -2.756600e-05
N -1.658791e+00 -9.340515e-01 6.943908e+00 2.175390e-05 -1.259538e-05 4.151098e-06
N -1.579969e+00 -9.782474e-01 -3.406374e+00 -8.221150e-06 1.851497e-05 -6.854917e-07
