108
Energy=-2.679663e+06 Lattice="9.674469e+00 0.000000e+00 0.000000e+00 -4.837088e+00 8.378620e+00 0.000000e+00 7.621070e-03 -3.668952e-03 1.570702e+01" Stress="-1.006981e-04 5.891406e-05 2.812285e-04 4.969040e-05 -8.690701e-05 -1.195966e-04 3.044967e-04 -1.263310e-04 2.688036e-05" Properties=species:S:1:pos:R:3:forces:R:3 Config_type=AlGaN_super3_49_1_10.xyz
Al 1.584419e+00 8.930560e-01 2.480687e+00 -2.260329e-04 2.841380e-04 2.507366e-04
Ga 1.584833e+00 8.925127e-01 7.685540e+00 1.572484e-04 -5.940377e-05 1.346219e-04
Ga 1.585363e+00 8.922110e-01 -2.756048e+00 1.279298e-04 -1.392817e-04 -1.288002e-04
Al -2.329872e-02 3.675448e+00 2.481701e+00 -8.137260e-05 3.022471e-04 -3.460661e-05
Ga -1.894941e-02 3.673123e+00 7.685856e+00 6.257987e-05 -2.446178e-05 1.004030e-04
Ga -2.652288e-02 3.685589e+00 -2.756913e+00 9.639744e-05 -1.582776e-04 2.831992e-04
Al 3.203098e+00 -1.904437e+00 2.470635e+00 -8.787305e-05 3.426981e-04 1.689179e-04
Ga 3.205254e+00 -1.904206e+00 7.697879e+00 5.675387e-05 2.093325e-05 1.221307e-04
Ga 3.197521e+00 -1.900916e+00 -2.756485e+00 1.107044e-04 -1.208968e-04 6.697276e-05
Ga -4.874657e+00 8.802673e-01 2.472851e+00 -1.875309e-04 3.569038e-04 1.978306e-04
Ga -4.853196e+00 8.908857e-01 7.711125e+00 1.591772e-04 1.605182e-05 1.397020e-04
Ga -4.857201e+00 8.975045e-01 -2.771004e+00 1.828120e-04 -1.712490e-04 1.537277e-04
Ga -6.484531e+00 3.673854e+00 2.472741e+00 -2.417272e-04 3.076238e-04 1.671501e-04
Ga -6.470534e+00 3.681076e+00 7.699788e+00 7.990711e-05 -3.507031e-05 1.298750e-04
Ga -6.477947e+00 3.685024e+00 -2.758870e+00 1.426521e-04 -1.471668e-04 1.622340e-04
Ga -3.261772e+00 -1.910291e+00 2.473282e+00 -2.504286e-04 3.276893e-04 1.628147e-04
Ga -3.245066e+00 -1.904915e+00 7.699443e+00 8.775105e-05 1.732176e-05 1.275701e-04
Ga -3.250858e+00 -1.900987e+00 -2.758540e+00 1.594573e-04 -9.714444e-05 1.176448e-04
Ga -1.617056e+00 9.007111e-01 2.484193e+00 -2.961986e-05 2.070319e-04 2.779806e-04
Ga -1.625423e+00 8.986344e-01 7.698655e+00 4.606429e-05 -9.095854e-05 1.031359e-04
Ga -1.643200e+00 8.993766e-01 -2.769247e+00 2.272650e-04 -2.159715e-04 1.556739e-04
Ga -3.234255e+00 3.690867e+00 2.473175e+00 -1.322752e-04 1.696599e-04 2.415411e-04
Ga -3.241158e+00 3.678171e+00 7.711336e+00 4.053972e-05 -1.498546e-04 1.288511e-04
Ga -3.246565e+00 3.679378e+00 -2.769464e+00 1.257376e-04 -2.014721e-04 1.892728e-04
Ga -9.654053e-03 -1.895819e+00 2.473360e+00 -1.988960e-04 1.420843e-04 2.550790e-04
Ga -1.515084e-02 -1.901760e+00 7.700075e+00 7.310353e-05 -5.728135e-05 8.593433e-05
Ga -2.262799e-02 -1.896327e+00 -2.757325e+00 1.376069e-04 -1.590152e-04 1.459006e-04
Al -1.350825e-02 1.823731e+00 5.059917e+00 -7.243136e-05 -2.955632e-04 -6.538564e-05
Ga -3.491371e-02 1.823843e+00 -5.384188e+00 2.907171e-05 -1.240258e-04 1.080524e-04
Ga -1.934285e-02 1.823039e+00 -1.216617e-01 -3.684629e-04 5.317509e-04 3.193406e-04
Ga 3.215208e+00 -3.770942e+00 5.063534e+00 -5.227900e-05 -8.177618e-05 1.497110e-04
Ga 3.195655e+00 -3.770736e+00 -5.387293e+00 5.130307e-05 -1.304573e-04 2.042526e-04
Ga 3.207329e+00 -3.763793e+00 -1.187508e-01 -1.253310e-04 2.033091e-04 9.344484e-05
Ga 1.595685e+00 -9.613976e-01 5.059923e+00 -2.813391e-05 -1.370170e-04 2.006298e-04
Ga 1.586943e+00 -9.669086e-01 -5.384855e+00 -1.528528e-05 -1.546604e-04 1.173192e-04
Ga 1.595197e+00 -9.672002e-01 -1.150543e-01 -3.114188e-04 7.948301e-05 1.278702e-04
Ga 3.190142e+00 1.815321e+00 5.075962e+00 8.912624e-05 -2.348998e-04 9.295588e-05
Ga 3.205004e+00 1.822843e+00 -5.386980e+00 9.834098e-05 -1.483512e-04 9.288500e-05
Ga 3.197185e+00 1.816838e+00 -1.299034e-01 -1.738910e-04 3.038088e-04 1.960378e-04
Ga 6.418346e+00 -3.777783e+00 5.071352e+00 1.488343e-04 -1.790112e-04 6.984763e-05
Ga 6.421352e+00 -3.763208e+00 -5.385817e+00 1.004276e-04 -1.479105e-04 1.639912e-04
Ga 6.421182e+00 -3.768182e+00 -1.249457e-01 -3.616836e-04 2.300628e-04 1.660519e-04
Ga 4.810280e+00 -9.754520e-01 5.078556e+00 6.027199e-05 -1.987680e-04 8.046423e-05
Ga 4.815050e+00 -9.611559e-01 -5.383247e+00 5.985712e-05 -1.907291e-04 1.617543e-04
Ga 4.810744e+00 -9.732405e-01 -1.327933e-01 -3.225284e-04 2.791303e-04 1.108994e-04
Ga -3.236154e+00 1.819555e+00 5.085562e+00 8.087113e-05 -1.511085e-04 1.268305e-04
Al -3.249599e+00 1.824089e+00 -5.386863e+00 1.182308e-04 -1.591483e-04 3.959787e-05
Ga -3.246819e+00 1.820217e+00 -1.377177e-01 -1.417404e-04 2.887109e-04 1.417002e-05
Ga -1.884123e-02 -3.766395e+00 5.090209e+00 1.001063e-04 -1.841037e-04 6.390373e-05
Ga -2.134836e-02 -3.769154e+00 -5.382511e+00 8.418484e-05 -1.560813e-04 1.535722e-04
Ga -2.159623e-02 -3.765836e+00 -1.451066e-01 -1.676086e-04 2.897785e-04 4.922642e-05
Ga -1.627807e+00 -9.625259e-01 5.087873e+00 7.533753e-05 -2.151013e-04 1.301359e-04
Ga -1.642113e+00 -9.585300e-01 -5.386855e+00 4.259945e-05 -1.741176e-04 1.415290e-04
Ga -1.635231e+00 -9.685150e-01 -1.399155e-01 -2.905093e-04 2.330459e-04 -2.648163e-07
N 1.549030e+00 9.138250e-01 4.408124e+00 5.792889e-06 2.113031e-04 -8.512125e-05
N 1.582273e+00 8.948869e-01 -6.035089e+00 -3.655109e-05 1.780014e-04 -1.015652e-04
N 1.585053e+00 8.890534e-01 -7.747639e-01 3.448458e-04 -9.511184e-05 -6.422890e-06
N -2.061832e-02 3.630342e+00 4.407712e+00 -9.786158e-05 3.336243e-04 6.219645e-05
N -2.609384e-02 3.681413e+00 -6.037080e+00 -5.853674e-05 1.149244e-04 -1.135094e-04
N -2.608446e-02 3.682541e+00 -7.742929e-01 2.135653e-04 -2.266394e-04 -2.944959e-04
N 3.205713e+00 -1.905887e+00 4.391151e+00 -4.649439e-05 1.786710e-04 -9.282649e-05
N 3.199562e+00 -1.901324e+00 -6.025935e+00 -1.290176e-05 1.668425e-04 -1.375192e-04
N 3.197183e+00 -1.903803e+00 -7.727447e-01 2.806431e-04 -1.762153e-04 -1.558662e-04
N -4.857539e+00 8.888532e-01 4.449992e+00 -7.991065e-05 3.159770e-04 -1.466605e-04
N -4.819911e+00 9.174468e-01 -6.005057e+00 -1.572275e-04 1.101942e-04 -1.747233e-04
N -4.861054e+00 8.924567e-01 -7.814454e-01 2.499490e-04 -2.143552e-04 -2.766529e-04
N -6.467579e+00 3.680497e+00 4.449362e+00 -1.854524e-04 2.637291e-04 -7.016987e-05
N -6.475915e+00 3.685283e+00 -6.025574e+00 -1.018141e-04 1.757297e-04 -1.159650e-04
N -6.477211e+00 3.681979e+00 -7.726182e-01 1.718316e-04 -1.894942e-04 -2.622645e-04
N -3.243433e+00 -1.903960e+00 4.451832e+00 -1.585039e-04 2.883491e-04 -1.113858e-04
N -3.251102e+00 -1.900780e+00 -6.025743e+00 -7.172566e-05 1.832064e-04 -1.107496e-04
N -3.250008e+00 -1.903850e+00 -7.724005e-01 2.573339e-04 -2.368779e-04 -2.523936e-04
N -1.589203e+00 9.137757e-01 4.467805e+00 -1.120359e-05 2.914359e-04 -1.097087e-04
N -1.678661e+00 9.207401e-01 -6.014068e+00 4.388616e-05 1.221460e-04 -1.493602e-04
N -1.634011e+00 8.962322e-01 -7.812229e-01 1.124547e-04 -1.487789e-04 -2.482311e-04
N -3.245196e+00 3.681281e+00 4.448243e+00 -8.796249e-05 1.933706e-04 -1.397892e-04
N -3.250082e+00 3.635407e+00 -6.005060e+00 -5.576026e-05 2.825435e-04 -1.623109e-04
N -3.241778e+00 3.683182e+00 -7.799181e-01 1.082252e-04 -2.608693e-04 -2.663085e-04
N -2.064367e-02 -1.905312e+00 4.449988e+00 -1.018493e-04 2.425815e-04 -1.362196e-04
N -2.573705e-02 -1.900132e+00 -6.023229e+00 -2.107901e-05 1.473767e-04 -1.448563e-04
N -1.806461e-02 -1.896948e+00 -7.710028e-01 1.993426e-04 -1.928570e-04 -2.741814e-04
N 2.037932e-02 1.848095e+00 1.872238e+00 3.186487e-04 -7.010334e-04 -3.764838e-04
N -1.761165e-02 1.820206e+00 6.990913e+00 -9.236383e-05 1.444436e-04 1.525015e-05
N -2.428096e-02 1.824114e+00 -3.402754e+00 -1.344725e-04 1.345196e-04 -1.180688e-04
N 3.248840e+00 -3.740820e+00 1.878818e+00 -5.700702e-06 -1.385027e-04 -1.514430e-04
N 3.206231e+00 -3.765985e+00 7.051805e+00 5.608690e-06 2.959298e-05 -1.393717e-04
N 3.201180e+00 -3.761878e+00 -3.403930e+00 -5.429647e-05 7.700645e-05 -2.094906e-04
N 1.634163e+00 -9.433905e-01 1.881228e+00 8.721661e-05 -4.578456e-06 -9.027156e-06
N 1.597265e+00 -9.713586e-01 7.046222e+00 -1.163052e-04 3.570458e-05 -1.469344e-04
N 1.588707e+00 -9.677328e-01 -3.402842e+00 -1.220861e-04 2.219216e-05 -3.861094e-05
N 3.155413e+00 1.794863e+00 1.856313e+00 2.066463e-04 -4.263412e-04 -7.352597e-05
N 3.206019e+00 1.816663e+00 7.060652e+00 -1.510488e-04 2.316255e-05 -1.437352e-04
N 3.197540e+00 1.822827e+00 -3.402859e+00 -7.692803e-05 6.922753e-05 -5.327333e-05
N 6.379474e+00 -3.790566e+00 1.860599e+00 3.889169e-04 -2.936782e-04 -1.275784e-04
N 6.428508e+00 -3.767217e+00 7.053669e+00 -1.258073e-04 -4.442349e-05 -1.179188e-04
N 6.422641e+00 -3.762681e+00 -3.402022e+00 -1.243911e-04 3.005925e-05 -1.728628e-04
N 4.769771e+00 -9.957905e-01 1.850910e+00 2.683205e-04 -4.267914e-04 -5.589161e-05
N 4.816138e+00 -9.711791e-01 7.062155e+00 -1.271953e-04 -6.977731e-05 -1.424732e-04
N 4.811362e+00 -9.697280e-01 -3.399451e+00 -1.553083e-04 5.384000e-05 -1.167858e-04
N -3.247822e+00 1.819266e+00 1.841747e+00 1.615556e-04 -2.981259e-04 -1.672433e-05
N -3.243343e+00 1.820028e+00 7.062893e+00 -8.819149e-05 6.300735e-05 -1.283407e-04
N -3.249109e+00 1.823899e+00 -3.459907e+00 -1.324099e-04 1.161440e-04 -3.645925e-05
N -2.434947e-02 -3.764725e+00 1.833843e+00 2.289422e-04 -3.235829e-04 -5.509167e-05
N -1.591931e-02 -3.767096e+00 7.070962e+00 -8.538197e-05 4.574838e-05 -9.796518e-05
N -2.526553e-02 -3.761593e+00 -3.397013e+00 -5.499191e-05 4.758220e-05 -1.695460e-04
N -1.637447e+00 -9.677164e-01 1.840848e+00 2.145641e-04 -3.313480e-04 1.448209e-05
N -1.629914e+00 -9.691771e-01 7.069720e+00 -1.344738e-04 1.355619e-05 -1.128371e-04
N -1.637256e+00 -9.679013e-01 -3.400622e+00 -1.472934e-04 5.046154e-05 -1.565482e-04
