108
Energy=-665541.352046 Lattice="9.442645 0.000000 0.000000 -4.736666 8.166416 0.000000 0.008600 -0.007696 15.150128" Stress="0.000031 0.000002 0.000003 0.000002 0.000030 -0.000002 0.000003 -0.000002 0.000015" Properties=species:S:1:pos:R:3:forces:R:3
Al 1.551042 0.868254 2.391750 0.000363 -0.001321 -0.001597
Al 1.545903 0.860196 7.421212 0.002359 -0.002184 -0.000724
Al 1.543760 0.872910 -2.681699 0.000107 -0.002559 -0.000719
Al -0.006861 3.580308 2.407244 -0.007207 0.000120 -0.004200
Al -0.019428 3.581063 7.428116 0.000368 -0.000015 0.000267
Al -0.026224 3.582992 -2.700588 -0.000764 0.001018 -0.002998
Al 3.141854 -1.856118 2.387284 0.000654 0.000101 -0.000056
Al 3.146517 -1.865706 7.425404 0.000255 0.000001 0.000639
Al 3.145831 -1.850127 -2.694514 -0.000051 -0.003112 0.000617
Al -4.758579 0.870775 2.381950 0.002978 -0.001475 -0.002989
Al -4.748189 0.864413 7.434735 -0.000249 -0.002287 -0.001344
Al -4.757993 0.872250 -2.676706 0.002403 -0.002376 -0.002458
Al -6.317027 3.589235 2.395292 0.000544 -0.001039 -0.001337
Al -6.320447 3.592434 7.422962 0.000110 -0.001048 -0.000388
Al -6.326851 3.588318 -2.674238 -0.000093 0.001952 -0.001741
Al -3.157211 -1.851293 2.391567 0.000281 0.002162 -0.000668
Al -3.155218 -1.860038 7.425484 0.000263 -0.000130 0.000218
Al -3.172632 -1.845735 -2.690210 0.000439 -0.002102 0.000030
Al -1.607488 0.877256 2.387599 0.003220 -0.000600 -0.004639
Al -1.608905 0.873306 7.439546 0.004522 -0.002668 -0.001420
Al -1.624893 0.883062 -2.690773 0.004481 -0.001330 -0.002139
Al -3.179772 3.603891 2.392595 -0.000402 -0.003861 -0.000235
Al -3.181512 3.595230 7.440456 0.002765 0.000868 -0.000681
Al -3.189162 3.587013 -2.655430 0.002288 0.002527 -0.041317
Al -0.015208 -1.848670 2.382033 0.002319 0.001170 -0.002090
Al -0.015368 -1.854634 7.430111 0.003030 0.000240 0.000281
Ga -0.028424 -1.850027 -2.669308 0.004439 -0.000330 0.000026
Al -0.012161 1.765009 4.914458 -0.003044 0.000153 -0.000423
Al -0.031832 1.769113 -5.209243 -0.002244 0.001171 0.000268
Al -0.031077 1.772559 -0.180719 -0.002255 -0.004211 0.009810
Al 3.148975 -3.673354 4.914712 -0.002164 -0.000003 0.000081
Al 3.137730 -3.673626 -5.202274 -0.002582 0.000215 0.001089
Ga 3.111732 -3.683794 -0.169511 -0.001899 0.002226 0.000355
Al 1.577879 -0.962248 4.908352 -0.003830 0.002318 -0.000967
Al 1.568921 -0.957053 -5.210578 -0.003836 0.001278 0.000114
Al 1.572514 -0.938781 -0.161337 -0.003381 0.000089 0.008352
Al 3.116779 1.770968 4.913816 -0.000207 0.000547 0.000408
Ga 3.111787 1.778389 -5.203295 -0.000342 0.000430 0.000505
Al 3.113009 1.771167 -0.155906 -0.000528 -0.000284 0.001766
Al 6.288611 -3.673558 4.910788 -0.000072 0.000852 -0.000118
Al 6.278891 -3.661267 -5.205202 -0.000631 -0.000595 0.000487
Ga 6.273632 -3.670694 -0.147993 0.000297 0.001791 -0.000175
Al 4.713057 -0.960185 4.911888 -0.000768 0.002178 -0.000277
Al 4.713414 -0.954951 -5.207689 -0.002179 0.001924 0.000182
Al 4.709216 -0.936134 -0.151317 -0.001866 -0.000004 0.000128
Ga -3.180532 1.779069 4.912527 -0.000360 -0.000133 0.000083
Al -3.180952 1.783866 -5.203239 -0.001016 0.001035 0.001635
Al -3.193715 1.794136 -0.191237 0.000082 -0.004380 0.008495
Al -0.014280 -3.660917 4.912653 -0.000877 0.000180 0.001143
Al -0.018845 -3.660352 -5.205854 -0.000166 0.000443 0.002331
Al -0.035692 -3.679102 -0.128194 0.003613 0.004114 -0.009777
Al -1.579167 -0.954348 4.911435 -0.002159 0.002353 -0.000085
Al -1.595483 -0.942572 -5.208852 -0.000590 0.001567 -0.000573
Al -1.601527 -0.932179 -0.149165 0.001173 0.001410 0.001276
N 1.550280 0.866774 4.315759 0.001441 -0.002767 -0.000445
N 1.513512 0.853594 -5.818395 -0.004328 -0.005346 -0.002499
N 1.537659 0.872401 -0.762728 0.001764 -0.001402 0.001590
N -0.019549 3.580574 4.321327 -0.000124 0.000569 -0.000453
N -0.027401 3.588369 -5.801757 0.000343 -0.000199 0.000304
N -0.037674 3.555590 -0.793715 0.000515 -0.004836 -0.002604
N 3.146936 -1.863578 4.313296 0.000073 -0.000413 -0.001315
N 3.137789 -1.857987 -5.805378 0.000607 -0.000334 -0.000092
N 3.137200 -1.826111 -0.772288 0.000098 0.006206 -0.001732
N -4.780702 0.852468 4.298765 -0.004251 -0.005574 -0.002762
N -4.732837 0.857800 -5.809467 0.007276 -0.005323 -0.001602
N -4.761478 0.872623 -0.763239 0.000967 -0.001124 0.003418
N -6.316639 3.587406 4.315869 0.000032 0.000043 -0.000903
N -6.329699 3.625721 -5.816487 0.000057 0.006487 -0.002738
N -6.310251 3.574857 -0.760999 0.005769 -0.002866 -0.000946
N -3.156063 -1.855648 4.312665 0.000370 -0.000272 -0.000273
N -3.165039 -1.853689 -5.806379 0.000743 0.000136 -0.000393
N -3.169962 -1.820839 -0.771938 0.001467 0.005845 -0.001202
N -1.583177 0.859830 4.300955 0.009173 -0.005428 -0.002051
N -1.618221 0.881659 -5.799361 0.003384 -0.002589 0.000474
N -1.623033 0.883880 -0.775439 0.003558 -0.001535 0.004532
N -3.183199 3.628216 4.305287 0.003072 0.006795 -0.002921
N -3.189372 3.601005 -5.796936 0.002885 -0.000420 -0.000382
N -3.239228 3.576362 -0.874751 -0.002128 0.000041 0.052478
N -0.017831 -1.853547 4.309913 0.003136 -0.000069 -0.001829
N -0.023616 -1.846912 -5.798829 0.002042 0.000357 -0.000707
N -0.015899 -1.843474 -0.698050 -0.001581 -0.002592 0.004459
N -0.014199 1.773089 1.785553 -0.003392 0.000759 -0.005778
N -0.019210 1.765514 6.831533 -0.003308 0.000449 -0.000292
N -0.025340 1.767440 -3.292724 -0.002278 -0.000501 0.001663
N 3.125167 -3.673799 1.801889 0.005925 -0.001906 0.007221
N 3.147304 -3.680758 6.834840 -0.002695 -0.000622 -0.000624
N 3.137588 -3.674494 -3.278838 -0.002335 0.000683 -0.000801
N 1.579058 -0.950009 1.801612 -0.003732 0.001386 -0.006335
N 1.577640 -0.964626 6.828032 -0.003750 0.001862 -0.000126
N 1.598181 -0.937043 -3.294004 0.000123 0.005102 -0.001683
N 3.118658 1.779051 1.778751 -0.000426 0.000116 -0.001366
N 3.123603 1.771550 6.834180 -0.000066 0.000228 -0.000704
N 3.114384 1.777530 -3.247438 -0.000272 -0.000114 0.007847
N 6.288287 -3.666232 1.814771 -0.000578 -0.000867 0.009177
N 6.287266 -3.673372 6.827320 -0.000624 -0.000115 -0.000441
N 6.282436 -3.666671 -3.283486 0.000337 0.000030 0.000767
N 4.714933 -0.953967 1.773885 -0.001293 0.002001 0.001157
N 4.718564 -0.957167 6.829811 -0.001315 0.002340 -0.000430
N 4.709903 -0.947358 -3.290306 -0.001458 0.003135 0.000257
N -3.180610 1.786379 1.782806 -0.000597 0.001544 -0.007307
N -3.177685 1.777401 6.868382 -0.000130 0.000553 0.006532
N -3.187900 1.780912 -3.281375 -0.001068 -0.000803 -0.001478
N -0.012361 -3.667898 1.768430 -0.000541 -0.001102 0.005619
N -0.011774 -3.667757 6.831625 0.000180 -0.000120 -0.000905
N -0.021099 -3.696121 -3.287984 -0.001070 -0.005575 -0.005086
N -1.587205 -0.945518 1.777525 -0.002232 0.001975 0.001144
N -1.582513 -0.951170 6.833073 -0.001414 0.002701 -0.000207
N -1.621436 -0.928670 -3.295543 -0.005940 0.005087 -0.001680
