108
Energy=-711317.142464 Lattice="9.428963 0.000000 0.000000 -4.715296 8.164504 0.000000 0.000423 0.002019 15.141676" Stress="0.000000 -0.000000 0.000000 -0.000000 -0.000001 0.000001 0.000000 0.000001 0.000001" Properties=species:S:1:pos:R:3:forces:R:3
Al 1.555811 0.875076 2.379218 -0.000026 -0.000196 -0.000024
Al 1.550387 0.868913 7.423547 0.000028 0.000025 -0.000006
Al 1.556524 0.869955 -2.684325 0.000037 0.000040 -0.000064
Al -0.027161 3.587116 2.396335 0.000027 0.000111 -0.000052
Al -0.021216 3.590914 7.414289 -0.000013 0.000017 -0.000041
Al -0.014643 3.592796 -2.688105 -0.000010 0.000034 0.000015
Al 3.125037 -1.854913 2.368806 -0.000042 0.000033 -0.000055
Al 3.116174 -1.854218 7.437571 -0.000008 0.000010 0.000002
Al 3.126717 -1.848390 -2.685591 -0.000002 0.000006 -0.000042
Al -4.740223 0.872649 2.371519 0.000027 0.000090 0.000027
Al -4.739167 0.875045 7.429187 0.000027 0.000012 -0.000009
Al -4.750420 0.860764 -2.678767 -0.000000 0.000050 -0.000039
Al -6.316030 3.574174 2.408841 0.000233 0.000028 -0.000085
Al -6.311275 3.588787 7.421943 -0.000014 0.000010 -0.000035
Al -6.317897 3.583770 -2.706299 0.000003 0.000068 0.000114
Al -3.169679 -1.849939 2.384596 0.000031 0.000097 -0.000031
Al -3.161934 -1.857049 7.436228 -0.000022 0.000012 -0.000018
Al -3.170253 -1.855906 -2.695866 0.000006 -0.000011 -0.000031
Al -1.597607 0.873726 2.380742 -0.000125 -0.000156 -0.000018
Al -1.593749 0.871212 7.421450 0.000025 0.000003 -0.000016
Ga -1.589397 0.862853 -2.675137 0.000134 -0.000103 -0.000009
Al -3.153895 3.580148 2.395358 -0.000110 0.000014 -0.000075
Al -3.164580 3.590700 7.420954 -0.000004 -0.000018 -0.000030
Ga -3.165007 3.595000 -2.686016 0.000024 -0.000033 0.000005
Ga -0.021382 -1.843222 2.403246 -0.000013 0.000070 0.000027
Al -0.019461 -1.850795 7.415418 -0.000008 -0.000031 -0.000075
Al -0.023436 -1.848827 -2.690639 -0.000022 -0.000073 -0.000026
Al -0.022382 1.772852 4.901941 0.000004 0.000092 0.000000
Al -0.018157 1.777389 -5.217000 -0.000001 0.000045 -0.000015
Al -0.020086 1.771552 -0.137389 -0.000069 0.000042 -0.000067
Al 3.116474 -3.671911 4.908313 -0.000011 0.000051 -0.000033
Al 3.126520 -3.666732 -5.215651 -0.000005 0.000021 -0.000034
Al 3.128101 -3.666317 -0.140146 -0.000025 -0.000032 -0.000048
Al 1.550626 -0.940353 4.918291 -0.000033 0.000024 -0.000015
Al 1.548468 -0.946117 -5.202406 -0.000047 0.000020 -0.000027
Al 1.556687 -0.936259 -0.166809 -0.000006 -0.000024 0.000002
Al 3.114845 1.779649 4.909405 0.000026 0.000051 -0.000025
Al 3.119747 1.772171 -5.205792 0.000019 0.000007 -0.000059
Al 3.117976 1.761832 -0.153085 -0.000007 0.000380 -0.000017
Al 6.267213 -3.673062 4.906171 0.000014 0.000052 -0.000018
Al 6.261099 -3.669925 -5.203628 0.000013 -0.000003 -0.000041
Ga 6.255792 -3.668827 -0.149269 0.000017 -0.000053 -0.000063
Ga 4.690464 -0.945447 4.908922 -0.000083 0.000046 0.000024
Al 4.690706 -0.944311 -5.204456 -0.000029 -0.000010 -0.000037
Al 4.688489 -0.940549 -0.153756 0.000022 -0.000056 0.000021
Al -3.161385 1.781452 4.903916 -0.000051 0.000070 -0.000042
Al -3.170132 1.772254 -5.222395 0.000017 0.000008 -0.000096
Al -3.167485 1.763774 -0.127810 -0.000020 0.000344 0.000192
Al -0.021045 -3.675603 4.917027 0.000007 0.000028 -0.000068
Al -0.025432 -3.663759 -5.218431 0.000010 0.000012 -0.000024
Ga -0.021814 -3.668485 -0.142073 -0.000003 -0.000087 0.000052
Al -1.593162 -0.939350 4.922647 -0.000017 0.000006 -0.000028
Al -1.591585 -0.949762 -5.216453 -0.000011 -0.000022 -0.000077
Al -1.597567 -0.936761 -0.149403 -0.000015 -0.000039 -0.000025
N 1.550394 0.867568 4.302242 0.000038 -0.000046 -0.000019
N 1.550543 0.865848 -5.804530 0.000041 -0.000009 0.000043
N 1.546818 0.872462 -0.760712 0.000042 0.000031 0.000033
N -0.025680 3.589518 4.314387 0.000016 -0.000061 0.000000
N -0.020646 3.589582 -5.813827 0.000009 -0.000006 0.000021
N -0.064985 3.562564 -0.772410 0.000053 -0.000004 0.000022
N 3.078020 -1.876221 4.282138 0.000039 -0.000033 0.000012
N 3.117774 -1.852170 -5.794378 0.000023 -0.000018 0.000029
N 3.123441 -1.857140 -0.758260 0.000017 -0.000008 0.000014
N -4.739430 0.917819 4.284842 0.000051 -0.000116 0.000004
N -4.741765 0.868662 -5.804746 0.000033 0.000008 0.000019
N -4.737141 0.868722 -0.751008 -0.000000 0.000018 0.000018
N -6.309419 3.585859 4.321324 -0.000050 -0.000045 0.000033
N -6.312590 3.586887 -5.802344 -0.000028 -0.000003 0.000041
N -6.310484 3.541524 -0.799003 -0.000031 -0.000262 -0.000027
N -3.122817 -1.872942 4.293442 -0.000016 -0.000003 0.000007
N -3.166333 -1.856894 -5.794055 0.000000 -0.000009 0.000044
N -3.166513 -1.806442 -0.778183 0.000010 -0.000037 -0.000003
N -1.594682 0.867456 4.304651 0.000085 -0.000078 -0.000001
N -1.592348 0.868808 -5.805508 0.000039 -0.000042 0.000018
N -1.593967 0.872399 -0.697713 0.000139 -0.000032 -0.000062
N -3.162696 3.589587 4.313102 0.000014 -0.000071 0.000073
N -3.164865 3.591150 -5.804373 0.000006 -0.000046 0.000018
N -3.123142 3.563190 -0.716556 -0.000054 -0.000139 -0.000033
N -0.021981 -1.849162 4.377035 0.000012 -0.000076 0.000026
N -0.018551 -1.850896 -5.811477 0.000006 -0.000057 0.000032
N -0.023933 -1.805950 -0.771937 -0.000013 -0.000035 -0.000012
N -0.019016 1.777376 1.788247 0.000026 -0.000010 0.000017
N -0.021150 1.774472 6.820554 -0.000018 -0.000003 0.000017
N 0.019593 1.797680 -3.304993 -0.000082 0.000033 0.000028
N 3.125311 -3.669620 1.782095 0.000008 0.000022 0.000037
N 3.121066 -3.663893 6.825526 -0.000004 0.000019 0.000044
N 3.164929 -3.642962 -3.306806 -0.000018 0.000001 0.000022
N 1.588913 -0.920755 1.750537 0.000027 0.000201 0.000135
N 1.556235 -0.942629 6.830327 -0.000033 0.000027 0.000019
N 1.550970 -0.945587 -3.279635 -0.000050 0.000037 0.000035
N 3.117970 1.778446 1.771295 0.000015 -0.000102 -0.000058
N 3.119364 1.775027 6.824353 -0.000004 -0.000038 0.000027
N 3.120798 1.769441 -3.289592 -0.000002 -0.000012 0.000065
N 6.264323 -3.670678 1.834806 -0.000127 -0.000045 0.000071
N 6.264521 -3.665105 6.822964 0.000029 -0.000018 0.000041
N 6.260541 -3.667403 -3.285408 0.000005 -0.000034 0.000037
N 4.693133 -0.946110 1.775336 -0.000055 0.000017 -0.000008
N 4.691833 -0.946252 6.882219 -0.000020 -0.000025 -0.000055
N 4.690200 -0.943786 -3.283829 0.000001 -0.000012 0.000039
N -3.166820 1.775095 1.789507 -0.000039 -0.000063 -0.000110
N -3.166216 1.775741 6.823534 -0.000009 -0.000028 0.000014
N -3.207916 1.748207 -3.319907 -0.000021 0.000011 0.000121
N -0.025358 -3.714087 1.831963 -0.000015 -0.000020 0.000011
N -0.022379 -3.671057 6.832601 0.000006 -0.000017 0.000028
N -0.062079 -3.642350 -3.305222 0.000056 -0.000029 0.000012
N -1.633394 -0.925562 1.762775 0.000028 0.000100 0.000130
N -1.598529 -0.942960 6.835377 -0.000042 -0.000004 0.000049
N -1.593880 -0.991628 -3.308004 -0.000047 0.000089 0.000039
