108
Energy=-1809928.777971 Lattice="9.562255 0.000000 0.000000 -4.782328 8.278657 0.000000 -0.002473 0.002019 15.470999" Stress="0.000001 -0.000001 -0.000000 -0.000001 0.000001 0.000000 -0.000000 0.000000 -0.000000" Properties=species:S:1:pos:R:3:forces:R:3
Al 1.571637 0.883811 2.429188 0.000080 0.000047 0.000491
Al 1.574745 0.891774 7.604616 -0.000044 -0.000010 0.000039
Al 1.567825 0.882810 -2.741447 -0.000040 0.000017 0.000456
Al -0.022199 3.650915 2.441270 0.000017 -0.000026 0.000440
Al -0.019069 3.648006 7.574655 0.000048 0.000014 0.000146
Ga -0.025981 3.615644 -2.724005 0.000065 0.000040 0.000260
Ga 3.172130 -1.880292 2.409080 -0.000008 0.000067 0.000475
Al 3.177733 -1.882283 7.585079 -0.000135 -0.000048 0.000068
Ga 3.175673 -1.859071 -2.700605 -0.000059 -0.000069 0.000244
Ga -4.810357 0.873400 2.443280 -0.000005 0.000203 0.000333
Ga -4.815843 0.872232 7.603417 0.000049 0.000136 -0.000098
Al -4.807531 0.870292 -2.770473 0.000177 -0.000961 0.004939
Ga -6.419348 3.637503 2.443285 0.000173 -0.000021 0.000403
Ga -6.424691 3.631003 7.587385 0.000033 0.000116 0.000058
Ga -6.390430 3.622084 -2.731402 -0.000095 0.000177 0.000395
Al -3.214505 -1.880239 2.415237 0.000051 0.000003 0.000445
Al -3.232042 -1.891521 7.593267 0.000143 -0.000077 0.000142
Ga -3.221539 -1.855174 -2.714765 0.000141 -0.000095 0.000322
Ga -1.610372 0.875804 2.432240 -0.000171 0.000042 0.000490
Ga -1.612975 0.892206 7.601646 -0.000022 0.000013 0.000170
Al -1.609133 0.883285 -2.738913 -0.000004 -0.000091 0.000432
Ga -3.191968 3.642510 2.431355 -0.000262 0.000004 0.000547
Ga -3.195567 3.638108 7.599460 -0.000132 -0.000003 0.000076
Ga -3.214705 3.629610 -2.724374 -0.000084 0.000058 0.000468
Ga -0.025903 -1.862289 2.399963 -0.000065 -0.000199 0.000498
Ga -0.018913 -1.872160 7.604844 -0.000090 -0.000007 0.000057
Ga -0.021376 -1.872520 -2.702447 -0.000162 -0.000083 0.000188
Ga -0.010531 1.819960 5.005593 0.000131 0.000068 0.000105
Al -0.015316 1.799094 -5.311197 -0.000035 0.000419 -0.000151
Ga -0.021060 1.787638 -0.136565 0.000160 0.000034 -0.000925
Al 3.177986 -3.725632 5.022342 -0.000057 0.000047 0.000057
Ga 3.168277 -3.723834 -5.321872 0.000220 0.000180 0.000059
Al 3.160660 -3.707435 -0.138390 0.000016 -0.000042 -0.001148
Ga 1.584808 -0.947011 5.024675 0.000089 -0.000071 0.000182
Ga 1.585292 -0.947959 -5.307480 0.000098 -0.000176 0.000115
Al 1.572496 -0.957815 -0.154797 0.000067 0.000066 -0.001037
Al 3.157083 1.799824 5.015538 0.000040 0.000094 -0.000057
Al 3.167574 1.789137 -5.294630 -0.000369 0.000362 -0.000332
Ga 3.166825 1.779993 -0.163163 0.000438 -0.000247 -0.001165
Al 6.334839 -3.714704 5.004691 0.000147 0.000011 0.000098
Ga 6.351117 -3.726627 -5.319126 -0.000053 0.000155 0.000002
Ga 6.347493 -3.702982 -0.128335 0.000075 -0.000084 -0.001085
Ga 4.764732 -0.965085 5.016745 -0.000035 -0.000089 0.000051
Al 4.756030 -0.949199 -5.319009 0.000320 -0.001489 -0.001383
Al 4.758517 -0.957376 -0.140530 -0.000020 0.000508 -0.001199
Al -3.215949 1.808803 5.015281 -0.000093 0.000095 -0.000120
Al -3.218122 1.792681 -5.278310 0.000377 0.000251 -0.000348
Ga -3.213014 1.791482 -0.175543 -0.000523 -0.000283 -0.001344
Ga -0.020562 -3.733920 5.009180 -0.000026 -0.000006 -0.000031
Al -0.021466 -3.739130 -5.303415 -0.000090 0.000163 -0.000146
Al -0.013004 -3.706256 -0.136276 -0.000049 -0.000158 -0.001127
Ga -1.636487 -0.964528 5.018549 0.000023 -0.000235 0.000124
Ga -1.626586 -0.953817 -5.299267 -0.000066 -0.000282 0.000002
Al -1.617968 -0.958534 -0.153829 -0.000052 -0.000044 -0.001079
N 1.613712 0.900922 4.344718 -0.000124 0.000098 -0.000044
N 1.574905 0.931948 -5.943414 0.000219 -0.000059 0.000027
N 1.566090 0.836049 -0.824456 -0.000103 0.000259 -0.000267
N -0.028453 3.693388 4.368459 0.000027 -0.000219 -0.000077
N -0.022281 3.588536 -5.977185 0.000030 0.000091 0.000076
N -0.065185 3.657981 -0.751297 0.000179 -0.000054 -0.000373
N 3.163607 -1.928309 4.394203 0.000027 0.000141 -0.000160
N 3.207665 -1.857958 -5.971106 -0.000119 -0.000067 0.000065
N 3.169521 -1.875118 -0.705893 -0.000015 -0.000099 -0.000500
N -4.806959 0.927517 4.429154 0.000011 0.000018 -0.000184
N -4.803066 0.883003 -5.873384 -0.000029 0.000695 0.000068
N -4.806553 0.824787 -0.832384 -0.000030 0.000204 -0.002453
N -6.446859 3.616405 4.431251 0.000076 0.000060 -0.000133
N -6.358930 3.604537 -5.895807 -0.000067 -0.000046 -0.000145
N -6.355635 3.663386 -0.749810 -0.000258 0.000041 -0.000460
N -3.211934 -1.923268 4.336058 0.000038 0.000088 -0.000009
N -3.252458 -1.859297 -5.964118 0.000037 0.000072 0.000230
N -3.215510 -1.828033 -0.736571 0.000082 -0.000258 -0.000510
N -1.655272 0.903677 4.411274 0.000010 0.000052 -0.000267
N -1.618693 0.933752 -5.885724 -0.000265 -0.000163 -0.000301
N -1.608099 0.836291 -0.814957 0.000016 0.000144 -0.000429
N -3.160843 3.619990 4.419145 -0.000170 -0.000005 -0.000184
N -3.248508 3.604110 -5.888666 -0.000073 -0.000105 -0.000196
N -3.211572 3.691495 -0.739912 0.000015 -0.000072 -0.000571
N -0.019844 -1.871976 4.379344 -0.000165 -0.000123 -0.000146
N -0.020083 -1.928381 -5.895902 -0.000146 -0.000040 -0.000037
N -0.021992 -1.879159 -0.707472 -0.000088 0.000018 -0.000424
N 0.020320 1.827227 1.850072 -0.000019 0.000061 0.000694
N 0.023004 1.824240 6.992262 -0.000029 0.000048 -0.000217
N -0.019028 1.750778 -3.380971 0.000120 0.000273 0.000034
N 3.209810 -3.744460 1.768464 0.000023 0.000128 0.000988
N 3.206421 -3.696467 6.953140 -0.000050 0.000000 -0.000038
N 3.167604 -3.711492 -3.352249 0.000143 0.000094 -0.000164
N 1.574288 -0.901200 1.760493 0.000133 -0.000139 0.001012
N 1.614044 -0.927599 7.013852 0.000024 -0.000088 -0.000181
N 1.574741 -0.916817 -3.329340 0.000204 -0.000170 -0.000271
N 3.124667 1.774418 1.810207 0.000176 0.000176 0.000893
N 3.119544 1.770378 6.932530 0.000202 0.000091 0.000069
N 3.160418 1.746824 -3.368415 -0.000476 0.000607 -0.000830
N 6.308082 -3.694750 1.845457 0.000150 -0.000058 0.000707
N 6.305855 -3.690652 6.940308 0.000155 -0.000061 -0.000060
N 6.350134 -3.714982 -3.346872 0.000020 -0.000055 -0.000089
N 4.800505 -0.973626 1.773470 -0.000123 -0.000081 0.000996
N 4.759481 -1.003905 6.996349 -0.000018 0.000094 -0.000308
N 4.754789 -0.922239 -3.407288 -0.000030 0.000149 0.000972
N -3.212731 1.796816 1.791037 -0.000041 -0.000073 0.001131
N -3.215885 1.797726 6.922065 -0.000138 0.000005 0.000216
N -3.208737 1.750301 -3.352154 0.000283 0.000569 -0.000784
N -0.023359 -3.724627 1.771779 -0.000079 -0.000087 0.001304
N -0.024216 -3.721499 6.973035 -0.000055 -0.000135 -0.000059
N -0.021322 -3.715852 -3.395781 -0.000031 -0.000057 0.000050
N -1.662673 -0.976011 1.761257 0.000003 -0.000065 0.001003
N -1.665181 -0.982687 6.997724 0.000047 -0.000097 -0.000138
N -1.616075 -0.916628 -3.327386 -0.000042 -0.000292 -0.000129
