108
Energy=-1581051.233522 Lattice="9.534176 0.000000 0.000000 -4.770338 8.258071 0.000000 0.001978 0.001076 15.391147" Stress="0.000000 -0.000001 0.000000 -0.000001 0.000002 0.000000 0.000000 0.000000 -0.000008" Properties=species:S:1:pos:R:3:forces:R:3
Al 1.557274 0.870901 2.404438 -0.000123 -0.000030 0.000027
Al 1.550291 0.870183 7.545504 0.000042 0.000034 0.000131
Al 1.552198 0.870288 -2.705552 -0.000003 0.000253 0.000097
Al -0.041398 3.624052 2.395499 0.000015 0.000080 -0.000060
Al -0.032077 3.613238 7.542885 0.000006 0.000001 0.000128
Al -0.034719 3.619881 -2.690302 0.000016 0.000070 -0.000278
Al 3.144871 -1.880710 2.376067 0.000129 -0.000158 0.000211
Al 3.140156 -1.875354 7.553537 0.000004 0.000048 0.000072
Ga 3.144829 -1.876579 -2.686352 -0.000087 -0.000093 0.000030
Ga -4.792710 0.878226 2.399585 0.000106 -0.000012 0.000147
Ga -4.782041 0.885243 7.549370 0.000124 -0.000011 0.000072
Al -4.779867 0.879394 -2.691908 -0.000192 0.000242 -0.000022
Ga -6.393219 3.618488 2.381989 0.000056 0.000003 0.000095
Ga -6.384362 3.625829 7.562813 -0.000022 0.000094 0.000109
Ga -6.385574 3.626211 -2.684339 -0.000052 -0.000060 0.000107
Ga -3.203993 -1.869420 2.383647 0.000095 -0.000017 0.000062
Ga -3.206150 -1.877727 7.544261 -0.000019 -0.000001 0.000132
Al -3.197630 -1.866371 -2.668203 0.000383 -0.000302 -0.000082
Al -1.600907 0.887347 2.423024 -0.000041 -0.000114 -0.000053
Ga -1.601027 0.905526 7.546516 0.000099 -0.000036 0.000185
Al -1.609427 0.884161 -2.721670 0.000025 0.000003 0.000004
Al -3.173630 3.630371 2.406794 0.000025 -0.000016 0.000109
Al -3.186261 3.623481 7.549327 -0.000013 -0.000028 0.000154
Al -3.189130 3.620478 -2.699736 0.000258 0.000030 -0.000174
Ga -0.008881 -1.849247 2.410817 -0.000027 -0.000036 0.000080
Ga 0.002833 -1.862092 7.536528 0.000016 -0.000025 0.000099
Al -0.018126 -1.855454 -2.691188 0.000235 0.000196 -0.000263
Al -0.025523 1.781413 4.952327 0.000007 0.000078 0.000000
Al -0.022196 1.790987 -5.258601 0.000157 -0.000250 -0.000096
Ga -0.015695 1.791343 -0.147361 -0.000048 0.000030 0.000030
Ga 3.154957 -3.713337 4.977548 -0.000005 0.000078 0.000095
Ga 3.153771 -3.725549 -5.285393 -0.000034 0.000049 0.000157
Al 3.165147 -3.702535 -0.138877 0.000321 -0.000036 -0.000117
Al 1.568507 -0.942123 4.967124 0.000004 -0.000030 0.000049
Al 1.560504 -0.943138 -5.266250 -0.000093 0.000066 -0.000030
Al 1.573498 -0.948481 -0.148221 -0.000093 0.000098 0.000123
Ga 3.136990 1.778550 4.984422 -0.000013 -0.000049 0.000130
Ga 3.140022 1.771873 -5.259874 -0.000037 -0.000029 0.000099
Al 3.143318 1.772336 -0.161350 0.000095 0.000356 -0.000448
Ga 6.323136 -3.714686 4.972438 -0.000004 -0.000005 0.000090
Ga 6.313857 -3.718709 -5.245330 -0.000019 0.000028 0.000197
Al 6.316169 -3.701908 -0.159627 0.000124 0.000091 -0.000098
Ga 4.735783 -0.958559 4.971240 -0.000080 -0.000026 0.000075
Ga 4.737672 -0.952105 -5.248873 -0.000077 0.000015 0.000113
Al 4.740384 -0.962088 -0.160329 -0.000014 0.000140 -0.000190
Al -3.178381 1.796299 4.956713 -0.000051 -0.000003 0.000143
Al -3.193617 1.802109 -5.242874 -0.000086 -0.000007 0.000112
Ga -3.194548 1.789738 -0.155592 0.000023 -0.000084 0.000083
Ga -0.004978 -3.708099 4.971040 -0.000014 -0.000053 0.000114
Ga 0.000291 -3.709423 -5.249199 -0.000037 -0.000009 0.000058
Ga -0.010487 -3.696228 -0.156983 -0.000046 -0.000164 0.000070
Al -1.601712 -0.931411 4.968110 -0.000075 0.000039 0.000165
Ga -1.602374 -0.943709 -5.237610 -0.000058 -0.000052 0.000130
Al -1.610435 -0.951862 -0.173941 -0.000140 0.000059 0.000086
N 1.524512 0.851323 4.324353 -0.000077 -0.000096 -0.000041
N 1.511608 0.850823 -5.914402 -0.000073 0.000018 0.000045
N 1.598457 0.849615 -0.792589 -0.000021 0.000005 -0.000057
N -0.030246 3.583559 4.311874 -0.000005 -0.000043 0.000016
N -0.023598 3.571202 -5.929764 -0.000031 0.000057 -0.000094
N -0.031478 3.671497 -0.776268 -0.000449 0.000107 0.000271
N 3.110311 -1.855669 4.301286 -0.000094 0.000040 -0.000001
N 3.108455 -1.849002 -5.912548 0.000101 -0.000046 -0.000108
N 3.149041 -1.877276 -0.705842 0.000143 -0.000219 0.000054
N -4.751016 0.903188 4.373199 0.000080 0.000058 -0.000096
N -4.742391 0.904096 -5.864776 0.000112 -0.000028 -0.000114
N -4.825470 0.857154 -0.775078 -0.000109 -0.000174 0.000223
N -6.381142 3.625735 4.350936 0.000009 0.000028 -0.000131
N -6.381208 3.630056 -5.857676 0.000055 0.000030 -0.000108
N -6.422709 3.605976 -0.710585 0.000089 -0.000251 0.000160
N -3.156073 -1.848831 4.362164 0.000013 0.000031 -0.000105
N -3.196591 -1.873531 -5.880181 0.000035 0.000009 -0.000178
N -3.199033 -1.872380 -0.748502 -0.000006 0.000024 -0.000013
N -1.608718 0.877919 4.351621 0.000072 -0.000011 -0.000133
N -1.613681 0.928743 -5.846897 0.000062 0.000081 -0.000038
N -1.606767 0.839722 -0.815659 0.000030 0.000001 0.000014
N -3.192893 3.586376 4.315009 0.000046 -0.000020 -0.000135
N -3.205154 3.572899 -5.925423 0.000081 -0.000037 -0.000111
N -3.151644 3.652620 -0.795042 0.000007 0.000049 -0.000021
N -0.019729 -1.821359 4.394138 0.000167 0.000120 0.000000
N 0.016369 -1.849111 -5.874820 0.000053 0.000018 -0.000073
N -0.013957 -1.818896 -0.775850 0.000091 0.000015 0.000150
N -0.024011 1.792679 1.838807 0.000131 -0.000164 0.000058
N 0.021723 1.816907 6.884929 -0.000064 0.000050 -0.000209
N -0.017658 1.800165 -3.324096 -0.000051 0.000012 -0.000048
N 3.158244 -3.712172 1.786866 -0.000036 0.000045 -0.000131
N 3.159603 -3.707614 6.979907 -0.000057 0.000030 -0.000109
N 3.158990 -3.756301 -3.304571 0.000020 -0.000111 0.000117
N 1.605212 -0.927758 1.765269 -0.000170 0.000234 -0.000235
N 1.617533 -0.927321 6.892708 -0.000100 0.000005 -0.000254
N 1.527505 -0.931152 -3.346066 -0.000160 -0.000396 0.000153
N 3.108165 1.760699 1.749767 -0.000027 -0.000069 0.000026
N 3.108647 1.767141 6.958053 -0.000102 -0.000074 -0.000125
N 3.151057 1.740908 -3.281388 0.000185 -0.000104 0.000067
N 6.282700 -3.731658 1.750465 -0.000098 -0.000062 0.000092
N 6.289657 -3.736863 6.943470 -0.000033 -0.000009 -0.000136
N 6.285281 -3.683305 -3.266885 -0.000029 0.000138 0.000036
N 4.702429 -0.977804 1.750697 0.000004 0.000005 -0.000098
N 4.697248 -0.982087 6.945950 -0.000116 -0.000013 -0.000109
N 4.783660 -0.937424 -3.267765 -0.000132 0.000035 -0.000054
N -3.152782 1.817148 1.821013 -0.000118 0.000097 -0.000075
N -3.193711 1.845125 6.873925 -0.000013 0.000040 -0.000153
N -3.203788 1.799001 -3.314313 0.000017 0.000020 -0.000055
N 0.027783 -3.726381 1.815740 -0.000050 0.000038 -0.000118
N 0.025382 -3.734884 6.949115 0.000003 0.000010 -0.000122
N 0.024545 -3.683124 -3.264894 -0.000056 0.000032 0.000025
N -1.607638 -0.899558 1.745079 0.000109 0.000080 -0.000117
N -1.608704 -0.945178 6.880493 -0.000100 0.000032 -0.000148
N -1.613378 -0.959818 -3.255420 -0.000099 -0.000108 0.000089
