108
Energy=-848643.099617 Lattice="9.462533 0.000000 0.000000 -4.742454 8.187616 0.000000 0.002221 0.011866 15.236858" Stress="0.000021 0.000002 0.000003 0.000002 0.000024 0.000006 0.000003 0.000006 0.000067" Properties=species:S:1:pos:R:3:forces:R:3
Al 1.564281 0.866179 2.401471 0.000712 0.002747 -0.000122
Al 1.560245 0.871070 7.470173 0.004670 -0.001516 0.002252
Al 1.561548 0.863190 -2.714472 0.002987 -0.001496 0.002828
Al -0.015415 3.601811 2.403084 -0.036864 -0.019893 0.015613
Al -0.023251 3.615455 7.467320 0.001849 0.003101 0.002982
Al -0.030056 3.596609 -2.717159 0.001776 0.002186 0.003709
Al 3.139574 -1.852134 2.409672 0.003670 -0.003121 -0.000228
Al 3.148534 -1.855591 7.468812 0.000643 -0.000284 0.001467
Al 3.140914 -1.865192 -2.729111 0.000944 -0.001398 0.003304
Al -4.770496 0.864986 2.417713 -0.000072 -0.002367 0.001548
Al -4.763182 0.884009 7.470740 0.000836 -0.002230 -0.000083
Al -4.781526 0.876664 -2.724186 0.003156 -0.002230 0.001847
Al -6.365565 3.594482 2.428895 -0.001014 -0.003984 0.002798
Al -6.336985 3.607815 7.472496 -0.000653 -0.000636 -0.000147
Al -6.339023 3.586232 -2.723119 -0.000465 0.000570 -0.002844
Al -3.201255 -1.886177 2.421668 0.001005 0.008189 0.001890
Al -3.167876 -1.852131 7.470432 -0.000330 -0.000802 0.000678
Ga -3.165960 -1.867379 -2.721517 -0.000405 -0.000956 0.002179
Al -1.598272 0.885842 2.405707 0.000971 -0.006964 0.005598
Al -1.616895 0.881103 7.469646 0.004213 0.000299 0.001465
Ga -1.609929 0.880187 -2.705931 0.001577 -0.001322 -0.000488
Ga -3.183411 3.600706 2.426138 0.004800 0.001714 0.000451
Al -3.188250 3.615357 7.473530 0.002855 0.000037 -0.000533
Al -3.200019 3.609519 -2.725239 0.004883 0.000054 -0.003256
Ga -0.029915 -1.840265 2.410986 0.003788 0.002162 0.000436
Al -0.020046 -1.845898 7.469480 0.002798 -0.000209 0.000179
Al -0.013988 -1.855551 -2.722151 0.004107 -0.002335 0.001001
Ga -0.012562 1.787815 4.963124 -0.004199 -0.000267 -0.000168
Ga -0.016534 1.774114 -5.248433 -0.003910 -0.001211 -0.000639
Al -0.016896 1.768662 -0.165420 -0.000134 0.000988 0.005984
Al 3.150198 -3.666421 4.956490 -0.001244 -0.001044 0.000187
Al 3.145091 -3.679996 -5.249508 -0.002574 -0.000584 0.001033
Al 3.150479 -3.681401 -0.184569 -0.000736 0.002982 0.006997
Al 1.582733 -0.954383 4.956806 -0.003820 0.002082 -0.000043
Al 1.579216 -0.968159 -5.248942 -0.004735 0.002096 0.000513
Al 1.583613 -0.952017 -0.187025 -0.002606 0.002136 0.005194
Al 3.135245 1.785816 4.949223 0.000003 0.001172 0.001315
Al 3.131705 1.774772 -5.252169 -0.000895 0.001250 0.001732
Al 3.121335 1.781899 -0.168290 -0.000924 -0.007593 0.006076
Al 6.297729 -3.664277 4.953455 -0.000231 -0.001231 -0.000268
Al 6.294170 -3.681513 -5.252936 0.000250 0.000103 0.001192
Ga 6.288574 -3.697983 -0.114996 -0.004044 0.001241 -0.000472
Al 4.720986 -0.947137 4.950639 -0.001333 0.002560 -0.000396
Al 4.717225 -0.954118 -5.254589 -0.000500 0.001750 -0.000293
Al 4.710548 -0.951139 -0.165519 -0.002623 0.001419 0.007797
Al -3.192246 1.792440 4.963444 -0.001982 -0.000644 -0.001045
Al -3.201656 1.787354 -5.250640 0.000661 -0.001373 0.000375
Ga -3.191990 1.784252 -0.138750 -0.001391 -0.001303 -0.000611
Al -0.020832 -3.664979 4.968612 -0.001468 -0.000653 -0.000952
Al -0.023084 -3.674326 -5.250619 -0.000860 0.000241 0.000943
Ga -0.016695 -3.678633 -0.166372 -0.001027 0.001614 -0.000311
Al -1.602368 -0.935985 4.955911 -0.001612 -0.004068 0.001214
Al -1.598366 -0.952256 -5.263964 0.000032 -0.003635 0.000651
Al -1.591104 -0.943821 -0.160051 -0.001412 -0.000466 0.006802
N 1.583992 0.862684 4.339168 0.005677 -0.006842 -0.005998
N 1.582646 0.847886 -5.854616 0.006515 -0.006253 -0.001089
N 1.554464 0.872390 -0.779426 0.000221 -0.002334 0.001069
N -0.018474 3.638030 4.341038 -0.003978 0.003978 -0.002733
N -0.024635 3.627596 -5.857675 -0.001050 0.006285 -0.001295
N -0.049364 3.578269 -0.782947 -0.004283 -0.004071 -0.002016
N 3.144226 -1.856792 4.351490 -0.000111 0.000115 -0.004178
N 3.144922 -1.867974 -5.844824 0.000300 0.000009 -0.000781
N 3.148651 -1.865938 -0.789091 0.000171 0.000123 -0.000871
N -4.763111 0.881578 4.353682 0.001133 -0.002342 -0.002239
N -4.767448 0.873079 -5.846999 0.001798 -0.002428 -0.000587
N -4.796205 0.859557 -0.790373 -0.002123 -0.004680 -0.000590
N -6.336118 3.606193 4.357456 0.001388 0.000614 -0.001799
N -6.338591 3.595825 -5.844725 0.000782 -0.000211 0.000400
N -6.344120 3.551524 -0.807157 0.000374 0.001823 0.000685
N -3.172166 -1.854522 4.355738 0.001392 0.000564 -0.002994
N -3.171641 -1.866204 -5.844141 -0.000534 0.000276 -0.000596
N -3.168638 -1.837148 -0.743166 0.000667 0.004057 0.006026
N -1.650769 0.857033 4.370345 0.003177 0.002585 -0.012471
N -1.653883 0.840888 -5.847122 -0.000582 0.004820 -0.003503
N -1.591743 0.860171 -0.739603 0.008457 -0.003379 0.003664
N -3.185811 3.617208 4.396428 0.002051 -0.000248 0.004716
N -3.191704 3.606484 -5.842010 0.003045 -0.000310 0.000075
N -3.154455 3.621304 -0.817800 0.004665 0.000860 0.002522
N -0.021882 -1.842861 4.389294 0.002734 -0.000030 0.003817
N -0.021190 -1.856929 -5.847221 0.003338 -0.000111 -0.000531
N -0.021880 -1.823497 -0.787245 0.002222 0.006040 -0.002148
N -0.008481 1.782277 1.808213 -0.004931 -0.003828 -0.005949
N 0.007200 1.804624 6.939902 -0.011691 -0.007973 -0.000678
N 0.021053 1.796926 -3.286135 -0.001146 -0.000277 0.002552
N 3.177674 -3.657235 1.775205 -0.003344 -0.000366 -0.005366
N 3.149740 -3.672461 6.877244 -0.003742 -0.000281 -0.000628
N 3.144406 -3.686102 -3.322637 -0.002491 -0.000067 -0.000007
N 1.613644 -0.929945 1.771821 -0.004826 0.000035 -0.005318
N 1.579533 -0.951817 6.877477 -0.004648 0.001831 -0.001166
N 1.575173 -0.961967 -3.319370 -0.003667 0.002599 0.000753
N 3.129964 1.786095 1.790940 0.000119 0.001498 -0.003146
N 3.127748 1.789101 6.873520 0.000855 0.000244 -0.001674
N 3.123814 1.775265 -3.326826 -0.000626 0.000369 -0.000435
N 6.183713 -3.733491 1.907970 0.056337 0.027156 -0.022125
N 6.294996 -3.671018 6.875451 0.001015 0.001366 -0.001401
N 6.290518 -3.718727 -3.331317 0.000054 -0.004877 -0.001990
N 4.708538 -0.955394 1.814156 0.000458 0.002387 -0.008301
N 4.723106 -0.944772 6.876864 -0.001425 0.002084 -0.000914
N 4.694201 -0.938868 -3.335472 -0.005984 0.004753 -0.001408
N -3.185048 1.738726 1.839730 -0.001430 0.000020 -0.001412
N -3.187914 1.792979 6.880684 0.000998 0.000873 -0.000177
N -3.219472 1.798944 -3.328105 -0.004469 0.002162 -0.001743
N -0.060334 -3.697024 1.806342 -0.007893 -0.001246 0.000041
N -0.020883 -3.667817 6.884079 -0.000061 0.000343 -0.000179
N -0.024980 -3.675840 -3.320781 -0.001176 0.000427 0.000836
N -1.642818 -0.937916 1.785892 -0.004267 0.000692 -0.003608
N -1.595782 -0.943773 6.877323 0.000564 0.002831 -0.000260
N -1.554365 -0.970363 -3.357159 0.000846 0.001460 -0.000185
