108
Energy=-1.489500e+06 Lattice="9.524641e+00 0.000000e+00 0.000000e+00 -4.766918e+00 8.248937e+00 0.000000e+00 -2.237988e-04 8.488224e-03 1.537497e+01" Stress="5.260641e-04 -2.163334e-04 1.441941e-04 -2.054002e-04 8.027246e-04 4.018337e-04 1.359488e-04 3.849514e-04 1.081192e-03" Properties=species:S:1:pos:R:3:forces:R:3 Config_type=AlGaN_super3_23_2_12.xyz
Al 1.567125e+00 8.813184e-01 2.400558e+00 3.568227e-04 -1.518292e-03 -1.742187e-03
Al 1.575866e+00 8.610916e-01 7.521694e+00 -6.234311e-03 2.251778e-04 1.865545e-03
Al 1.552523e+00 8.600361e-01 -2.692425e+00 1.903964e-04 -4.412036e-04 5.984948e-04
Al -3.257095e-02 3.609251e+00 2.398731e+00 7.733700e-04 1.083949e-03 -1.395189e-03
Al -2.336784e-02 3.628938e+00 7.547751e+00 1.806666e-04 -8.226172e-04 6.782853e-04
Al -3.743480e-02 3.622352e+00 -2.704512e+00 -8.820046e-04 2.634915e-04 -4.471624e-04
Al 3.155534e+00 -1.867530e+00 2.417904e+00 -3.524647e-03 -1.469782e-04 -1.358215e-03
Al 3.142044e+00 -1.858741e+00 7.531621e+00 2.983255e-04 6.114415e-04 4.942352e-04
Al 3.132420e+00 -1.886250e+00 -2.712739e+00 4.966477e-04 1.073886e-04 2.117811e-04
Al -4.803579e+00 8.835518e-01 2.420544e+00 4.051653e-04 1.000291e-04 2.926550e-05
Al -4.787707e+00 8.770802e-01 7.527177e+00 6.787236e-04 -6.335666e-04 4.691358e-04
Ga -4.795033e+00 8.738874e-01 -2.698287e+00 3.475788e-04 1.383216e-04 3.727464e-04
Al -6.366157e+00 3.608171e+00 2.396904e+00 1.204728e-04 6.494421e-04 -7.392780e-04
Ga -6.383585e+00 3.624845e+00 7.552729e+00 1.303111e-04 4.421922e-04 3.664973e-04
Ga -6.389192e+00 3.618582e+00 -2.694260e+00 3.804647e-04 -6.640253e-06 2.015322e-04
Ga -3.208606e+00 -1.868964e+00 2.420111e+00 9.608556e-04 -3.876008e-04 -2.735866e-05
Ga -3.206200e+00 -1.867882e+00 7.553776e+00 3.500198e-04 2.325381e-04 7.760782e-05
Ga -3.188343e+00 -1.877230e+00 -2.718254e+00 1.074790e-04 1.425913e-04 -4.055935e-04
Ga -1.599798e+00 8.997179e-01 2.414965e+00 7.064853e-04 -6.087961e-04 1.402354e-03
Ga -1.608560e+00 8.956615e-01 7.540224e+00 1.298433e-03 -3.733391e-04 3.288412e-04
Al -1.598287e+00 8.719354e-01 -2.712984e+00 4.299361e-04 -4.695646e-04 6.527364e-04
Al -3.198944e+00 3.634195e+00 2.398728e+00 4.682145e-04 4.033712e-04 -2.228464e-04
Ga -3.189461e+00 3.630770e+00 7.554026e+00 4.138205e-04 -7.771445e-04 5.691470e-04
Ga -3.178253e+00 3.636813e+00 -2.707254e+00 1.921195e-04 -1.994234e-04 7.992584e-04
Ga -5.322029e-04 -1.873178e+00 2.384828e+00 8.361018e-04 1.377903e-04 8.347207e-04
Al 4.609832e-03 -1.848296e+00 7.551202e+00 2.081184e-04 2.590932e-04 7.130975e-04
Al -1.113566e-02 -1.849558e+00 -2.696209e+00 8.211268e-05 -4.140606e-04 4.840687e-04
Al -1.518222e-02 1.796376e+00 4.976697e+00 -1.276124e-03 -4.970078e-04 9.803907e-04
Ga -2.295282e-02 1.794437e+00 -5.257224e+00 -3.239181e-04 -3.065699e-04 1.899875e-04
Al -1.883417e-02 1.784541e+00 -1.772636e-01 -1.032383e-04 -4.958314e-05 6.638505e-04
Ga 3.162454e+00 -3.703141e+00 4.962855e+00 -3.691419e-04 -6.881937e-05 5.905768e-04
Al 3.167283e+00 -3.702028e+00 -5.280280e+00 -3.236054e-04 1.091646e-04 7.927017e-04
Al 3.150290e+00 -3.701733e+00 -1.392954e-01 -4.351581e-04 1.727445e-04 1.428829e-03
Al 1.578052e+00 -9.427543e-01 4.972260e+00 -1.037132e-03 -4.358984e-04 4.750261e-04
Al 1.562912e+00 -9.666799e-01 -5.267730e+00 -2.819493e-04 1.304089e-03 5.179395e-04
Al 1.565366e+00 -9.583971e-01 -1.699713e-01 -3.860581e-04 9.201816e-04 2.552787e-03
Ga 3.147022e+00 1.775868e+00 4.964958e+00 2.007480e-04 4.294706e-05 1.675261e-04
Ga 3.144579e+00 1.779001e+00 -5.284364e+00 -1.960361e-04 -5.078111e-04 9.191810e-04
Al 3.131666e+00 1.786516e+00 -1.231535e-01 -7.823853e-04 -1.647469e-04 1.470891e-03
Ga 6.316251e+00 -3.713192e+00 4.960662e+00 2.290144e-04 -1.982084e-04 4.296948e-04
Al 6.312100e+00 -3.707675e+00 -5.259470e+00 -1.544437e-04 -4.677200e-04 1.415846e-04
Ga 6.320704e+00 -3.721733e+00 -1.378013e-01 1.247237e-04 -6.370062e-05 2.097110e-03
Al 4.726004e+00 -9.399283e-01 4.978833e+00 -4.834853e-05 3.942700e-04 5.381925e-04
Ga 4.733495e+00 -9.650476e-01 -5.277297e+00 -6.219428e-04 1.418435e-04 1.211375e-04
Ga 4.716956e+00 -9.621801e-01 -1.437312e-01 -1.591945e-04 -3.751748e-04 9.102799e-04
Al -3.213440e+00 1.800729e+00 4.955377e+00 3.686703e-03 -2.874267e-03 -4.425652e-04
Al -3.192889e+00 1.784838e+00 -5.261300e+00 -2.189557e-04 2.863186e-05 6.291367e-04
Ga -3.195170e+00 1.797784e+00 -1.338702e-01 2.155350e-04 1.634061e-05 -5.369088e-04
Ga -7.586004e-03 -3.700328e+00 4.971825e+00 -2.429905e-04 7.136815e-05 7.154915e-04
Ga -1.484014e-02 -3.685908e+00 -5.262468e+00 -1.121958e-04 1.182660e-05 1.207602e-04
Al -1.842977e-02 -3.697395e+00 -1.496207e-01 -1.618797e-04 3.752776e-04 1.381819e-03
Ga -1.597934e+00 -9.391494e-01 4.989329e+00 -4.199610e-04 4.366748e-04 8.463726e-05
Al -1.593204e+00 -9.562986e-01 -5.264514e+00 -4.418917e-04 1.359418e-04 1.579384e-04
Al -1.588057e+00 -9.515587e-01 -1.678926e-01 -3.669458e-04 5.366466e-04 1.300651e-03
N 1.518611e+00 8.544926e-01 4.331955e+00 -2.362352e-04 -3.295808e-04 -8.453247e-04
N 1.553985e+00 8.232914e-01 -5.931286e+00 6.059925e-04 -1.837387e-03 -4.984646e-04
N 1.564989e+00 8.721268e-01 -7.646204e-01 5.774403e-04 -2.445322e-04 -8.551674e-04
N -2.960106e-02 3.573568e+00 4.307883e+00 -5.715090e-05 -2.867715e-04 -4.289097e-04
N -2.444584e-02 3.663870e+00 -5.904192e+00 -3.918612e-05 6.019083e-04 -7.941419e-04
N -7.525022e-02 3.606929e+00 -7.829837e-01 -3.641294e-04 -2.852977e-04 4.238077e-05
N 3.151915e+00 -1.822893e+00 4.342712e+00 2.791372e-05 2.541604e-04 -5.951855e-04
N 3.104996e+00 -1.896164e+00 -5.914746e+00 -9.652016e-05 -9.777459e-05 -7.083914e-04
N 3.107298e+00 -1.906380e+00 -7.905554e-01 -2.408026e-04 -2.274964e-04 -7.926199e-04
N -4.751936e+00 8.560211e-01 4.339481e+00 2.247933e-04 -3.276317e-04 -3.497431e-04
N -4.741822e+00 8.976819e-01 -5.927423e+00 7.474835e-04 5.321629e-05 -1.072826e-03
N -4.833299e+00 9.029185e-01 -7.348765e-01 4.286950e-04 2.530346e-04 1.199226e-05
N -6.367850e+00 3.624883e+00 4.308905e+00 1.063798e-04 -1.345872e-04 -3.940766e-04
N -6.415878e+00 3.649041e+00 -5.854146e+00 -7.205684e-05 5.481434e-04 -4.319333e-04
N -6.340163e+00 3.596939e+00 -7.169435e-01 6.516417e-04 -8.425707e-05 2.653503e-05
N -3.235500e+00 -1.840592e+00 4.392184e+00 -1.831160e-04 3.063111e-04 -2.110545e-04
N -3.153846e+00 -1.897887e+00 -5.837997e+00 4.680573e-04 1.397711e-04 1.733109e-04
N -3.159023e+00 -1.854185e+00 -7.466245e-01 2.054160e-04 3.285979e-04 4.806866e-04
N -1.604084e+00 9.306003e-01 4.396101e+00 -1.216604e-03 1.300139e-03 5.087893e-04
N -1.651024e+00 8.567140e-01 -5.851744e+00 5.472661e-04 -3.479933e-04 -4.541731e-04
N -1.580073e+00 8.554152e-01 -7.881499e-01 9.703893e-04 -3.577859e-04 -6.911326e-04
N -3.196556e+00 3.588025e+00 4.317069e+00 -1.785845e-04 1.139491e-03 -4.513190e-04
N -3.158183e+00 3.597603e+00 -5.838291e+00 6.312151e-04 -5.538115e-05 -3.096209e-04
N -3.198278e+00 3.673412e+00 -7.266666e-01 8.123237e-04 1.920572e-04 -4.549222e-04
N 2.387048e-02 -1.843249e+00 4.359302e+00 1.050935e-03 2.411673e-04 -3.418877e-04
N -1.480778e-02 -1.821070e+00 -5.902723e+00 5.084265e-04 2.022794e-04 -7.132195e-04
N -2.025334e-02 -1.870500e+00 -7.642769e-01 5.576244e-04 -3.260234e-04 -7.795319e-04
N 2.238167e-02 1.810686e+00 1.747863e+00 -5.556352e-04 1.317749e-03 6.725351e-04
N 2.157189e-02 1.826864e+00 6.907625e+00 1.812597e-03 -7.401700e-04 -2.443552e-04
N -1.740791e-02 1.791736e+00 -3.265709e+00 -3.947912e-04 3.122042e-04 -1.559379e-04
N 3.160616e+00 -3.697374e+00 1.801279e+00 -3.218761e-04 -6.126178e-04 -5.922340e-04
N 3.199467e+00 -3.676430e+00 6.949203e+00 2.307092e-05 -3.054279e-04 -4.668294e-04
N 3.199146e+00 -3.681096e+00 -3.357235e+00 9.360866e-04 -3.707695e-04 -1.774949e-04
N 1.614703e+00 -9.302890e-01 1.755652e+00 1.386033e-03 3.406219e-04 5.366056e-04
N 1.572601e+00 -9.544705e-01 6.903489e+00 -3.392080e-04 4.569997e-04 -5.926910e-04
N 1.566479e+00 -9.585827e-01 -3.323953e+00 -4.957240e-04 6.083593e-04 -1.090515e-03
N 3.146104e+00 1.788543e+00 1.809672e+00 9.770502e-05 -5.269718e-04 -1.015802e-03
N 3.147672e+00 1.748635e+00 6.952907e+00 2.292842e-03 8.003053e-04 -1.541316e-03
N 3.102537e+00 1.761737e+00 -3.313406e+00 -5.413335e-04 -3.011545e-04 -7.155780e-04
N 6.329238e+00 -3.751749e+00 1.844642e+00 -1.269381e-03 -6.949313e-04 -1.447292e-03
N 6.288264e+00 -3.725284e+00 6.931529e+00 -3.395281e-04 -2.149942e-04 -5.559611e-04
N 6.281705e+00 -3.738645e+00 -3.346401e+00 -2.796871e-04 1.312693e-04 -1.151478e-04
N 4.695254e+00 -9.327685e-01 1.834364e+00 3.043712e-04 1.120382e-03 -8.450658e-04
N 4.696813e+00 -9.294138e-01 6.910791e+00 -4.294450e-04 4.546338e-04 -1.950493e-04
N 4.693759e+00 -9.831516e-01 -3.305745e+00 -8.162969e-04 -2.627503e-04 -8.344034e-05
N -3.237822e+00 1.814834e+00 1.837270e+00 -9.227625e-04 2.143412e-04 8.443935e-04
N -3.240166e+00 1.780582e+00 6.873770e+00 -1.307976e-03 3.814140e-04 -3.646057e-04
N -3.161691e+00 1.767902e+00 -3.343344e+00 4.002056e-05 -2.823646e-04 -5.425543e-04
N -1.928171e-02 -3.748366e+00 1.775598e+00 9.771740e-05 -5.310972e-04 -1.282871e-03
N -1.708034e-02 -3.653427e+00 6.953238e+00 -1.990920e-04 3.202492e-04 -5.783238e-04
N -2.340321e-02 -3.654190e+00 -3.290692e+00 -2.576457e-05 5.370006e-04 6.699099e-05
N -1.607004e+00 -9.481741e-01 1.746854e+00 -6.086450e-04 7.185521e-05 -1.551212e-03
N -1.563920e+00 -9.739189e-01 6.954881e+00 -3.937218e-04 -1.298143e-04 1.564814e-04
N -1.559592e+00 -9.358119e-01 -3.339785e+00 4.791011e-05 6.018702e-04 -4.029448e-04
