108
Energy=-2.725432e+06 Lattice="9.482893e+00 0.000000e+00 0.000000e+00 -4.742258e+00 8.210762e+00 0.000000e+00 -9.963754e-04 -3.473186e-04 1.527645e+01" Stress="-9.814422e-02 7.064272e-03 -1.670480e-04 7.060889e-03 -9.028165e-02 -2.082238e-04 -1.665038e-04 -2.111858e-04 -9.705162e-02" Properties=species:S:1:pos:R:3:forces:R:3 Config_type=AlGaN_super3_50_0_1.xyz
Al 1.564765e+00 9.022467e-01 2.479107e+00 -1.977404e-03 -1.388046e-02 -1.041854e-02
Ga 1.564436e+00 9.023979e-01 7.499527e+00 -1.964320e-03 -1.820489e-02 -5.122217e-03
Ga 1.566238e+00 9.022292e-01 -2.753727e+00 -2.198294e-03 -1.819282e-02 -5.323080e-03
Al -1.180298e-03 3.614433e+00 2.478895e+00 -3.097960e-03 -2.214884e-03 -8.766060e-03
Ga -1.593180e-03 3.614210e+00 7.499294e+00 -2.651208e-03 -1.356895e-03 -1.733395e-03
Ga -5.740811e-04 3.615348e+00 -2.753944e+00 -3.271859e-03 -1.323522e-03 -2.508622e-03
Ga 3.174811e+00 -1.885351e+00 2.471503e+00 -3.525893e-03 1.251990e-03 -1.004138e-02
Ga 3.174948e+00 -1.885449e+00 7.499500e+00 -3.216289e-03 2.231372e-03 -2.245228e-03
Ga 3.176001e+00 -1.884980e+00 -2.750669e+00 -3.274873e-03 1.632828e-03 -2.719078e-03
Ga -4.787369e+00 9.027178e-01 2.472102e+00 4.308872e-04 -1.652236e-02 -1.049257e-02
Ga -4.787079e+00 9.026913e-01 7.499562e+00 7.260620e-04 -1.685436e-02 -3.740196e-03
Ga -4.786063e+00 9.029520e-01 -2.750385e+00 8.036536e-04 -1.678665e-02 -3.472830e-03
Ga -6.353548e+00 3.613906e+00 2.472408e+00 -6.081734e-04 -2.990340e-04 -7.170656e-03
Ga -6.352786e+00 3.614288e+00 7.499168e+00 -3.259759e-04 1.640669e-04 -8.209207e-04
Ga -6.351836e+00 3.614485e+00 -2.750500e+00 -2.606712e-04 1.459120e-04 -3.328236e-04
Ga -3.176605e+00 -1.885564e+00 2.471830e+00 -3.957206e-04 2.932370e-03 -8.341387e-03
Ga -3.176465e+00 -1.885096e+00 7.499199e+00 -4.285524e-04 3.194501e-03 -1.808482e-03
Ga -3.175483e+00 -1.884625e+00 -2.750287e+00 -3.386381e-04 3.321650e-03 -1.422497e-03
Ga -1.656270e+00 9.025297e-01 2.478328e+00 1.696362e-02 -8.446164e-03 -1.452566e-02
Ga -1.655830e+00 9.028524e-01 7.499627e+00 1.608337e-02 -9.225831e-03 -7.122236e-03
Ga -1.655584e+00 9.026828e-01 -2.753399e+00 1.621329e-02 -9.224461e-03 -7.488072e-03
Ga -3.221319e+00 3.614116e+00 2.472174e+00 1.533464e-02 7.909904e-03 -1.062197e-02
Ga -3.221460e+00 3.614546e+00 7.499611e+00 1.474447e-02 7.659572e-03 -3.303286e-03
Ga -3.220444e+00 3.614721e+00 -2.750723e+00 1.510353e-02 7.798664e-03 -3.813302e-03
Ga -4.511623e-02 -1.884661e+00 2.471932e+00 1.495331e-02 1.080367e-02 -1.159585e-02
Ga -4.503334e-02 -1.884989e+00 7.499489e+00 1.483901e-02 1.092415e-02 -4.632379e-03
Ga -4.404628e-02 -1.884500e+00 -2.750327e+00 1.473918e-02 1.095890e-02 -4.579200e-03
Ga -1.072103e-03 1.806288e+00 4.987870e+00 -1.449789e-02 -1.055242e-02 -6.856278e-03
Ga -4.433773e-04 1.806631e+00 -5.265017e+00 -1.473614e-02 -1.050046e-02 -5.102602e-03
Ga -3.827449e-04 1.806382e+00 -2.537278e-01 -1.479420e-02 -1.084043e-02 4.179525e-02
Ga 3.175142e+00 -3.692603e+00 4.986669e+00 -1.471070e-02 -7.860611e-03 -4.748470e-03
Al 3.175890e+00 -3.692510e+00 -5.264579e+00 -1.206191e-02 -5.370711e-03 -2.534624e-03
Ga 3.176656e+00 -3.693408e+00 -2.362805e-01 -1.490987e-02 -7.680766e-03 3.917204e-02
Ga 1.609546e+00 -9.820460e-01 4.986804e+00 -1.603925e-02 9.224054e-03 -7.743760e-03
Ga 1.610446e+00 -9.818218e-01 -5.264204e+00 -1.580642e-02 9.013967e-03 -7.192520e-03
Ga 1.610141e+00 -9.807625e-01 -2.358072e-01 -1.600882e-02 9.067065e-03 3.547067e-02
Ga 3.130342e+00 1.806375e+00 4.986794e+00 2.742657e-04 -2.952645e-03 -2.439974e-03
Ga 3.131322e+00 1.806752e+00 -5.264474e+00 3.261942e-04 -3.283092e-03 -1.689111e-03
Ga 3.130262e+00 1.806378e+00 -2.365238e-01 3.155159e-04 -3.462085e-03 4.181901e-02
Al 6.306608e+00 -3.692489e+00 4.986574e+00 1.321276e-04 -2.765358e-04 -1.586373e-03
Ga 6.307501e+00 -3.692279e+00 -5.264407e+00 -1.995071e-04 -3.920357e-04 -6.859979e-04
Ga 6.306927e+00 -3.693241e+00 -2.363629e-01 3.550473e-05 -1.811330e-04 4.262715e-02
Ga 4.740722e+00 -9.817403e-01 4.986136e+00 -4.906025e-04 1.661591e-02 -4.131762e-03
Ga 4.741675e+00 -9.814017e-01 -5.263845e+00 -1.116500e-03 1.655603e-02 -3.784756e-03
Ga 4.741676e+00 -9.812870e-01 -2.342294e-01 -8.883007e-04 1.663008e-02 3.879335e-02
Ga -3.221806e+00 1.806515e+00 4.986930e+00 3.107002e-03 -1.822575e-03 -3.033838e-03
Ga -3.220336e+00 1.807137e+00 -5.264415e+00 3.140898e-03 -1.654460e-03 -2.578152e-03
Ga -3.219461e+00 1.806761e+00 -2.366201e-01 3.283994e-03 -1.944843e-03 4.051527e-02
Ga -4.505441e-02 -3.692553e+00 4.985934e+00 2.692903e-03 1.104858e-03 -1.842996e-03
Ga -4.363567e-02 -3.692184e+00 -5.263923e+00 3.164272e-03 1.074483e-03 -1.485014e-03
Ga -4.376136e-02 -3.692373e+00 -2.346190e-01 3.146488e-03 1.389778e-03 4.094262e-02
Ga -1.610967e+00 -9.818805e-01 4.986876e+00 1.695413e-03 1.791924e-02 -5.353248e-03
Ga -1.609671e+00 -9.811391e-01 -5.264258e+00 2.024696e-03 1.813818e-02 -4.803748e-03
Ga -1.609334e+00 -9.802735e-01 -2.359203e-01 1.990782e-03 1.799574e-02 3.796531e-02
N 1.565176e+00 9.019187e-01 4.392143e+00 -1.198595e-03 -1.755559e-02 -1.719350e-02
N 1.565448e+00 9.027451e-01 -5.860575e+00 -1.381924e-03 -1.753092e-02 4.763929e-03
N 1.566190e+00 9.022230e-01 -8.389033e-01 -1.016978e-03 -1.722871e-02 8.338329e-03
N -6.580040e-04 3.615413e+00 4.392261e+00 1.612237e-02 1.093848e-02 -1.354351e-02
N -1.202283e-03 3.614968e+00 -5.860441e+00 -2.030655e-02 1.070738e-02 8.145219e-03
N -5.654970e-04 3.615331e+00 -8.388804e-01 -2.167684e-03 2.593808e-04 4.648314e-03
N 3.175010e+00 -1.885201e+00 4.389425e+00 -3.086913e-03 1.849763e-03 4.310697e-04
N 3.175956e+00 -1.885837e+00 -5.860178e+00 -2.559909e-03 -1.930464e-02 7.888569e-03
N 3.175814e+00 -1.885171e+00 -8.324316e-01 -2.724454e-03 1.664292e-03 3.211456e-03
N -4.787118e+00 9.025072e-01 4.389728e+00 3.905453e-04 -1.734166e-02 5.175502e-03
N -4.786054e+00 9.030078e-01 -5.860450e+00 6.513059e-04 -1.738774e-02 4.950209e-03
N -4.786076e+00 9.031346e-01 -8.325377e-01 3.953756e-04 -1.699252e-02 7.450724e-03
N -6.353653e+00 3.614581e+00 4.390060e+00 -1.875232e-02 1.116871e-02 9.063071e-03
N -6.351745e+00 3.614666e+00 -5.860559e+00 -5.947034e-04 6.160085e-04 1.099066e-03
N -6.351923e+00 3.614397e+00 -8.326918e-01 -6.321103e-04 3.513206e-04 4.220531e-03
N -3.176625e+00 -1.885927e+00 4.389835e+00 -1.128163e-03 -1.905741e-02 8.420426e-03
N -3.175466e+00 -1.884759e+00 -5.860531e+00 -1.041548e-03 2.220623e-03 4.771088e-04
N -3.175325e+00 -1.884863e+00 -8.322309e-01 -1.198168e-03 1.886259e-03 3.597167e-03
N -1.656659e+00 9.022853e-01 4.392866e+00 1.634029e-02 -9.539383e-03 9.786573e-03
N -1.654816e+00 9.031851e-01 -5.860526e+00 1.615698e-02 -9.560771e-03 8.633130e-03
N -1.655460e+00 9.027294e-01 -8.385377e-01 1.615187e-02 -9.178124e-03 1.228065e-02
N -3.221552e+00 3.614315e+00 4.389659e+00 1.511836e-02 8.502801e-03 5.282530e-03
N -3.219795e+00 3.615307e+00 -5.860150e+00 3.024112e-02 1.657957e-02 1.068543e-02
N -3.220322e+00 3.614689e+00 -8.329639e-01 1.503183e-02 8.201520e-03 7.401047e-03
N -4.512450e-02 -1.884879e+00 4.389560e+00 1.465827e-02 9.932577e-03 4.601005e-03
N -4.402982e-02 -1.884668e+00 -5.860377e+00 1.428919e-02 9.955555e-03 4.436839e-03
N -4.402143e-02 -1.884529e+00 -8.325684e-01 1.436364e-02 9.699072e-03 7.127016e-03
N -3.309168e-04 1.806578e+00 1.895300e+00 3.684616e-03 7.474588e-04 -2.318246e-02
N -1.265410e-03 1.806187e+00 6.903871e+00 -1.461011e-02 -9.883701e-03 4.775198e-03
N -2.658941e-04 1.806472e+00 -3.349143e+00 -1.435535e-02 -9.998048e-03 5.026153e-03
N 3.176580e+00 -3.694538e+00 1.876963e+00 3.345379e-03 -1.858953e-02 -2.602002e-02
N 3.174962e+00 -3.692923e+00 6.903155e+00 -1.534745e-02 -8.425336e-03 5.267309e-03
N 3.175885e+00 -3.692302e+00 -3.348910e+00 -1.511581e-02 -8.217840e-03 -1.774341e-02
N 1.608866e+00 -9.797224e-01 1.876502e+00 -1.629977e-02 2.677866e-02 -2.366698e-02
N 1.609394e+00 -9.819310e-01 6.903352e+00 -1.623610e-02 9.284149e-03 8.690108e-03
N 1.610569e+00 -9.817529e-01 -3.347807e+00 -1.637477e-02 9.314896e-03 8.790856e-03
N 3.128105e+00 1.805601e+00 1.877404e+00 -1.686678e-02 -1.279000e-02 -3.071529e-02
N 3.130284e+00 1.806386e+00 6.903348e+00 1.176792e-03 -2.094589e-03 9.589993e-04
N 3.131610e+00 1.806674e+00 -3.347880e+00 1.238783e-03 -1.824005e-03 7.598722e-04
N 6.304911e+00 -3.694301e+00 1.876875e+00 -1.801429e-02 -1.052322e-02 -2.996023e-02
N 6.306598e+00 -3.692712e+00 6.902396e+00 4.987257e-04 -4.405384e-04 -2.156563e-02
N 6.307776e+00 -3.692076e+00 -3.347839e+00 9.493092e-04 -3.929491e-04 1.205264e-03
N 4.740664e+00 -9.815629e-01 1.874286e+00 -2.451450e-04 1.745406e-02 -3.333683e-02
N 4.740690e+00 -9.815305e-01 6.903045e+00 -5.450355e-04 1.723562e-02 5.098207e-03
N 4.741756e+00 -9.811475e-01 -3.346875e+00 -3.753193e-04 1.729210e-02 4.945816e-03
N -3.220546e+00 1.806293e+00 1.876329e+00 2.720543e-03 -2.258878e-03 -3.861813e-02
N -3.221510e+00 1.806678e+00 6.903513e+00 2.931397e-03 -1.538046e-03 6.151523e-04
N -3.220738e+00 1.806872e+00 -3.347837e+00 2.701042e-03 -1.580544e-03 4.014166e-04
N -4.502825e-02 -3.692821e+00 1.874384e+00 2.187606e-03 -2.987386e-05 -3.731124e-02
N -4.481556e-02 -3.692611e+00 6.902978e+00 2.535127e-03 -7.250361e-05 8.728309e-04
N -4.386098e-02 -3.692285e+00 -3.346851e+00 2.194616e-03 -3.291621e-05 7.382928e-04
N -1.610524e+00 -9.806505e-01 1.876031e+00 7.733688e-04 1.758126e-02 -3.397011e-02
N -1.610686e+00 -9.815132e-01 6.903340e+00 1.429049e-03 1.754567e-02 4.714513e-03
N -1.609865e+00 -9.812817e-01 -3.347660e+00 1.429346e-03 1.725102e-02 4.506878e-03
