108
Energy=-1626826.683957 Lattice="9.546888 0.000000 0.000000 -4.784751 8.263484 0.000000 -0.066164 0.007040 15.401143" Stress="0.000008 -0.000005 -0.000015 -0.000005 0.000005 0.000002 -0.000015 0.000002 -0.000007" Properties=species:S:1:pos:R:3:forces:R:3
Al 1.559319 0.868832 2.432599 0.000178 0.000516 0.000557
Al 1.527183 0.887684 7.543000 0.000434 -0.001103 -0.001003
Al 1.588939 0.867096 -2.722036 -0.000042 -0.000247 0.000064
Al -0.029773 3.649094 2.425329 0.000030 0.000103 0.000080
Al -0.041371 3.633833 7.507946 -0.000135 0.000199 -0.000099
Ga -0.003646 3.628067 -2.682155 -0.000238 0.000247 0.000203
Al 3.160915 -1.863634 2.404872 -0.000250 0.000116 0.000205
Ga 3.129602 -1.868287 7.543286 -0.000308 0.000234 -0.000065
Ga 3.186569 -1.854371 -2.698164 -0.000284 0.000097 0.000421
Al -4.814857 0.862023 2.395131 0.000060 -0.000166 -0.000006
Ga -4.847616 0.875232 7.575253 0.000168 -0.000142 0.000520
Al -4.784873 0.861140 -2.713908 0.000059 -0.000101 0.000212
Ga -6.429948 3.636520 2.435668 -0.000069 -0.000137 0.000359
Al -6.441598 3.644322 7.532171 0.000367 0.000272 -0.000497
Ga -6.392968 3.617007 -2.709382 -0.000003 0.000065 0.000490
Al -3.229407 -1.878257 2.396363 -0.000490 -0.000225 0.000152
Al -3.233873 -1.890022 7.546055 0.000009 0.000092 0.000055
Al -3.194938 -1.861329 -2.690055 0.000069 0.000189 0.000264
Ga -1.627924 0.876513 2.409590 -0.000092 0.000006 0.000166
Ga -1.626569 0.878394 7.537672 0.000140 -0.000213 0.000209
Al -1.607640 0.867508 -2.684794 -0.000021 -0.000347 -0.000200
Ga -3.208381 3.634988 2.424813 -0.000053 -0.000155 0.000234
Ga -3.244507 3.651585 7.526198 0.000030 0.000027 -0.000080
Ga -3.187617 3.617164 -2.681022 0.000093 -0.000040 0.000299
Ga -0.022758 -1.855823 2.421944 -0.000210 -0.000170 0.000337
Al -0.050160 -1.870737 7.535140 0.000162 0.000203 -0.000059
Ga -0.004941 -1.846571 -2.696954 0.000028 0.000073 0.000358
Al -0.030129 1.810778 4.971000 -0.000179 -0.000241 -0.000208
Ga 0.021573 1.786167 -5.275663 -0.000247 0.000078 0.000153
Ga -0.019788 1.790013 -0.140551 -0.000112 0.000171 -0.000037
Al 3.154406 -3.704840 4.961477 -0.000420 0.000298 -0.000728
Ga 3.200702 -3.703964 -5.290352 -0.000218 0.000107 0.000210
Al 3.178254 -3.699755 -0.112644 0.000062 -0.000062 0.000114
Al 1.546141 -0.957429 4.977683 -0.000064 -0.000236 0.000691
Al 1.605488 -0.947133 -5.298886 -0.000291 0.000151 -0.000192
Al 1.583425 -0.952884 -0.128794 0.000309 -0.000071 -0.000608
Ga 3.117218 1.798716 4.981932 -0.000027 -0.000237 0.000232
Al 3.171918 1.777619 -5.288255 0.000078 -0.000333 -0.000213
Ga 3.160806 1.773938 -0.136544 0.000066 0.000106 -0.000048
Al 6.314214 -3.711258 4.989865 -0.000315 0.000807 -0.000208
Ga 6.367948 -3.710497 -5.305871 -0.000068 0.000059 0.000219
Al 6.334466 -3.688926 -0.129581 -0.000134 0.000040 0.000429
Ga 4.725627 -0.972814 4.954470 -0.000298 -0.000197 0.000134
Al 4.774362 -0.958645 -5.266028 -0.000107 0.000201 0.000073
Al 4.762767 -0.963181 -0.138439 -0.000116 -0.000086 0.000220
Ga -3.232640 1.806920 4.974735 -0.000054 -0.000050 0.000131
Ga -3.196199 1.783656 -5.254029 0.000163 0.000035 -0.000153
Al -3.206587 1.778807 -0.154633 -0.000117 0.000049 0.000370
Al -0.043020 -3.696798 4.998693 0.000058 -0.000032 0.000279
Ga 0.000715 -3.709049 -5.295894 0.000176 0.000080 0.000029
Ga -0.011874 -3.703781 -0.137566 -0.000003 -0.000105 -0.000323
Ga -1.630759 -0.975445 4.991495 -0.000087 -0.000108 0.000233
Ga -1.592085 -0.967871 -5.280544 -0.000033 0.000083 0.000188
Al -1.628241 -0.958506 -0.153234 -0.000242 0.000076 0.000302
N 1.502080 0.850004 4.349150 0.000384 -0.000025 -0.000852
N 1.630920 0.852031 -5.935147 -0.000027 0.000181 0.000566
N 1.574046 0.825859 -0.809117 0.000011 -0.000047 0.000116
N -0.043032 3.637985 4.360107 -0.000083 0.000115 -0.000325
N -0.002337 3.621728 -5.976701 0.000123 0.000079 0.000075
N -0.025335 3.681109 -0.710478 -0.000016 -0.000011 -0.000239
N 3.092580 -1.894606 4.332771 0.000526 0.000235 -0.000421
N 3.191545 -1.827954 -5.871923 0.000026 -0.000010 -0.000307
N 3.166621 -1.872565 -0.702939 -0.000168 0.000117 0.000083
N -4.825687 0.879654 4.301525 0.000467 -0.000070 -0.000349
N -4.816751 0.848721 -5.848634 0.000162 -0.000035 -0.000039
N -4.758597 0.846488 -0.784784 -0.000274 0.000137 -0.000283
N -6.420747 3.687409 4.415939 0.000314 -0.000194 -0.000425
N -6.370043 3.578500 -5.943726 -0.000082 0.000450 0.000404
N -6.439922 3.650921 -0.732330 0.000207 -0.000151 -0.000687
N -3.222130 -1.925982 4.311709 0.000136 -0.000276 -0.000050
N -3.223883 -1.851815 -5.941971 0.000056 -0.000112 -0.000197
N -3.205689 -1.876181 -0.760685 -0.000133 -0.000014 -0.000105
N -1.594873 0.898653 4.385837 -0.000029 0.000172 -0.000234
N -1.587792 0.880724 -5.896795 0.000235 -0.000173 -0.000079
N -1.649837 0.854651 -0.765205 0.000266 -0.000189 -0.000003
N -3.235564 3.688288 4.405478 0.000570 -0.000364 -0.000166
N -3.182850 3.628772 -5.906598 -0.000014 -0.000088 -0.000144
N -3.156371 3.610632 -0.702844 -0.000363 0.000077 -0.000294
N 0.000041 -1.894445 4.397991 0.000050 0.000343 -0.000155
N 0.049535 -1.849717 -5.942260 -0.000058 -0.000175 0.000034
N -0.011549 -1.817730 -0.716515 -0.000086 -0.000193 -0.000347
N 0.013194 1.822899 1.839544 -0.000104 0.000013 0.000353
N -0.007036 1.822850 6.893281 0.000058 0.000250 0.000510
N -0.008544 1.746669 -3.282923 -0.000011 0.000311 -0.000215
N 3.201685 -3.684645 1.805859 -0.000101 -0.000152 -0.000229
N 3.182150 -3.725849 6.876920 -0.000069 -0.000062 0.000718
N 3.186630 -3.712110 -3.323104 0.000100 0.000106 -0.000226
N 1.604538 -0.925138 1.784836 0.000254 -0.000437 0.000508
N 1.502052 -0.927921 6.903757 0.000229 0.000520 0.000099
N 1.589824 -0.915087 -3.381488 -0.000238 0.000215 -0.000030
N 3.140614 1.750617 1.843505 0.000031 -0.000286 -0.000078
N 3.084682 1.821069 6.960926 -0.000342 -0.000524 -0.000086
N 3.171601 1.744525 -3.353811 -0.000146 0.000240 0.000164
N 6.293508 -3.684955 1.784241 0.000050 -0.000032 0.000023
N 6.314850 -3.703084 6.919883 -0.000020 -0.000136 0.000031
N 6.359782 -3.659133 -3.325395 -0.000016 -0.000233 -0.000385
N 4.745139 -0.957169 1.792454 -0.000241 -0.000060 -0.000068
N 4.765304 -0.976872 6.927462 -0.000163 0.000061 -0.000230
N 4.814489 -0.941447 -3.341228 -0.000184 -0.000026 0.000126
N -3.260876 1.773485 1.763033 0.000356 0.000062 -0.000152
N -3.247159 1.792031 6.934068 0.000118 0.000052 -0.000147
N -3.191949 1.745861 -3.275075 0.000088 0.000103 -0.000125
N -0.032418 -3.710666 1.816722 0.000316 0.000116 0.000195
N -0.095765 -3.681617 6.919388 0.000377 -0.000183 -0.000051
N -0.001181 -3.708589 -3.318039 -0.000228 -0.000079 -0.000147
N -1.666292 -0.982907 1.763818 0.000477 0.000151 -0.000285
N -1.647294 -1.008708 6.968443 -0.000111 0.000215 -0.000162
N -1.641444 -0.938419 -3.291848 -0.000093 0.000042 -0.000156
