108
Energy=-2.542337e+06 Lattice="9.663772e+00 0.000000e+00 0.000000e+00 -4.839115e+00 8.358906e+00 0.000000e+00 -8.671603e-03 1.416982e-02 1.567140e+01" Stress="9.972502e-04 -3.008233e-04 -3.201200e-04 -3.067764e-04 2.682736e-04 9.209084e-04 -3.334464e-04 9.265511e-04 4.091218e-04" Properties=species:S:1:pos:R:3:forces:R:3 Config_type=AlGaN_super3_46_0_9.xyz
Al 1.580882e+00 8.901873e-01 2.459424e+00 3.655234e-04 -7.697253e-04 1.197275e-04
Al 1.580683e+00 8.955842e-01 7.685710e+00 3.922767e-04 8.634050e-05 1.920439e-04
Ga 1.595804e+00 8.857759e-01 -2.752467e+00 5.177010e-04 3.516291e-04 1.904125e-04
Al -2.270151e-02 3.661204e+00 2.465850e+00 1.119235e-04 -1.143250e-03 1.162094e-04
Ga -2.557562e-02 3.668449e+00 7.684532e+00 8.038779e-05 -6.222658e-05 1.124088e-04
Ga -2.467131e-02 3.669073e+00 -2.752873e+00 3.533215e-04 1.275743e-04 9.927024e-05
Ga 3.203650e+00 -1.898371e+00 2.473862e+00 -2.950513e-05 -1.081018e-03 -4.160255e-05
Ga 3.206456e+00 -1.876048e+00 7.683793e+00 1.708873e-04 -3.043751e-04 2.552425e-04
Ga 3.210142e+00 -1.888515e+00 -2.765240e+00 4.277681e-04 -2.734022e-05 2.160302e-04
Ga -4.863512e+00 8.825191e-01 2.463829e+00 2.337269e-04 -2.389698e-04 5.110697e-04
Ga -4.872033e+00 8.812052e-01 7.684873e+00 4.544062e-04 1.279575e-04 4.009749e-04
Al -4.852104e+00 8.828367e-01 -2.762436e+00 2.999664e-04 7.903144e-05 7.164112e-04
Ga -6.485597e+00 3.658667e+00 2.464712e+00 1.287225e-04 -9.951573e-04 -2.260217e-04
Ga -6.478870e+00 3.672320e+00 7.685920e+00 2.554059e-04 -7.364544e-05 -1.952620e-04
Ga -6.464058e+00 3.662247e+00 -2.752412e+00 -4.318361e-05 3.076530e-06 4.214393e-05
Ga -3.247061e+00 -1.901628e+00 2.459397e+00 2.279633e-04 -8.420443e-04 4.044178e-05
Ga -3.261026e+00 -1.882093e+00 7.689751e+00 2.173427e-04 -2.414761e-04 3.082586e-04
Ga -3.245911e+00 -1.885707e+00 -2.757153e+00 1.285629e-04 -2.779153e-04 6.129149e-04
Ga -1.635408e+00 8.929034e-01 2.438482e+00 4.740747e-04 -8.967095e-04 3.721126e-04
Ga -1.629815e+00 8.998476e-01 7.685666e+00 3.036247e-04 -4.507465e-05 -1.989670e-05
Ga -1.645792e+00 8.866583e-01 -2.729612e+00 3.989587e-04 -1.655019e-04 -1.967340e-04
Ga -3.242500e+00 3.664477e+00 2.450360e+00 1.450005e-04 -1.388097e-03 1.202572e-04
Ga -3.252109e+00 3.682577e+00 7.691286e+00 1.148445e-04 -3.945907e-04 1.903899e-06
Ga -3.248795e+00 3.661035e+00 -2.735853e+00 2.073748e-04 -2.199433e-04 -6.633202e-04
Ga -2.670804e-02 -1.886112e+00 2.456790e+00 4.742256e-04 -1.105844e-03 2.683172e-04
Ga -2.046561e-02 -1.879967e+00 7.685804e+00 3.143408e-04 -5.323609e-04 -1.938503e-04
Ga -2.043387e-02 -1.891257e+00 -2.743196e+00 1.428975e-04 -4.400700e-04 2.505257e-04
Ga -1.803717e-02 1.817211e+00 5.055142e+00 -2.290032e-05 5.631198e-04 3.325931e-04
Ga -1.734628e-02 1.804655e+00 -5.373134e+00 2.731418e-05 4.475805e-04 2.200501e-04
Ga -3.306988e-02 1.823647e+00 -1.229665e-01 2.203329e-04 -1.621717e-03 4.325539e-05
Ga 3.209342e+00 -3.748771e+00 5.064169e+00 -1.986179e-05 2.665010e-04 2.278647e-05
Ga 3.209824e+00 -3.753055e+00 -5.368137e+00 -4.142472e-05 3.952258e-04 -2.592331e-04
Ga 3.202858e+00 -3.752685e+00 -1.314601e-01 2.792814e-04 -1.282866e-03 -1.309615e-04
Ga 1.597150e+00 -9.532083e-01 5.074701e+00 -8.394744e-05 1.777921e-04 4.797977e-05
Ga 1.604094e+00 -9.676720e-01 -5.381548e+00 -2.719608e-04 1.560587e-04 4.261478e-05
Ga 1.584828e+00 -9.522871e-01 -1.308844e-01 9.526659e-06 -2.059568e-03 -5.908707e-05
Ga 3.187779e+00 1.803886e+00 5.074217e+00 -7.687564e-05 1.645993e-04 2.175277e-04
Ga 3.202400e+00 1.795473e+00 -5.372767e+00 -6.542721e-05 2.510886e-04 2.024394e-04
Ga 3.211220e+00 1.821435e+00 -1.455205e-01 -6.898417e-05 -1.889927e-03 4.005270e-05
Ga 6.408518e+00 -3.742369e+00 5.064422e+00 5.694293e-06 -3.384221e-04 9.739289e-05
Ga 6.420142e+00 -3.749763e+00 -5.370303e+00 1.860969e-04 3.455404e-05 -1.955622e-04
Ga 6.422815e+00 -3.735798e+00 -1.321624e-01 -6.575757e-05 -1.533265e-03 -3.871834e-04
Al 4.809792e+00 -9.633819e-01 5.068482e+00 -2.703598e-04 -3.343451e-04 5.223619e-05
Al 4.814235e+00 -9.664571e-01 -5.355720e+00 -1.693189e-04 -1.515868e-04 3.457142e-04
Ga 4.825503e+00 -9.401390e-01 -1.588893e-01 -3.873168e-04 -2.001381e-03 7.383490e-05
Ga -3.256276e+00 1.812286e+00 5.073492e+00 -5.567248e-05 3.363375e-04 1.979578e-04
Ga -3.252178e+00 1.800953e+00 -5.358873e+00 -9.702727e-05 2.198091e-04 2.557127e-04
Al -3.249774e+00 1.811152e+00 -1.591004e-01 -5.908923e-04 -1.451290e-03 2.735458e-04
Ga -2.240126e-02 -3.749533e+00 5.071112e+00 5.435464e-05 -2.623361e-04 -5.644770e-05
Ga -1.510724e-02 -3.757902e+00 -5.360191e+00 -9.549226e-05 1.294300e-04 1.199591e-04
Ga -1.683818e-02 -3.741625e+00 -1.430068e-01 -3.193478e-04 -1.466168e-03 -3.497708e-04
Ga -1.647765e+00 -9.623759e-01 5.074038e+00 -2.560473e-04 -1.413527e-04 1.097452e-04
Ga -1.638890e+00 -9.703865e-01 -5.369160e+00 -1.687991e-04 -1.241528e-04 1.421068e-04
Al -1.636322e+00 -9.521311e-01 -1.446925e-01 -2.470133e-04 -1.437537e-03 -2.700656e-04
N 1.583941e+00 8.912444e-01 4.374649e+00 4.114094e-04 -1.631402e-04 1.611109e-04
N 1.588229e+00 8.855351e-01 -6.063831e+00 3.908904e-04 1.304907e-04 2.556239e-04
N 1.584422e+00 8.977057e-01 -7.776172e-01 3.385463e-04 1.259687e-03 -3.964774e-05
N -2.901822e-02 3.676045e+00 4.384686e+00 1.368227e-04 -2.409799e-04 1.727844e-04
N -2.356339e-02 3.667130e+00 -6.008013e+00 1.503691e-04 -1.117620e-04 4.783067e-05
N -2.510251e-02 3.678310e+00 -7.771381e-01 2.547735e-04 8.593751e-04 7.413999e-09
N 3.239561e+00 -1.866687e+00 4.459689e+00 -1.011267e-05 -5.093718e-04 -8.261161e-05
N 3.253914e+00 -1.873621e+00 -5.991515e+00 7.819641e-05 -3.323461e-04 -1.373298e-04
N 3.200830e+00 -1.890195e+00 -7.803117e-01 3.386622e-04 7.914343e-04 8.192317e-05
N -4.860391e+00 8.445701e-01 4.452084e+00 9.811120e-05 3.621074e-04 -2.668671e-04
N -4.853678e+00 8.297255e-01 -5.997174e+00 1.786932e-04 4.402351e-04 -4.518877e-04
N -4.816418e+00 9.193750e-01 -8.314662e-01 2.251381e-04 7.098577e-04 -1.390452e-04
N -6.474210e+00 3.674549e+00 4.444479e+00 -1.583256e-04 -2.023627e-04 -1.094861e-05
N -6.465866e+00 3.668244e+00 -6.001459e+00 -1.583483e-04 -1.671893e-04 4.647327e-05
N -6.470476e+00 3.681157e+00 -7.729666e-01 2.975508e-05 8.815650e-04 -1.584619e-04
N -3.287454e+00 -1.865433e+00 4.445548e+00 2.473375e-04 -2.091150e-04 -2.161375e-04
N -3.288898e+00 -1.871693e+00 -5.988755e+00 2.571035e-04 -2.605089e-04 -2.699410e-04
N -3.199888e+00 -1.865604e+00 -7.683285e-01 8.417091e-05 3.516742e-04 -1.860209e-04
N -1.642099e+00 8.945220e-01 4.423919e+00 7.411788e-05 -2.537388e-04 -3.542645e-04
N -1.634496e+00 8.884162e-01 -6.006722e+00 -1.137254e-05 -1.444172e-04 -2.983157e-04
N -1.673563e+00 8.718836e-01 -7.322231e-01 4.970024e-05 7.927534e-04 -4.685665e-04
N -3.249691e+00 3.676521e+00 4.431844e+00 -1.242696e-04 -5.213808e-04 -2.627931e-04
N -3.244090e+00 3.669236e+00 -5.999116e+00 -1.007261e-04 -4.827863e-04 -5.514234e-05
N -3.244112e+00 3.630525e+00 -7.501021e-01 -2.236426e-04 9.961261e-04 -4.389929e-04
N -2.532099e-02 -1.885052e+00 4.439153e+00 -2.835488e-05 -4.342386e-04 3.417431e-05
N -1.815125e-02 -1.898250e+00 -6.006411e+00 -8.395235e-05 -4.648222e-04 1.684634e-05
N -5.956567e-02 -1.860496e+00 -7.557338e-01 -2.458547e-04 6.396692e-05 -3.016572e-06
N 1.825873e-02 1.831095e+00 1.866625e+00 -5.438886e-04 2.119150e-03 -1.841463e-04
N 1.823211e-02 1.795006e+00 7.050105e+00 -3.734019e-04 5.196588e-04 -4.372848e-04
N -2.477108e-02 1.805576e+00 -3.389207e+00 -1.865499e-04 4.961452e-04 -7.386650e-05
N 3.246982e+00 -3.789553e+00 1.853649e+00 -3.661476e-04 2.490387e-03 9.983666e-05
N 3.201421e+00 -3.750179e+00 7.049537e+00 5.737700e-06 5.720574e-04 -1.236061e-04
N 3.201181e+00 -3.760761e+00 -3.387503e+00 -1.131500e-04 5.139380e-04 1.060848e-04
N 1.592502e+00 -9.315802e-01 1.853347e+00 -2.821921e-04 1.750433e-03 -1.771109e-04
N 1.590535e+00 -9.117711e-01 7.066893e+00 -2.857490e-04 -2.016291e-04 -2.115407e-04
N 1.591457e+00 -9.703792e-01 -3.399201e+00 -1.877577e-04 1.115811e-04 -3.137704e-04
N 3.156566e+00 1.776874e+00 1.840003e+00 1.751214e-04 2.083173e-03 6.380997e-05
N 3.148197e+00 1.793570e+00 7.065853e+00 1.077674e-04 2.656461e-04 -2.917938e-04
N 3.241562e+00 1.784866e+00 -3.379891e+00 -4.405212e-04 4.141849e-04 -3.483410e-04
N 6.378179e+00 -3.787995e+00 1.851105e+00 2.281940e-04 2.053682e-03 3.044245e-05
N 6.416399e+00 -3.746366e+00 7.047817e+00 2.319141e-05 2.192701e-04 -1.032630e-04
N 6.426012e+00 -3.756389e+00 -3.389487e+00 -3.488453e-05 3.480884e-04 -5.389484e-05
N 4.809250e+00 -9.752681e-01 1.815584e+00 -2.203482e-04 1.532433e-03 -3.032059e-04
N 4.808930e+00 -9.626337e-01 6.984425e+00 -2.653759e-04 2.585940e-05 5.917865e-05
N 4.815269e+00 -9.207474e-01 -3.423651e+00 -3.484232e-04 -1.795047e-04 -1.429414e-04
N -3.257517e+00 1.804519e+00 1.763649e+00 -1.877095e-04 1.496209e-03 3.792825e-04
N -3.252720e+00 1.820869e+00 7.053677e+00 -4.754536e-04 1.007422e-04 3.919184e-05
N -3.283693e+00 1.788175e+00 -3.370539e+00 -2.420903e-04 3.719027e-04 -4.990988e-05
N -2.474621e-02 -3.763460e+00 1.833365e+00 -9.924542e-05 1.839861e-03 1.995316e-04
N -2.347864e-02 -3.748358e+00 7.050633e+00 -4.390287e-04 1.947745e-04 1.438639e-04
N -1.360675e-02 -3.755981e+00 -3.378433e+00 -2.689839e-04 2.741054e-04 1.123256e-04
N -1.636315e+00 -9.763905e-01 1.773527e+00 -5.482797e-04 1.146023e-03 1.826627e-04
N -1.639036e+00 -9.619520e-01 7.053111e+00 -5.669449e-04 -2.609349e-04 4.472218e-05
N -1.627614e+00 -9.667535e-01 -3.390678e+00 -5.394380e-04 -1.480710e-05 -1.622239e-04
