108
Energy=-1.626827e+06 Lattice="9.540683e+00 0.000000e+00 0.000000e+00 -4.779328e+00 8.255955e+00 0.000000e+00 4.513873e-03 1.771825e-02 1.542192e+01" Stress="-6.674309e-05 -3.004777e-04 3.182857e-04 -3.034285e-04 -8.036187e-04 7.405524e-04 3.224063e-04 7.532314e-04 9.546567e-04" Properties=species:S:1:pos:R:3:forces:R:3 Config_type=AlGaN_super3_26_2_17.xyz
Al 1.571976e+00 8.701980e-01 2.442139e+00 -7.395672e-04 -4.948564e-04 -3.042075e-04
Al 1.565716e+00 9.086454e-01 7.527005e+00 4.627795e-04 -1.422803e-04 5.688500e-04
Al 1.546091e+00 8.715947e-01 -2.705479e+00 9.401435e-05 -6.561988e-04 3.514348e-05
Al -2.820594e-02 3.631145e+00 2.429096e+00 1.552771e-04 -3.960024e-04 1.917106e-04
Al -1.487098e-02 3.616817e+00 7.548505e+00 2.570276e-04 -5.378416e-04 4.167320e-04
Al -3.889942e-02 3.609829e+00 -2.702780e+00 -2.139321e-04 5.634687e-06 -2.611951e-04
Al 3.158761e+00 -1.873334e+00 2.399049e+00 -1.404307e-03 -9.268811e-05 -1.209116e-03
Ga 3.171925e+00 -1.854686e+00 7.569131e+00 1.425941e-04 1.017172e-04 7.346997e-04
Ga 3.148933e+00 -1.883045e+00 -2.696633e+00 3.756765e-04 1.140458e-04 5.684484e-04
Al -4.804772e+00 8.743323e-01 2.452295e+00 3.107809e-04 -1.072705e-04 4.629795e-04
Al -4.796274e+00 8.995179e-01 7.542752e+00 4.076872e-04 -3.569778e-04 9.250791e-05
Ga -4.796479e+00 8.769838e-01 -2.721612e+00 4.587009e-04 -5.806858e-04 -4.791406e-04
Ga -6.386110e+00 3.631882e+00 2.436970e+00 6.083292e-05 9.811054e-05 4.231374e-04
Al -6.379823e+00 3.628316e+00 7.543875e+00 -3.430682e-04 -8.727869e-05 4.897096e-04
Ga -6.381705e+00 3.627666e+00 -2.709359e+00 2.168367e-04 5.238206e-05 9.687418e-05
Al -3.194257e+00 -1.868954e+00 2.429389e+00 -1.639083e-04 1.059100e-04 -3.847295e-05
Ga -3.188013e+00 -1.852668e+00 7.567596e+00 -2.935529e-05 1.445233e-04 2.010487e-04
Ga -3.188034e+00 -1.866444e+00 -2.724965e+00 -1.205923e-04 1.092808e-04 4.013955e-04
Ga -1.610440e+00 8.615895e-01 2.449873e+00 6.971935e-04 3.412491e-04 -1.144423e-03
Al -1.606667e+00 8.896513e-01 7.530187e+00 -1.394823e-04 8.500911e-04 -4.623484e-04
Al -1.602675e+00 8.735825e-01 -2.715575e+00 3.168627e-04 -7.044493e-04 3.136270e-04
Ga -3.208782e+00 3.643024e+00 2.430039e+00 4.471353e-04 8.856942e-05 3.962147e-04
Ga -3.217647e+00 3.632768e+00 7.547806e+00 3.103977e-04 -5.682870e-04 7.213178e-04
Al -3.205496e+00 3.634460e+00 -2.708728e+00 5.042141e-06 8.382390e-05 3.144415e-04
Al -2.032242e-02 -1.866378e+00 2.406588e+00 -8.377437e-04 -1.243731e-04 5.368074e-04
Ga -3.263133e-02 -1.858823e+00 7.559851e+00 5.095398e-04 -2.606496e-04 1.138325e-03
Al -2.381809e-02 -1.870938e+00 -2.711626e+00 -9.702562e-05 2.244369e-04 4.971918e-04
Al -2.507742e-02 1.791644e+00 4.992884e+00 -2.934105e-04 1.691943e-03 4.329276e-04
Ga -2.987271e-02 1.777621e+00 -5.291992e+00 -5.681848e-04 1.977789e-06 1.352733e-03
Ga -2.717339e-02 1.781670e+00 -1.484006e-01 -2.324217e-04 3.039523e-04 2.390776e-03
Ga 3.163944e+00 -3.716204e+00 4.985952e+00 5.687853e-05 3.777371e-04 4.287057e-04
Ga 3.164161e+00 -3.718835e+00 -5.276543e+00 -4.678670e-04 5.307721e-05 7.719390e-04
Al 3.150876e+00 -3.711568e+00 -1.405249e-01 3.466536e-04 -2.970156e-04 -5.047177e-04
Ga 1.557515e+00 -9.470565e-01 4.966267e+00 -9.106564e-04 3.355780e-04 1.024454e-03
Ga 1.560754e+00 -9.634837e-01 -5.279146e+00 -9.989831e-04 8.496242e-04 4.867639e-04
Al 1.552829e+00 -9.694310e-01 -1.403034e-01 -1.057152e-03 9.147891e-05 1.008285e-03
Al 3.159578e+00 1.802485e+00 4.999427e+00 5.271556e-04 7.086357e-04 5.027588e-04
Ga 3.155761e+00 1.788541e+00 -5.317388e+00 -2.589185e-05 -1.300186e-04 8.000616e-04
Ga 3.147245e+00 1.779738e+00 -1.214832e-01 -5.285710e-04 7.085123e-04 -9.766245e-04
Ga 6.353407e+00 -3.710669e+00 4.994809e+00 -3.164409e-04 2.563858e-04 3.097703e-04
Ga 6.348296e+00 -3.708950e+00 -5.299911e+00 4.504180e-05 -2.304911e-04 6.947143e-05
Ga 6.336245e+00 -3.704971e+00 -1.268354e-01 -2.455899e-04 -3.711496e-04 -7.320464e-05
Ga 4.761292e+00 -9.360859e-01 4.964478e+00 -4.651760e-04 7.181172e-04 8.908253e-04
Al 4.759275e+00 -9.537769e-01 -5.297108e+00 -1.578117e-04 4.717174e-04 -1.994425e-04
Ga 4.752025e+00 -9.646790e-01 -9.914989e-02 -7.706628e-04 -2.949491e-04 -1.002388e-03
Al -3.204244e+00 1.804640e+00 5.000689e+00 -3.970664e-03 -3.770533e-03 8.216231e-04
Ga -3.205620e+00 1.781197e+00 -5.296567e+00 -5.513228e-05 -2.273893e-04 4.741304e-04
Ga -3.200504e+00 1.800423e+00 -1.490865e-01 2.550818e-04 5.229744e-04 1.914578e-04
Al -2.618324e-02 -3.698619e+00 4.986316e+00 -4.861384e-04 2.132610e-04 4.103359e-04
Al -2.715437e-02 -3.703517e+00 -5.280544e+00 -6.424771e-05 -3.418507e-04 1.130202e-03
Al -6.135284e-03 -3.684277e+00 -1.512752e-01 4.359254e-04 -3.563301e-04 -5.639052e-04
Al -1.601150e+00 -9.410031e-01 4.978062e+00 -8.126972e-04 -4.513334e-03 1.451773e-03
Al -1.607571e+00 -9.558405e-01 -5.284503e+00 -4.641802e-04 3.611518e-04 5.319020e-04
Al -1.592115e+00 -9.661161e-01 -1.446994e-01 -3.199541e-04 -2.361516e-04 5.091768e-05
N 1.566057e+00 9.373509e-01 4.365534e+00 3.924874e-04 -1.540771e-03 -7.294806e-04
N 1.557967e+00 8.726928e-01 -5.981389e+00 3.594712e-04 -8.383990e-04 -8.551528e-04
N 1.563875e+00 8.253331e-01 -7.922117e-01 4.165021e-04 -6.985568e-04 2.951607e-04
N -2.476955e-02 3.587732e+00 4.340925e+00 -6.311760e-04 -1.735741e-03 -2.898706e-04
N -2.822453e-02 3.616143e+00 -5.964080e+00 -3.913147e-05 3.303535e-05 -6.992112e-04
N -6.843576e-02 3.647697e+00 -7.906641e-01 -6.645694e-04 2.143296e-04 9.943295e-04
N 3.156142e+00 -1.873505e+00 4.308120e+00 3.426013e-04 -5.127471e-05 -7.990292e-04
N 3.198554e+00 -1.857358e+00 -5.878369e+00 1.763962e-04 1.067602e-04 -5.054091e-04
N 3.122101e+00 -1.895256e+00 -7.074598e-01 -3.935217e-04 -5.363401e-05 4.509260e-04
N -4.802632e+00 9.389302e-01 4.364287e+00 3.116794e-03 9.732571e-04 1.301199e-04
N -4.795860e+00 8.311276e-01 -5.957995e+00 5.638728e-04 -5.507536e-04 -6.298329e-04
N -4.799617e+00 8.681749e-01 -7.628431e-01 6.100786e-04 1.203950e-05 3.752030e-04
N -6.343954e+00 3.610055e+00 4.411019e+00 5.063944e-04 -1.062169e-04 -4.183186e-04
N -6.341456e+00 3.649567e+00 -5.951223e+00 4.995093e-04 4.887375e-04 -9.041776e-04
N -6.346354e+00 3.647974e+00 -7.316430e-01 4.971838e-04 4.296177e-04 2.778206e-04
N -3.153042e+00 -1.847941e+00 4.342265e+00 1.276923e-03 4.117682e-04 -8.527101e-04
N -3.193603e+00 -1.827753e+00 -5.871460e+00 1.558936e-04 4.899017e-04 2.085750e-05
N -3.162611e+00 -1.848893e+00 -7.466631e-01 1.010364e-03 6.677251e-04 2.712843e-05
N -1.620706e+00 8.754289e-01 4.437238e+00 2.107206e-03 4.706633e-03 -2.076170e-03
N -1.616870e+00 8.278125e-01 -5.964871e+00 8.567460e-04 -1.049002e-03 -2.141224e-04
N -1.618488e+00 8.242068e-01 -7.966379e-01 8.417090e-04 -4.902088e-04 2.139610e-04
N -3.250756e+00 3.613694e+00 4.415016e+00 2.220726e-04 8.901733e-04 -1.477284e-03
N -3.254551e+00 3.651779e+00 -5.895753e+00 -1.140161e-04 6.770930e-05 -3.334417e-04
N -3.210224e+00 3.678509e+00 -7.793122e-01 -3.939158e-04 2.541054e-04 1.162470e-04
N -6.327988e-02 -1.891533e+00 4.334011e+00 -1.727786e-04 -1.847101e-04 -1.541326e-04
N -6.745914e-02 -1.901380e+00 -5.878113e+00 3.009219e-04 -1.189875e-04 -4.900641e-04
N -2.400295e-02 -1.872128e+00 -7.734590e-01 2.795389e-04 -1.248130e-04 -5.072955e-04
N 1.850049e-02 1.809003e+00 1.848066e+00 -5.951559e-04 1.064483e-03 -3.236584e-03
N -2.157737e-02 1.804487e+00 6.923147e+00 -4.575459e-04 2.736939e-05 -9.279418e-04
N -2.547531e-02 1.789681e+00 -3.291208e+00 -1.395834e-04 1.279356e-04 -2.764543e-04
N 3.203964e+00 -3.696494e+00 1.785527e+00 -1.472473e-04 4.871707e-04 -3.071822e-04
N 3.208615e+00 -3.721060e+00 6.957504e+00 -2.444800e-05 5.545009e-05 -3.303763e-04
N 3.164316e+00 -3.761943e+00 -3.296171e+00 -1.826819e-04 -7.664442e-05 -2.451174e-04
N 1.557959e+00 -9.547617e-01 1.803067e+00 2.045077e-03 1.209228e-03 1.298190e-04
N 1.572838e+00 -9.067717e-01 6.945752e+00 -8.077772e-04 9.943023e-04 -6.744584e-04
N 1.526454e+00 -9.377895e-01 -3.296149e+00 -6.819850e-05 6.185085e-04 -3.465483e-04
N 3.153457e+00 1.747586e+00 1.848160e+00 -6.048887e-05 -1.132562e-03 1.087433e-03
N 3.160519e+00 1.805871e+00 6.933164e+00 -3.774859e-04 -3.516124e-04 -2.704168e-04
N 3.107203e+00 1.767011e+00 -3.335579e+00 -8.826941e-04 -7.316311e-05 -3.456783e-04
N 6.300576e+00 -3.685987e+00 1.853308e+00 -4.032251e-04 1.454426e-04 -1.742219e-04
N 6.345481e+00 -3.740258e+00 6.979678e+00 4.625223e-05 -6.902052e-04 -1.952403e-05
N 6.298212e+00 -3.740259e+00 -3.319702e+00 -2.679563e-04 -2.986295e-04 -1.758531e-04
N 4.753100e+00 -9.528062e-01 1.879179e+00 6.673220e-04 3.220803e-04 7.940349e-04
N 4.757443e+00 -9.012694e-01 6.937676e+00 -3.549174e-04 6.353061e-04 -2.808125e-04
N 4.746018e+00 -9.621988e-01 -3.389262e+00 -6.381497e-04 9.192986e-05 -1.672152e-04
N -3.241537e+00 1.770883e+00 1.829188e+00 -6.503631e-04 -1.393058e-04 -2.000045e-04
N -3.204998e+00 1.761512e+00 6.922802e+00 4.819228e-04 -9.719560e-04 -2.121286e-04
N -3.162384e+00 1.815481e+00 -3.303949e+00 5.925232e-04 4.753260e-04 -8.151795e-05
N -1.758737e-02 -3.658139e+00 1.763699e+00 4.575735e-04 -1.560124e-04 -3.466317e-04
N -5.857372e-02 -3.711310e+00 6.897121e+00 -1.578675e-04 -8.583516e-05 -9.911848e-04
N 2.007664e-02 -3.686576e+00 -3.349954e+00 4.468426e-04 3.706605e-04 -8.422816e-06
N -1.608820e+00 -1.002345e+00 1.778868e+00 6.717225e-05 3.207930e-04 2.950416e-04
N -1.604783e+00 -9.037004e-01 6.889143e+00 -4.616596e-04 2.843051e-04 -3.298093e-04
N -1.564373e+00 -9.315272e-01 -3.360244e+00 1.549036e-04 4.360635e-04 -2.380853e-04
