108
Energy=-802868.008492 Lattice="9.443430 0.000000 0.000000 -4.730673 8.170513 0.000000 -0.001178 -0.009216 15.182314" Stress="0.000005 -0.000002 -0.000002 -0.000002 0.000001 -0.000002 -0.000002 -0.000002 0.000007" Properties=species:S:1:pos:R:3:forces:R:3
Al 1.548475 0.868295 2.385722 0.000328 0.000056 0.000421
Al 1.545577 0.863616 7.426676 0.000655 -0.000364 0.000311
Al 1.556512 0.873996 -2.679581 0.000104 0.000184 0.000782
Al -0.037319 3.581844 2.385421 -0.000038 -0.000176 0.000245
Al -0.025799 3.582132 7.437384 -0.000576 0.000081 0.000243
Al -0.026614 3.584051 -2.675358 0.000498 0.000897 -0.000705
Al 3.125403 -1.864789 2.397678 0.001576 0.000876 -0.000185
Al 3.125303 -1.855751 7.409003 0.000256 -0.000419 -0.001453
Al 3.121008 -1.855378 -2.659017 0.005131 -0.002205 0.000513
Al -4.749798 0.875165 2.396913 0.000693 0.000476 0.000203
Al -4.749659 0.874996 7.423450 0.000753 -0.000541 -0.000105
Al -4.745014 0.883621 -2.675049 0.000210 -0.002995 -0.002600
Al -6.311431 3.581087 2.392294 -0.001127 0.000909 -0.000211
Al -6.326008 3.584162 7.435436 0.000641 0.000285 -0.000102
Al -6.327866 3.577170 -2.676320 0.000971 0.001076 -0.000344
Al -3.161460 -1.842188 2.405125 0.000188 -0.000193 -0.000207
Al -3.168646 -1.852836 7.427358 0.000351 -0.000310 -0.002438
Al -3.163792 -1.861236 -2.662753 -0.001933 -0.000180 -0.004655
Al -1.601984 0.872295 2.388688 0.000582 -0.000549 -0.000569
Al -1.604891 0.880763 7.420622 0.000777 -0.001028 -0.000048
Al -1.604688 0.887471 -2.670537 0.000335 -0.000930 0.000203
Al -3.177038 3.594797 2.388053 0.000653 -0.000956 -0.000179
Al -3.177452 3.587079 7.408766 0.000554 -0.000472 -0.000903
Al -3.171957 3.581949 -2.652571 0.002032 -0.000865 0.000501
Al -0.022804 -1.853048 2.382879 -0.000177 -0.000327 -0.000280
Al -0.014732 -1.851071 7.411232 0.000453 -0.000503 -0.001935
Ga -0.008000 -1.850092 -2.648836 -0.000101 0.000044 0.000420
Al -0.029789 1.765020 4.907079 -0.000362 0.000255 0.000719
Al -0.015932 1.776976 -5.218819 -0.000970 0.000378 0.000764
Al -0.030438 1.761656 -0.143555 -0.000109 0.000320 -0.000704
Al 3.123408 -3.677759 4.910223 -0.000261 0.000403 0.000563
Ga 3.132975 -3.675505 -5.215323 -0.000602 0.000727 0.000559
Al 3.116545 -3.684841 -0.138069 0.000184 0.001069 -0.001406
Al 1.556459 -0.949490 4.897198 -0.001309 0.000692 0.000442
Al 1.557114 -0.925250 -5.218003 0.002049 -0.001968 -0.001751
Al 1.555312 -0.945991 -0.122132 -0.001153 0.000538 0.000685
Al 3.123130 1.767501 4.910353 -0.000475 -0.000226 0.000926
Al 3.111194 1.777248 -5.219979 0.000704 -0.000018 0.000619
Al 3.119612 1.772597 -0.140313 0.000612 -0.000588 -0.000859
Ga 6.275910 -3.675095 4.909590 -0.000100 0.000130 -0.000076
Al 6.279096 -3.681313 -5.211376 -0.000105 0.000607 -0.000365
Ga 6.282731 -3.683678 -0.126573 -0.000575 -0.000246 -0.000574
Al 4.698410 -0.938330 4.909907 -0.000468 0.000027 0.000297
Ga 4.697762 -0.939175 -5.214781 -0.000275 0.000113 0.001626
Ga 4.699283 -0.939053 -0.138563 -0.001016 0.000159 -0.000542
Al -3.177345 1.777318 4.901013 -0.000012 0.000008 -0.000013
Al -3.175042 1.785365 -5.216342 0.000129 -0.000838 0.000297
Al -3.174662 1.781713 -0.136151 0.002122 0.001303 0.000422
Al -0.013283 -3.670334 4.907315 -0.000022 0.000519 0.000328
Ga -0.017261 -3.679179 -5.223830 -0.000062 0.000608 0.000654
Al -0.013896 -3.682629 -0.125236 0.000692 0.001304 -0.001940
Al -1.587996 -0.935668 4.912517 -0.000443 0.000134 0.000382
Ga -1.584510 -0.930437 -5.229101 -0.001819 0.000202 0.000946
Al -1.598435 -0.938200 -0.135331 0.005259 0.002197 0.002685
N 1.545931 0.869780 4.305818 0.000921 -0.000187 -0.000760
N 1.546530 0.873965 -5.826721 0.000193 -0.000366 0.000102
N 1.548193 0.863969 -0.747733 0.000762 0.000030 -0.000501
N -0.070642 3.562884 4.293111 -0.000584 -0.000464 -0.000504
N 0.012231 3.571189 -5.828436 0.000973 -0.000755 -0.000437
N -0.063798 3.564519 -0.758976 -0.000702 -0.000584 0.000093
N 3.129235 -1.861481 4.315790 0.000374 -0.000105 -0.000412
N 3.091861 -1.831149 -5.873117 -0.002246 0.000911 0.003222
N 3.084919 -1.878866 -0.747720 -0.000065 -0.000690 0.000040
N -4.752187 0.872153 4.312016 0.000494 -0.000034 -0.000456
N -4.748259 0.920725 -5.837487 0.000173 0.000929 -0.000247
N -4.740027 0.921577 -0.765554 -0.002945 -0.000176 0.000686
N -6.280545 3.564454 4.297442 0.000678 -0.000439 -0.000401
N -6.360632 3.570892 -5.832856 -0.000903 -0.000667 -0.000578
N -6.285652 3.564121 -0.759822 0.000819 0.000031 -0.000275
N -3.164583 -1.805223 4.307729 0.000003 0.000512 0.000210
N -3.166000 -1.895449 -5.857574 0.000102 -0.000906 0.002743
N -3.122805 -1.837021 -0.769202 -0.001901 -0.001151 0.000668
N -1.603873 0.872374 4.306430 0.000870 -0.000340 -0.000283
N -1.602039 0.929550 -5.844174 0.000916 0.000324 -0.000221
N -1.606812 0.873063 -0.745671 0.000571 -0.000556 0.000004
N -3.177376 3.595693 4.307358 0.000206 -0.000527 -0.000433
N -3.173319 3.549462 -5.873188 0.000302 -0.000115 0.000991
N -3.178544 3.589457 -0.734690 0.000021 -0.000757 0.000148
N -0.024773 -1.852678 4.306493 0.000759 -0.000742 -0.000214
N 0.022985 -1.828808 -5.869192 0.001796 0.000707 0.003986
N -0.016310 -1.854011 -0.674371 -0.001395 -0.000386 0.001114
N -0.024272 1.769209 1.776403 -0.000159 0.000409 0.000590
N -0.023383 1.771580 6.826414 -0.000093 0.000445 -0.000349
N -0.022516 1.771518 -3.286959 0.000125 -0.000439 -0.000045
N 3.129144 -3.675781 1.779605 -0.000334 0.000907 0.001136
N 3.134312 -3.678997 6.828473 -0.000033 0.000430 -0.000639
N 3.127225 -3.671619 -3.232630 -0.000310 -0.000700 0.000806
N 1.561300 -0.949127 1.798473 -0.000650 0.000333 0.000144
N 1.557132 -0.947538 6.811986 -0.000837 0.000841 -0.000723
N 1.610734 -0.929011 -3.292948 -0.005764 0.003185 -0.004481
N 3.121843 1.772011 1.780248 -0.000346 0.000027 -0.000227
N 3.117591 1.773519 6.828837 -0.000373 -0.000171 -0.000168
N 3.122608 1.774815 -3.292340 -0.000302 -0.000461 -0.000348
N 6.275179 -3.668184 1.849577 0.001203 -0.001061 0.001377
N 6.275485 -3.674341 6.877472 0.000129 -0.000221 -0.000010
N 6.278524 -3.673013 -3.279374 0.000578 -0.000476 -0.000320
N 4.704891 -0.941432 1.835803 -0.002015 -0.002022 0.001992
N 4.703384 -0.944393 6.829244 -0.000535 0.000304 -0.000543
N 4.700461 -0.959471 -3.229305 0.000587 0.004542 0.002066
N -3.174859 1.777394 1.787432 -0.000632 0.000139 0.000687
N -3.177054 1.774128 6.812570 -0.000395 -0.000061 -0.000246
N -3.172194 1.783385 -3.287692 0.000124 -0.000691 -0.000534
N -0.018947 -3.675032 1.788002 -0.000221 0.000488 0.001248
N -0.023744 -3.672374 6.827650 -0.000369 -0.000065 -0.000534
N -0.005838 -3.715677 -3.247973 -0.003718 0.000039 0.000222
N -1.596101 -0.941308 1.789804 -0.000451 -0.000308 -0.000984
N -1.592179 -0.942532 6.832882 -0.000770 0.000381 -0.000689
N -1.625728 -0.922064 -3.254317 -0.000030 0.001026 0.000676
