108
Energy=-1626826.689516 Lattice="9.542411 0.000000 0.000000 -4.775333 8.262613 0.000000 -0.047791 0.005330 15.406888" Stress="0.000003 -0.000002 -0.000010 -0.000002 0.000004 0.000001 -0.000010 0.000001 -0.000005" Properties=species:S:1:pos:R:3:forces:R:3
Al 1.563448 0.868931 2.433407 0.000058 0.000100 0.000174
Al 1.539017 0.880040 7.543718 -0.000397 0.001661 0.000361
Al 1.583607 0.867929 -2.722314 -0.000129 0.000065 0.000135
Al -0.019419 3.648421 2.427829 -0.001900 -0.000515 -0.000273
Al -0.028192 3.634052 7.510763 0.000060 -0.000132 0.000193
Ga -0.006315 3.630660 -2.682570 -0.000056 0.000019 -0.000006
Al 3.159791 -1.863330 2.406132 -0.000481 -0.000229 -0.000314
Ga 3.134921 -1.867436 7.547068 0.000249 -0.000237 -0.000047
Ga 3.175671 -1.851711 -2.697299 0.000010 0.000076 0.000116
Al -4.806724 0.859849 2.394834 -0.000012 0.000180 0.000169
Ga -4.833014 0.873393 7.580997 0.000112 -0.000012 -0.000062
Al -4.787221 0.863554 -2.715731 0.000424 -0.000495 0.000408
Ga -6.419831 3.633759 2.438352 0.000262 -0.000134 0.000034
Al -6.422998 3.642750 7.529473 -0.000498 -0.000115 0.001370
Ga -6.391839 3.617212 -2.709300 -0.000152 0.000141 -0.000150
Al -3.227843 -1.879717 2.395113 0.000015 0.000061 0.000842
Al -3.224629 -1.890671 7.548946 -0.000035 -0.000047 0.000085
Al -3.200565 -1.859757 -2.688980 -0.000217 -0.000049 -0.000101
Ga -1.621873 0.874726 2.411597 -0.000025 0.000153 0.000060
Ga -1.612739 0.876818 7.541534 0.000016 0.000135 0.000063
Al -1.610348 0.866877 -2.686519 -0.000013 0.000113 0.000228
Ga -3.199962 3.631798 2.426786 0.000065 0.000055 -0.000068
Ga -3.228507 3.649955 7.529117 0.000116 -0.000150 0.000134
Ga -3.187414 3.616844 -2.682056 0.000041 -0.000026 -0.000112
Ga -0.021618 -1.857131 2.424600 -0.000083 -0.000196 0.000360
Al -0.041690 -1.871042 7.537790 -0.000217 -0.000095 0.000076
Ga -0.011967 -1.846084 -2.696862 0.000011 -0.000061 -0.000160
Al -0.019968 1.809406 4.973433 -0.000517 -0.000077 -0.000266
Ga 0.016079 1.788766 -5.277013 -0.000021 0.000184 0.000038
Ga -0.020402 1.791113 -0.140060 -0.000162 0.000053 0.000062
Al 3.156028 -3.706770 4.960236 0.000058 0.001027 0.000397
Ga 3.187898 -3.700734 -5.291832 -0.000019 0.000042 0.000024
Al 3.170196 -3.698901 -0.112924 0.000021 -0.000218 0.000620
Al 1.553456 -0.956740 4.980663 -0.000580 -0.000449 -0.000033
Al 1.594689 -0.944055 -5.301327 -0.000022 0.000005 0.000227
Al 1.574202 -0.953172 -0.126358 0.002056 0.000242 -0.001276
Ga 3.125597 1.795722 4.984785 0.000067 -0.000085 -0.000093
Al 3.165870 1.778348 -5.290544 -0.000181 0.000318 -0.000053
Ga 3.160087 1.774095 -0.137124 -0.000256 -0.000191 -0.000131
Al 6.313727 -3.709977 4.990501 0.000281 0.000460 -0.000046
Ga 6.354694 -3.708212 -5.306679 0.000016 -0.000105 -0.000089
Al 6.326172 -3.688707 -0.127327 -0.000150 -0.000097 -0.000285
Ga 4.728712 -0.973681 4.956804 0.000096 -0.000109 -0.000084
Al 4.763523 -0.956805 -5.266751 -0.000086 -0.000135 0.000205
Al 4.756470 -0.963404 -0.136614 -0.000242 0.000460 -0.000736
Ga -3.221534 1.804680 4.977728 -0.000130 -0.000166 0.000086
Ga -3.197858 1.784281 -5.256667 -0.000010 0.000134 0.000114
Al -3.205721 1.779144 -0.153259 0.000362 -0.000515 -0.000283
Al -0.037392 -3.698073 5.001141 0.000005 0.000307 -0.000179
Ga -0.008688 -3.707620 -5.297454 -0.000155 -0.000097 0.000001
Ga -0.016597 -3.704438 -0.138662 -0.000239 -0.000071 0.000196
Ga -1.623942 -0.975469 4.994747 -0.000066 -0.000135 -0.000163
Ga -1.599548 -0.967378 -5.281546 -0.000180 -0.000014 0.000005
Al -1.630316 -0.958620 -0.151436 -0.000244 0.000187 -0.000147
N 1.510068 0.849401 4.348303 0.000541 -0.000151 -0.000062
N 1.624126 0.854365 -5.936746 0.000037 -0.000234 -0.000130
N 1.571428 0.825573 -0.808484 0.000123 0.000025 -0.000030
N -0.032651 3.636470 4.360462 0.000125 0.000180 0.000114
N -0.006178 3.624030 -5.978870 0.000001 0.000015 -0.000050
N -0.024812 3.681950 -0.711257 0.000141 -0.000080 0.000074
N 3.096979 -1.893843 4.331808 0.000278 -0.000313 0.000439
N 3.180155 -1.824898 -5.875307 0.000081 -0.000024 0.000028
N 3.160220 -1.871994 -0.703637 -0.000621 0.000229 0.000644
N -4.813309 0.877599 4.301108 0.000137 0.000110 -0.000060
N -4.819017 0.849481 -5.850263 0.000111 0.000062 -0.000015
N -4.756397 0.848202 -0.786813 -0.000470 -0.000603 0.000325
N -6.406270 3.684718 4.417440 0.000066 0.000093 0.000052
N -6.370460 3.581004 -5.945529 0.000093 -0.000143 -0.000727
N -6.435751 3.650368 -0.734495 0.000066 0.000092 0.000160
N -3.214483 -1.925248 4.311936 -0.000143 -0.000575 -0.000172
N -3.231720 -1.850418 -5.944891 0.000114 0.000079 -0.000102
N -3.209058 -1.875935 -0.759699 0.000288 -0.000127 0.000174
N -1.585491 0.897773 4.386830 0.000217 0.000058 0.000051
N -1.590999 0.880467 -5.899200 0.000084 -0.000089 -0.000080
N -1.649513 0.853890 -0.765337 0.000136 -0.000121 -0.000127
N -3.221458 3.684837 4.406384 -0.000239 -0.000168 0.000046
N -3.184542 3.628904 -5.909819 0.000088 -0.000035 -0.000006
N -3.155514 3.607820 -0.705270 0.000415 0.000851 0.000247
N 0.006467 -1.893913 4.400420 0.000149 -0.000164 0.000097
N 0.040488 -1.849057 -5.945193 0.000122 0.000002 -0.000133
N -0.014848 -1.818599 -0.718202 -0.000855 -0.000375 0.000092
N 0.017522 1.821656 1.841468 0.000004 0.000419 -0.000038
N 0.005199 1.822801 6.895759 0.000197 -0.000256 0.000415
N -0.012827 1.749486 -3.284651 -0.000017 0.000056 -0.000004
N 3.198586 -3.685364 1.808560 0.000359 -0.000034 -0.000877
N 3.185998 -3.724639 6.881053 0.000050 -0.000047 -0.000672
N 3.175693 -3.708610 -3.324984 -0.000106 -0.000009 -0.000041
N 1.603285 -0.925356 1.784559 0.000345 -0.000440 0.001063
N 1.509613 -0.926765 6.906477 0.000018 -0.000763 -0.000466
N 1.580067 -0.912650 -3.383125 -0.000075 -0.000018 -0.000143
N 3.144457 1.748387 1.843032 0.000053 0.000079 0.000017
N 3.093380 1.816392 6.963686 0.000403 0.000083 -0.000328
N 3.166196 1.745498 -3.354470 -0.000366 0.000244 -0.000179
N 6.288640 -3.687359 1.786211 0.001037 0.000612 -0.000344
N 6.318289 -3.703538 6.920667 0.000081 0.000130 -0.000061
N 6.347844 -3.657585 -3.327343 0.000017 0.000067 0.000106
N 4.743031 -0.958351 1.792300 -0.000046 -0.000055 -0.000002
N 4.770264 -0.977445 6.929077 -0.000007 0.000011 -0.000062
N 4.803871 -0.939901 -3.341335 0.000086 -0.000051 -0.000064
N -3.252746 1.771859 1.762635 -0.000248 -0.000036 0.000204
N -3.233361 1.790483 6.936751 -0.000079 0.000007 -0.000006
N -3.193440 1.746258 -3.277568 0.000021 0.000131 -0.000215
N -0.032238 -3.711597 1.817923 -0.000059 0.000060 -0.000159
N -0.087136 -3.682504 6.921261 0.000112 0.000116 -0.000283
N -0.010459 -3.707946 -3.319714 0.000035 0.000130 -0.000002
N -1.663520 -0.983720 1.764823 0.000083 -0.000143 -0.000305
N -1.638623 -1.008827 6.970571 0.000063 -0.000065 -0.000002
N -1.647967 -0.937935 -3.293412 0.000031 -0.000044 -0.000027
