108
Energy=-1306396.787078 Lattice="9.479418 0.000000 0.000000 -4.747054 8.206598 0.000000 0.000424 0.001379 15.304867" Stress="-0.000089 0.000004 0.000002 0.000004 -0.000043 0.000003 0.000002 0.000003 -0.000023" Properties=species:S:1:pos:R:3:forces:R:3
Al 1.566426 0.924423 2.457565 -0.001058 -0.015148 -0.018140
Al 1.557829 0.880956 7.509514 0.002673 -0.006059 0.002831
Al 1.539183 0.880821 -2.741465 0.000700 -0.005310 0.004870
Al -0.018762 3.620472 2.416532 -0.005019 -0.008041 0.003807
Al -0.021756 3.603873 7.521442 -0.001617 -0.000370 0.001702
Al -0.016884 3.595422 -2.734498 0.001994 -0.000774 0.002386
Al 3.169237 -1.848287 2.400603 -0.035166 -0.027181 0.019621
Al 3.153409 -1.874709 7.510464 0.004141 -0.000145 0.001074
Ga 3.165940 -1.881380 -2.751602 -0.001596 0.000911 0.005083
Al -4.764370 0.887395 2.424455 -0.005527 -0.008761 0.000276
Al -4.785163 0.882208 7.504692 0.003453 -0.005870 -0.000484
Ga -4.774796 0.886228 -2.724139 0.000086 -0.008559 0.001618
Al -6.305577 3.644534 2.381634 -0.026993 -0.026645 0.027465
Ga -6.354980 3.604865 7.514321 0.001728 0.001183 -0.001434
Al -6.358027 3.615260 -2.730852 -0.000534 0.001000 0.003083
Al -3.210363 -1.885888 2.443512 0.007324 0.002319 0.000054
Ga -3.188779 -1.869693 7.507398 0.000860 0.001284 0.000617
Al -3.171906 -1.874582 -2.733229 -0.000688 -0.000616 -0.000392
Al -1.616165 0.902437 2.431063 0.007957 -0.003067 -0.003077
Ga -1.621793 0.907065 7.497359 0.005285 -0.005960 -0.001794
Al -1.630770 0.892278 -2.720136 0.009438 -0.003950 0.004647
Al -3.208674 3.619035 2.428548 0.014046 -0.000453 0.001255
Al -3.198981 3.618170 7.500569 0.005883 0.001554 -0.001001
Ga -3.192424 3.610567 -2.719159 0.005227 0.004619 0.004238
Ga -0.042483 -1.889510 2.429056 0.010324 0.011313 -0.002073
Ga -0.012905 -1.860241 7.504519 0.004891 0.002313 -0.001245
Al -0.033528 -1.859812 -2.729394 0.007823 0.001323 0.001901
Al -0.034581 1.777696 5.023629 0.000827 0.002866 -0.024675
Al -0.045833 1.779956 -5.272341 0.012627 0.007334 0.007757
Al -0.021428 1.780818 -0.147514 -0.003469 -0.002225 -0.000571
Ga 3.165343 -3.702783 4.971330 -0.005203 0.000475 -0.003767
Al 3.138236 -3.696217 -5.284719 0.007343 0.003200 0.000780
Al 3.159464 -3.698849 -0.186870 -0.003623 -0.000141 0.017865
Ga 1.594571 -0.958962 4.974065 -0.005087 0.001312 -0.006114
Al 1.583922 -0.964698 -5.272602 -0.003301 0.005137 0.000360
Al 1.589812 -0.968033 -0.203305 -0.005863 0.006482 0.017543
Ga 3.132053 1.790405 4.969269 -0.000717 0.003362 -0.001041
Ga 3.112051 1.785810 -5.267373 0.000874 -0.002243 0.001139
Al 3.125577 1.788939 -0.195205 -0.004301 -0.001822 0.017594
Ga 6.302178 -3.687664 4.973259 0.000463 -0.002250 -0.003335
Al 6.287634 -3.690160 -5.258792 -0.002379 -0.000927 0.002406
Ga 6.304946 -3.688964 -0.152907 -0.002786 -0.001577 0.010832
Al 4.736952 -0.950934 4.976634 -0.003498 0.002546 -0.001428
Al 4.729064 -0.971293 -5.277478 -0.003590 0.006277 0.000995
Ga 4.742074 -0.959896 -0.131503 -0.006914 0.002448 0.001668
Al -3.206839 1.795811 4.968153 0.001060 0.001119 -0.000070
Ga -3.182868 1.799364 -5.276584 -0.005413 -0.000416 0.001943
Al -3.208148 1.782766 -0.117064 0.006824 0.004080 -0.007929
Al -0.025964 -3.685373 4.979251 -0.000713 -0.000704 -0.000493
Ga -0.020177 -3.676962 -5.260807 -0.000128 -0.003125 0.002105
Ga -0.021296 -3.686010 -0.142281 0.001585 0.000035 -0.001401
Al -1.606381 -0.952800 4.968185 -0.001566 0.005156 -0.003517
Ga -1.593963 -0.953243 -5.252965 -0.003338 0.005273 0.001034
Al -1.596193 -0.947731 -0.209603 -0.000079 0.007781 0.015925
N 1.532996 0.899616 4.335901 -0.011633 -0.001093 0.004510
N 1.520290 0.869526 -5.875727 -0.008624 -0.010603 -0.003762
N 1.549758 0.879949 -0.795566 0.001174 -0.005324 0.000627
N -0.009643 3.574664 4.341209 -0.003712 -0.013159 -0.004977
N -0.029505 3.602374 -5.862671 0.001523 -0.001241 -0.002151
N -0.031581 3.592688 -0.789981 -0.008952 -0.004744 -0.004546
N 3.188224 -1.864686 4.354016 0.005973 0.006946 -0.009492
N 3.153256 -1.874033 -5.870138 -0.001374 0.000937 -0.000668
N 3.150511 -1.885390 -0.783608 -0.008815 -0.005175 0.005337
N -4.756398 0.876925 4.363184 0.012094 -0.012159 -0.008545
N -4.775949 0.864237 -5.884611 0.003089 -0.014817 -0.006392
N -4.776078 0.909296 -0.765052 0.002193 0.001214 0.013192
N -6.324245 3.627806 4.368557 0.010460 0.004882 -0.015967
N -6.370874 3.623472 -5.853948 -0.008023 0.006809 0.005122
N -6.349362 3.592707 -0.799313 0.001429 -0.009265 -0.006245
N -3.183245 -1.847578 4.372393 0.001619 0.013279 -0.007459
N -3.193561 -1.878154 -5.850971 -0.005708 -0.004427 0.007385
N -3.157496 -1.857825 -0.812699 0.008287 0.004583 -0.001313
N -1.632899 0.898531 4.377874 0.006364 -0.004909 -0.002109
N -1.578077 0.915389 -5.856754 0.000914 -0.008417 -0.001515
N -1.637663 0.896558 -0.783619 0.005816 -0.004202 0.003285
N -3.225482 3.606149 4.364313 -0.002440 -0.004429 -0.006794
N -3.164380 3.636854 -5.886011 0.003084 0.001922 -0.009764
N -3.174359 3.599996 -0.759133 0.010466 -0.004961 0.009784
N -0.048218 -1.877637 4.390660 -0.003061 -0.001353 0.005683
N -0.009475 -1.852122 -5.856768 0.014096 0.008143 0.002440
N -0.024753 -1.846542 -0.799300 0.004535 0.010090 0.000176
N -0.000822 1.806336 1.788282 -0.009134 -0.006014 -0.000079
N 0.022045 1.800807 6.883888 -0.000743 0.002712 0.007905
N -0.023170 1.784154 -3.338500 -0.006061 -0.002601 0.000530
N 3.157759 -3.679252 1.838188 -0.008796 -0.006699 -0.016079
N 3.162553 -3.695546 6.929585 -0.006505 -0.001589 0.011270
N 3.185896 -3.712130 -3.376460 -0.000308 -0.007345 -0.001285
N 1.617073 -0.980546 1.818398 -0.010658 0.019217 -0.016333
N 1.622559 -0.946874 6.925476 -0.002742 0.008551 0.006894
N 1.569647 -0.959502 -3.349919 -0.016135 0.009439 -0.000823
N 3.142522 1.811195 1.837685 0.002443 -0.005231 -0.017727
N 3.127698 1.768983 6.926745 -0.000174 -0.011554 0.004078
N 3.107642 1.805250 -3.318122 -0.008719 0.002874 0.008363
N 6.317324 -3.726037 1.892474 -0.001079 0.016744 -0.016095
N 6.271087 -3.706586 6.918662 -0.006610 -0.003173 0.002524
N 6.299114 -3.690814 -3.333778 0.000306 0.000350 0.000871
N 4.643811 -1.057558 1.856425 0.052337 0.045542 -0.011041
N 4.709349 -0.949952 6.900738 -0.010749 0.011236 -0.004827
N 4.756269 -0.976067 -3.362647 0.008163 0.004014 -0.004319
N -3.193656 1.802906 1.791988 -0.000909 -0.006445 0.005561
N -3.222036 1.809922 6.897745 -0.008695 0.004239 -0.005225
N -3.182543 1.786584 -3.329329 0.009596 -0.006860 0.001543
N -0.056860 -3.757113 1.836532 0.025938 0.015232 -0.011229
N -0.009336 -3.694226 6.896549 0.009359 -0.004987 -0.008059
N -0.042363 -3.675315 -3.313743 -0.008581 0.005278 0.008658
N -1.626921 -0.935142 1.814417 -0.015032 0.003843 -0.015164
N -1.599027 -0.956851 6.884926 -0.000754 0.007539 -0.010941
N -1.598991 -0.957126 -3.303485 -0.001801 0.006800 0.012699
