108
Energy=-573990.754557 Lattice="9.412461 0.000000 0.000000 -4.707216 8.151907 0.000000 -0.000819 0.000460 15.094695" Stress="-0.000001 -0.000000 -0.000000 -0.000000 -0.000000 0.000000 -0.000000 0.000000 -0.000002" Properties=species:S:1:pos:R:3:forces:R:3
Al 1.545052 0.867115 2.365772 -0.000046 0.000028 -0.000017
Al 1.544944 0.867020 7.396566 -0.000014 0.000006 -0.000070
Al 1.548171 0.867012 -2.667362 -0.000009 0.000017 0.000002
Al -0.022340 3.583608 2.366244 -0.000064 0.000042 -0.000023
Al -0.023255 3.583618 7.396840 -0.000036 -0.000000 -0.000075
Al -0.022975 3.584815 -2.667579 -0.000050 -0.000015 -0.000082
Al 3.108155 -1.853400 2.379994 0.000481 0.000074 0.000102
Al 3.114714 -1.850660 7.395746 -0.000036 -0.000027 -0.000085
Al 3.110808 -1.854655 -2.677798 -0.000039 0.000028 -0.000080
Al -4.728796 0.874740 2.380864 0.000090 -0.000659 -0.000350
Al -4.729159 0.867313 7.395514 -0.000027 0.000013 -0.000095
Al -4.729702 0.873404 -2.678465 -0.000134 -0.000073 0.000167
Al -6.297973 3.585210 2.365422 -0.000066 0.000021 0.000011
Al -6.302449 3.582205 7.386119 -0.000036 0.000003 -0.000077
Al -6.305133 3.578483 -2.652791 -0.000102 -0.000049 -0.000100
Al -3.157682 -1.857067 2.370860 -0.000228 0.000045 -0.000070
Al -3.166923 -1.854721 7.409926 -0.000032 -0.000034 -0.000100
Al -3.153727 -1.853680 -2.678640 -0.000097 -0.000021 -0.000081
Al -1.591379 0.873116 2.355858 -0.000190 0.000035 -0.000079
Al -1.591643 0.875429 7.410959 -0.000056 -0.000026 -0.000082
Al -1.591462 0.866536 -2.668341 -0.000055 -0.000039 -0.000126
Al -3.161625 3.584704 2.365926 -0.000063 -0.000164 -0.000062
Al -3.156503 3.582139 7.386384 -0.000080 -0.000032 -0.000076
Al -3.151616 3.580374 -2.653036 -0.000096 -0.000025 -0.000139
Al -0.017648 -1.852976 2.354535 -0.000156 -0.000118 0.000074
Al -0.015593 -1.849454 7.400778 -0.000063 -0.000065 -0.000044
Al -0.021702 -1.841323 -2.653170 -0.000095 -0.000035 -0.000006
Al -0.019226 1.779831 4.881985 -0.000064 0.000073 -0.000043
Al -0.020937 1.773408 -5.178846 -0.000019 0.000060 -0.000069
Al -0.021265 1.773248 -0.156123 0.000037 0.000027 -0.000043
Al 3.116024 -3.662798 4.880577 -0.000030 0.000047 -0.000066
Al 3.124359 -3.664093 -5.185085 -0.000013 0.000037 -0.000085
Al 3.113303 -3.669141 -0.146235 0.000012 0.000103 -0.000006
Al 1.554088 -0.943603 4.882920 -0.000050 -0.000017 0.000000
Al 1.551821 -0.936629 -5.180718 -0.000033 0.000007 -0.000044
Al 1.541509 -0.942984 -0.148984 -0.000073 0.000094 -0.000433
Al 3.113023 1.772713 4.880794 -0.000087 0.000031 -0.000069
Al 3.109639 1.766338 -5.185628 -0.000058 0.000020 -0.000068
Al 3.110167 1.778578 -0.144607 -0.000009 -0.000244 -0.000137
Al 6.247702 -3.669905 4.883317 -0.000087 0.000017 -0.000073
Al 6.244911 -3.665801 -5.181105 -0.000049 -0.000004 -0.000072
Al 6.255540 -3.669969 -0.149676 -0.000092 0.000033 0.000009
Al 4.675728 -0.944521 4.884062 -0.000061 -0.000079 -0.000197
Al 4.682877 -0.944439 -5.181297 -0.000065 -0.000040 -0.000095
Ga 4.682630 -0.945428 -0.150812 0.000041 0.000063 0.000653
Al -3.163627 1.780175 4.883095 -0.000050 0.000016 -0.000148
Al -3.155655 1.767717 -5.180985 -0.000064 0.000011 -0.000153
Al -3.157064 1.778965 -0.151892 -0.000366 -0.000231 0.000841
Al -0.018236 -3.668368 4.880918 -0.000087 -0.000008 -0.000039
Ga -0.021149 -3.664425 -5.171613 -0.000065 -0.000011 -0.000059
Al -0.021951 -3.663532 -0.155351 -0.000105 0.000064 -0.000239
Ga -1.590344 -0.943158 4.888132 -0.000154 -0.000029 -0.000035
Al -1.592940 -0.937141 -5.184123 -0.000077 -0.000029 -0.000092
Al -1.584341 -0.943259 -0.147589 -0.000083 -0.000066 -0.000212
N 1.544074 0.867023 4.284317 0.000139 0.000013 0.000035
N 1.544817 0.867206 -5.780979 0.000080 -0.000004 0.000059
N 1.548223 0.867053 -0.748727 0.000040 -0.000011 0.000042
N -0.023550 3.583648 4.282851 0.000092 -0.000026 0.000088
N -0.022275 3.581953 -5.781023 0.000056 -0.000022 0.000086
N -0.023743 3.585450 -0.749360 0.000102 -0.000012 0.000060
N 3.112302 -1.852114 4.292728 0.000036 -0.000033 0.000141
N 3.115164 -1.851128 -5.778462 0.000059 -0.000012 0.000084
N 3.072953 -1.876862 -0.768778 -0.000017 -0.000018 0.000087
N -4.729214 0.870036 4.294580 0.000087 0.000014 0.000194
N -4.728464 0.867314 -5.778528 0.000069 0.000028 0.000107
N -4.731537 0.915267 -0.768421 0.000423 0.000474 -0.000123
N -6.298842 3.585006 4.285736 0.000102 -0.000026 0.000075
N -6.338632 3.560536 -5.799644 0.000081 0.000010 0.000069
N -6.301820 3.580822 -0.740259 0.000144 -0.000043 0.000003
N -3.199192 -1.876273 4.275339 0.000122 0.000023 0.000225
N -3.162323 -1.853491 -5.768579 0.000058 0.000001 0.000092
N -3.117264 -1.875493 -0.767645 0.000084 0.000031 0.000008
N -1.591769 0.916493 4.264563 0.000104 -0.000048 0.000090
N -1.590000 0.871720 -5.771021 0.000039 -0.000017 0.000086
N -1.592340 0.866764 -0.748224 -0.000022 -0.000049 0.000087
N -3.160803 3.584742 4.284313 0.000059 -0.000042 0.000113
N -3.119323 3.560221 -5.799506 0.000002 -0.000033 0.000077
N -3.155887 3.582883 -0.741055 -0.000081 -0.000121 0.000037
N 0.019263 -1.874031 4.265681 0.000073 -0.000033 -0.000022
N -0.017976 -1.805832 -5.789050 0.000047 -0.000082 0.000070
N -0.022177 -1.846259 -0.738540 0.000052 -0.000046 -0.000081
N -0.020150 1.774405 1.762221 0.000039 0.000014 0.000010
N -0.023799 1.772509 6.800502 0.000064 0.000063 0.000074
N -0.021494 1.772804 -3.260212 0.000073 0.000087 0.000044
N 3.115660 -3.661076 1.773451 0.000099 0.000019 0.000043
N 3.117744 -3.661154 6.796514 0.000087 0.000039 0.000079
N 3.115669 -3.665652 -3.269359 0.000106 0.000031 0.000048
N 1.549573 -0.942788 1.766611 0.000227 0.000089 0.000301
N 1.547686 -0.943335 6.798025 0.000041 0.000052 0.000057
N 1.544950 -0.943035 -3.265591 0.000056 0.000029 0.000026
N 3.114881 1.772380 1.774845 0.000011 -0.000064 0.000008
N 3.113543 1.770353 6.796174 0.000008 0.000013 0.000100
N 3.112165 1.774599 -3.269935 0.000025 0.000070 0.000056
N 6.252397 -3.663815 1.767429 0.000043 -0.000088 -0.000008
N 6.249803 -3.660731 6.798129 0.000027 0.000002 0.000093
N 6.253566 -3.666487 -3.266149 0.000060 0.000009 0.000078
N 4.682632 -0.944716 1.828051 -0.000488 0.000671 -0.000662
N 4.683859 -0.944881 6.803622 0.000029 0.000000 0.000083
N 4.683681 -0.944482 -3.262195 0.000041 -0.000021 0.000062
N -3.164130 1.773872 1.768611 0.000087 -0.000020 -0.000763
N -3.159770 1.770299 6.797878 0.000030 0.000015 0.000102
N -3.158036 1.775111 -3.266161 0.000026 0.000046 0.000181
N -0.022818 -3.664699 1.763745 0.000074 0.000048 0.000261
N -0.022431 -3.661236 6.800266 0.000027 0.000024 0.000074
N -0.021830 -3.662727 -3.196646 0.000050 0.000016 0.000053
N -1.592618 -0.944398 1.772272 0.000120 0.000057 0.000221
N -1.593565 -0.943122 6.860239 0.000019 0.000015 0.000077
N -1.587631 -0.943293 -3.267196 0.000041 -0.000005 0.000052
