108
Energy=-1581051.234258 Lattice="9.534275 0.000000 0.000000 -4.771213 8.258192 0.000000 0.002388 0.001365 15.388317" Stress="-0.000000 -0.000001 0.000000 -0.000001 0.000002 0.000000 0.000000 0.000000 -0.000010" Properties=species:S:1:pos:R:3:forces:R:3
Al 1.556801 0.871001 2.404514 0.000280 -0.000155 -0.000051
Al 1.550413 0.870188 7.544015 0.000092 0.000070 0.000107
Al 1.551472 0.870221 -2.704981 0.000233 0.000130 0.000067
Al -0.042681 3.624462 2.394039 0.000410 -0.000351 0.000328
Al -0.032096 3.613233 7.541356 0.000011 0.000049 0.000130
Al -0.034740 3.619321 -2.689360 -0.000280 0.000168 -0.000457
Al 3.145029 -1.881817 2.375955 0.000277 0.000476 -0.000090
Al 3.140690 -1.875388 7.551930 0.000041 0.000011 0.000170
Ga 3.145058 -1.876638 -2.686028 0.000022 -0.000076 0.000063
Ga -4.792906 0.878317 2.398660 0.000010 -0.000003 0.000168
Ga -4.782102 0.885346 7.547968 0.000074 0.000055 0.000073
Al -4.780899 0.880138 -2.691274 0.000095 0.000026 -0.000176
Ga -6.393473 3.618588 2.381631 0.000011 -0.000079 0.000098
Ga -6.384429 3.625785 7.561435 -0.000037 0.000035 0.000073
Ga -6.386421 3.626346 -2.683644 0.000145 -0.000038 -0.000053
Ga -3.203631 -1.869349 2.383119 0.000041 -0.000016 0.000033
Ga -3.205551 -1.877684 7.542834 -0.000034 -0.000020 0.000122
Al -3.196782 -1.867621 -2.668394 -0.000146 0.000333 -0.000027
Al -1.601055 0.886554 2.422538 0.000047 0.000131 -0.000088
Ga -1.600888 0.905674 7.544930 0.000045 -0.000079 0.000181
Al -1.609983 0.883827 -2.721431 -0.000050 0.000029 -0.000027
Al -3.174036 3.630437 2.406138 -0.000124 -0.000140 0.000200
Al -3.186363 3.623593 7.547794 -0.000016 -0.000015 0.000152
Al -3.188826 3.620500 -2.699355 -0.000160 0.000154 -0.000289
Ga -0.008272 -1.849145 2.410204 -0.000012 -0.000007 0.000162
Ga 0.003447 -1.862044 7.534974 -0.000056 -0.000084 0.000105
Al -0.017472 -1.853763 -2.689997 0.000006 -0.000493 -0.000307
Al -0.025353 1.781495 4.951821 0.000015 -0.000084 -0.000207
Al -0.022110 1.789936 -5.258281 -0.000030 0.000138 0.000073
Ga -0.016138 1.791269 -0.147396 0.000064 -0.000093 0.000080
Ga 3.155611 -3.713473 4.976453 0.000033 -0.000012 0.000167
Ga 3.154057 -3.725792 -5.284539 -0.000016 0.000027 0.000181
Al 3.164696 -3.702205 -0.138915 0.000361 0.000073 -0.000295
Al 1.570558 -0.941970 4.967403 -0.000684 -0.000078 -0.000405
Al 1.560574 -0.943508 -5.265384 -0.000119 0.000011 -0.000090
Al 1.574331 -0.948089 -0.147576 -0.000263 0.000213 -0.000031
Ga 3.137120 1.778486 4.983483 -0.000028 -0.000005 0.000043
Ga 3.139626 1.771739 -5.258759 0.000035 0.000016 0.000072
Al 3.143416 1.774325 -0.161921 -0.000181 -0.000357 -0.000098
Ga 6.323911 -3.714771 4.971654 -0.000000 0.000006 -0.000012
Ga 6.314142 -3.718848 -5.244334 -0.000027 -0.000018 0.000068
Al 6.316155 -3.700862 -0.160331 0.000024 -0.000191 0.000319
Ga 4.736083 -0.958540 4.970227 0.000042 -0.000022 0.000060
Ga 4.737682 -0.952155 -5.248137 -0.000085 0.000026 0.000191
Al 4.740366 -0.960205 -0.161046 -0.000054 -0.000374 -0.000146
Al -3.178428 1.796283 4.955675 -0.000039 -0.000021 0.000122
Al -3.193998 1.802006 -5.241992 -0.000106 0.000021 0.000141
Ga -3.195470 1.789828 -0.156003 0.000109 -0.000090 0.000084
Ga -0.004264 -3.708135 4.970085 -0.000048 0.000025 0.000067
Ga 0.000477 -3.709597 -5.248238 -0.000023 0.000006 0.000180
Ga -0.010346 -3.696206 -0.156807 0.000008 -0.000029 -0.000005
Al -1.601223 -0.931406 4.967168 0.000009 -0.000015 0.000089
Ga -1.602314 -0.943790 -5.236683 -0.000033 -0.000107 0.000106
Al -1.610851 -0.951575 -0.174079 -0.000020 0.000035 0.000136
N 1.524765 0.850824 4.323858 -0.000071 0.000057 0.000121
N 1.511079 0.850693 -5.912988 0.000111 -0.000121 -0.000090
N 1.598553 0.850184 -0.792230 -0.000127 -0.000002 -0.000167
N -0.030160 3.583082 4.311780 -0.000151 0.000167 -0.000338
N -0.024144 3.571092 -5.928565 0.000008 -0.000056 -0.000068
N -0.033526 3.671372 -0.775907 0.000017 0.000252 0.000350
N 3.110311 -1.855513 4.300678 0.000201 -0.000170 -0.000052
N 3.108464 -1.849197 -5.911492 0.000111 -0.000053 -0.000171
N 3.149356 -1.876513 -0.705565 0.000110 -0.000422 0.000003
N -4.751070 0.903096 4.372295 0.000097 0.000057 -0.000095
N -4.742881 0.903998 -5.863643 0.000131 -0.000004 -0.000159
N -4.826757 0.857122 -0.775197 0.000133 0.000245 0.000241
N -6.381298 3.625742 4.350293 0.000013 0.000034 -0.000068
N -6.381845 3.629900 -5.856411 0.000009 0.000023 -0.000107
N -6.423228 3.605415 -0.709995 -0.000100 0.000392 -0.000001
N -3.155719 -1.848811 4.361435 -0.000031 0.000028 -0.000069
N -3.196520 -1.873656 -5.878954 0.000028 0.000021 -0.000125
N -3.199319 -1.871598 -0.748801 0.000035 -0.000127 -0.000024
N -1.608609 0.877878 4.351039 0.000048 0.000010 -0.000149
N -1.613891 0.928705 -5.845718 -0.000008 -0.000003 -0.000115
N -1.607351 0.839783 -0.815711 0.000004 0.000043 0.000055
N -3.193147 3.586392 4.314240 0.000088 -0.000020 -0.000174
N -3.205790 3.572806 -5.924257 0.000086 -0.000038 -0.000126
N -3.152476 3.652750 -0.795072 -0.000027 0.000059 0.000082
N -0.018874 -1.821257 4.393524 0.000265 0.000173 0.000034
N 0.016458 -1.849378 -5.873728 0.000028 0.000082 -0.000135
N -0.013873 -1.818573 -0.774505 0.000127 0.000030 -0.000051
N -0.022791 1.791464 1.838657 -0.000530 0.000300 0.000034
N 0.021913 1.816925 6.883449 -0.000037 0.000045 0.000009
N -0.018128 1.799772 -3.323669 0.000022 0.000020 -0.000019
N 3.158233 -3.712427 1.786332 -0.000005 0.000064 -0.000075
N 3.160378 -3.707735 6.978599 -0.000059 0.000062 -0.000106
N 3.159589 -3.756430 -3.303842 0.000160 -0.000140 0.000113
N 1.605572 -0.927236 1.764597 -0.000044 -0.000028 0.000085
N 1.618038 -0.927347 6.891109 -0.000010 0.000048 0.000093
N 1.527368 -0.932327 -3.345900 -0.000037 0.000159 0.000322
N 3.107717 1.760728 1.749341 0.000102 0.000014 0.000033
N 3.108867 1.767247 6.956894 -0.000068 -0.000060 -0.000032
N 3.151314 1.740943 -3.280420 -0.000278 0.000020 0.000002
N 6.283250 -3.731883 1.751236 -0.000189 0.000063 -0.000405
N 6.290526 -3.736919 6.942383 -0.000034 0.000005 -0.000092
N 6.285455 -3.683135 -3.266048 0.000003 -0.000201 0.000060
N 4.703308 -0.977452 1.749182 -0.000277 -0.000204 0.000318
N 4.697829 -0.982031 6.944747 -0.000137 -0.000015 -0.000121
N 4.783127 -0.936476 -3.267237 0.000175 -0.000336 0.000022
N -3.153196 1.817273 1.820456 0.000050 0.000031 -0.000048
N -3.193761 1.845164 6.872707 -0.000014 0.000025 -0.000133
N -3.204279 1.798999 -3.313610 0.000066 0.000018 -0.000036
N 0.028346 -3.726428 1.815572 -0.000047 0.000050 -0.000145
N 0.026095 -3.734926 6.947901 0.000016 0.000013 -0.000079
N 0.024307 -3.682623 -3.264088 0.000153 0.000013 0.000162
N -1.607249 -0.899751 1.744642 0.000050 0.000033 -0.000059
N -1.608132 -0.945166 6.879280 -0.000119 0.000054 -0.000101
N -1.613713 -0.960413 -3.254628 0.000085 0.000085 0.000038
