108
Energy=-2.405010e+06 Lattice="9.650396e+00 0.000000e+00 0.000000e+00 -4.841400e+00 8.343803e+00 0.000000e+00 -6.102892e-02 3.574784e-02 1.566975e+01" Stress="3.074221e-03 -5.280592e-04 -2.548926e-03 -5.398616e-04 1.539459e-03 1.448746e-03 -2.556069e-03 1.454922e-03 6.622381e-03" Properties=species:S:1:pos:R:3:forces:R:3 Config_type=AlGaN_super3_43_2_6.xyz
Al 1.581500e+00 9.006900e-01 2.489120e+00 5.967795e-04 1.454447e-04 1.807028e-03
Al 1.551275e+00 8.935570e-01 7.651672e+00 1.655212e-03 4.409389e-04 1.517954e-03
Ga 1.599094e+00 8.703089e-01 -2.761978e+00 9.073020e-04 4.033880e-04 6.929635e-04
Al -1.913767e-02 3.672871e+00 2.489011e+00 7.369572e-04 -9.462840e-05 1.969701e-04
Ga -4.353929e-02 3.687230e+00 7.668942e+00 5.921996e-04 -2.193596e-04 9.707897e-04
Ga -1.480565e-02 3.659465e+00 -2.762338e+00 6.469966e-04 -3.442636e-04 1.218720e-03
Ga 3.201066e+00 -1.871792e+00 2.502871e+00 4.805802e-04 -8.840997e-04 -4.323928e-04
Ga 3.166672e+00 -1.859311e+00 7.655280e+00 8.589593e-04 -3.621377e-04 8.348518e-04
Ga 3.220367e+00 -1.897781e+00 -2.767256e+00 6.254097e-04 -7.626990e-04 4.159712e-04
Ga -4.871159e+00 8.944334e-01 2.505404e+00 1.145535e-03 -5.516800e-05 -7.649552e-04
Ga -4.895297e+00 8.951048e-01 7.658254e+00 3.915129e-04 -1.056071e-04 8.340286e-04
Al -4.841847e+00 8.639630e-01 -2.773181e+00 4.535698e-04 6.930892e-04 4.081569e-04
Ga -6.487062e+00 3.669993e+00 2.503234e+00 7.385382e-04 2.698646e-04 -1.010546e-03
Ga -6.509162e+00 3.692465e+00 7.655079e+00 2.641207e-04 -7.209994e-04 4.564248e-04
Ga -6.455889e+00 3.654790e+00 -2.766664e+00 -6.378643e-05 -2.240929e-04 8.195506e-05
Ga -3.247446e+00 -1.889190e+00 2.499002e+00 1.053484e-03 -6.976801e-04 -4.512050e-04
Al -3.263117e+00 -1.878917e+00 7.650739e+00 5.411936e-05 -4.048114e-04 1.025429e-03
Al -3.228442e+00 -1.897581e+00 -2.772059e+00 3.114396e-04 -8.238661e-04 1.064219e-03
Ga -1.629407e+00 9.087400e-01 2.484033e+00 4.008140e-04 -1.581978e-03 -1.007476e-03
Ga -1.656829e+00 8.950248e-01 7.685519e+00 7.846248e-04 -3.397445e-04 -4.099168e-04
Ga -1.639705e+00 8.668806e-01 -2.759617e+00 1.273951e-03 -3.135957e-04 4.377276e-04
Ga -3.243158e+00 3.682532e+00 2.483896e+00 3.186660e-04 -6.548593e-04 -8.820567e-04
Ga -3.281439e+00 3.698770e+00 7.687364e+00 3.710327e-05 -1.082566e-03 -2.106135e-06
Ga -3.245637e+00 3.653552e+00 -2.757201e+00 5.337238e-04 -6.360209e-04 -4.934107e-05
Ga -1.208455e-02 -1.863328e+00 2.495673e+00 2.764710e-04 -1.412434e-03 -3.578107e-04
Al -4.737141e-02 -1.856855e+00 7.666399e+00 6.597267e-04 -8.671770e-04 8.591933e-05
Ga -1.904076e-02 -1.899950e+00 -2.765419e+00 5.184264e-04 -9.978797e-04 6.528062e-04
Ga -1.406647e-02 1.827838e+00 5.065329e+00 -1.621268e-04 8.116813e-04 1.392428e-03
Ga 6.403430e-03 1.790208e+00 -5.392250e+00 1.018926e-04 9.192745e-04 7.037940e-04
Ga -1.824897e-02 1.806659e+00 -1.136832e-01 -2.122698e-03 9.937750e-04 -1.344950e-04
Ga 3.201210e+00 -3.719607e+00 5.071896e+00 1.591328e-04 -2.158614e-05 1.938848e-04
Ga 3.227556e+00 -3.764498e+00 -5.379789e+00 1.886628e-04 7.278512e-04 9.483459e-05
Ga 3.198821e+00 -3.757343e+00 -1.216495e-01 1.694268e-03 6.969088e-04 6.182483e-04
Al 1.580540e+00 -9.305826e-01 5.088235e+00 5.293759e-04 -3.092625e-05 6.427465e-04
Ga 1.610198e+00 -9.793025e-01 -5.406853e+00 -7.225482e-04 1.905876e-04 8.983324e-04
Ga 1.585071e+00 -9.704547e-01 -1.270482e-01 4.053626e-04 -6.690660e-04 3.361700e-04
Al 3.153497e+00 1.813868e+00 5.077419e+00 2.698688e-04 6.329378e-04 2.259265e-04
Ga 3.205912e+00 1.789124e+00 -5.390133e+00 -4.552744e-04 5.574387e-04 9.367159e-04
Ga 3.184984e+00 1.797066e+00 -1.397561e-01 1.397726e-03 1.206325e-03 8.400937e-04
Al 6.391459e+00 -3.727675e+00 5.077380e+00 5.815423e-04 -4.721039e-04 5.997792e-04
Ga 6.440038e+00 -3.750343e+00 -5.384812e+00 1.426895e-04 4.180896e-05 8.996044e-04
Ga 6.409790e+00 -3.747406e+00 -1.412382e-01 5.138870e-04 4.163807e-04 5.583639e-04
Al 4.782752e+00 -9.507294e-01 5.092458e+00 2.680332e-04 -1.013318e-03 -9.215921e-05
Ga 4.841939e+00 -9.843275e-01 -5.380047e+00 -4.149351e-04 -6.948665e-04 7.995639e-04
Ga 4.806134e+00 -9.701745e-01 -1.623412e-01 5.750497e-04 -2.075102e-04 3.988345e-04
Ga -3.277358e+00 1.824221e+00 5.085998e+00 -1.467109e-04 3.015667e-04 4.878734e-04
Ga -3.230638e+00 1.796208e+00 -5.369282e+00 -1.483356e-04 4.143980e-04 7.654253e-04
Ga -3.265412e+00 1.802085e+00 -1.500008e-01 8.419224e-04 -2.454430e-05 7.430103e-04
Ga -4.158820e-02 -3.721829e+00 5.093079e+00 -1.806323e-04 -3.726409e-04 2.202114e-04
Ga 4.159804e-03 -3.752977e+00 -5.395079e+00 -3.905324e-04 2.546029e-04 5.941091e-04
Ga -2.669618e-02 -3.751238e+00 -1.319022e-01 2.438152e-04 2.746100e-04 -4.727425e-05
Ga -1.649661e+00 -9.611355e-01 5.103588e+00 -4.792835e-04 -2.803029e-04 3.016970e-04
Ga -1.610258e+00 -9.928041e-01 -5.399334e+00 -5.929529e-04 -5.611883e-04 1.120953e-03
Ga -1.641463e+00 -9.792991e-01 -1.444032e-01 -4.359372e-04 1.036645e-04 1.287938e-04
N 1.607393e+00 8.739222e-01 4.425686e+00 9.079861e-04 6.223259e-04 -1.630891e-03
N 1.606334e+00 8.692408e-01 -6.088939e+00 8.541483e-04 4.268431e-04 -5.770849e-04
N 1.575552e+00 8.765431e-01 -7.796903e-01 5.965862e-04 9.143836e-04 -5.433450e-04
N -2.374538e-03 3.707317e+00 4.416067e+00 4.748407e-04 -2.743736e-04 -7.689563e-04
N -2.715841e-03 3.653301e+00 -6.018918e+00 2.079875e-04 -2.278447e-04 -4.837174e-04
N -3.499118e-02 3.657961e+00 -7.752097e-01 -2.565656e-05 -1.486138e-04 -7.544102e-04
N 3.180005e+00 -1.821480e+00 4.497634e+00 4.009247e-04 -1.219772e-04 -4.512053e-04
N 3.226846e+00 -1.904723e+00 -6.026131e+00 5.036684e-04 -2.659021e-04 -3.293292e-04
N 3.189399e+00 -1.902303e+00 -7.808459e-01 5.016025e-04 -3.551172e-04 7.125406e-04
N -4.915460e+00 8.745872e-01 4.497177e+00 -7.688944e-05 1.005399e-03 -9.059614e-04
N -4.833347e+00 8.673975e-01 -6.028697e+00 3.326133e-04 6.728680e-04 -7.404020e-04
N -4.864474e+00 8.782263e-01 -8.482035e-01 5.859999e-04 8.288397e-04 1.244356e-03
N -6.524088e+00 3.660660e+00 4.499726e+00 -3.571628e-04 -4.443929e-04 -2.757817e-04
N -6.447185e+00 3.651280e+00 -6.025643e+00 -1.701921e-04 -2.127670e-04 -6.103010e-04
N -6.471942e+00 3.658444e+00 -7.789743e-01 2.862175e-04 1.398492e-04 1.995175e-04
N -3.294513e+00 -1.897204e+00 4.488457e+00 -3.144344e-04 -5.035874e-05 -4.955467e-04
N -3.216827e+00 -1.909377e+00 -6.091047e+00 6.429457e-06 -2.118119e-04 -2.377032e-04
N -3.240763e+00 -1.901413e+00 -8.463063e-01 5.833436e-04 -1.706282e-04 1.238069e-03
N -1.652301e+00 9.034476e-01 4.462026e+00 4.389827e-04 -2.899918e-04 -8.727922e-04
N -1.615950e+00 8.744470e-01 -6.005972e+00 1.158097e-05 -4.102025e-05 -4.798176e-04
N -1.637503e+00 8.830728e-01 -7.663615e-01 9.749737e-04 8.893485e-04 -1.505561e-03
N -3.266154e+00 3.689875e+00 4.456032e+00 -2.434627e-04 -4.321899e-04 -4.316858e-04
N -3.224372e+00 3.655079e+00 -6.007035e+00 -3.849208e-04 -8.728456e-04 -3.936903e-04
N -3.254064e+00 3.666884e+00 -7.728408e-01 -8.277163e-05 -2.069153e-04 5.779866e-04
N 1.035889e-02 -1.841299e+00 4.478280e+00 -6.574526e-04 -1.121024e-03 -7.090214e-04
N 4.916090e-03 -1.900887e+00 -6.080579e+00 1.842298e-04 -7.730334e-04 8.672946e-05
N -2.346584e-02 -1.894619e+00 -7.801325e-01 4.877230e-04 -7.820173e-04 1.434426e-04
N 1.661066e-02 1.844400e+00 1.889538e+00 1.078555e-03 4.536486e-04 5.923055e-04
N -9.211759e-03 1.804817e+00 7.055035e+00 -1.128285e-03 1.084231e-03 -8.826382e-04
N -1.073121e-02 1.792169e+00 -3.405192e+00 -9.746377e-04 1.013840e-03 -6.769625e-04
N 3.255240e+00 -3.760692e+00 1.882560e+00 -2.518297e-03 9.097368e-04 -2.065953e-03
N 3.178592e+00 -3.734724e+00 7.046081e+00 3.256445e-05 9.782461e-04 -6.236395e-04
N 3.214299e+00 -3.765687e+00 -3.399586e+00 -3.589843e-04 1.108120e-03 -2.933588e-04
N 1.599267e+00 -9.090658e-01 1.863985e+00 -1.800694e-03 2.143737e-04 -5.589669e-04
N 1.521455e+00 -9.221373e-01 7.023886e+00 -7.201931e-04 -1.354735e-04 -8.186222e-04
N 1.601713e+00 -9.836786e-01 -3.418722e+00 -6.478818e-04 4.133934e-04 -6.733524e-04
N 3.152584e+00 1.798189e+00 1.860438e+00 -1.747047e-03 1.611464e-06 -4.273798e-04
N 3.114446e+00 1.804779e+00 7.003570e+00 -1.820937e-04 3.381313e-04 -3.400393e-04
N 3.240574e+00 1.771920e+00 -3.394532e+00 -3.982649e-04 5.269006e-04 -5.150054e-04
N 6.379236e+00 -3.758144e+00 1.855331e+00 -5.116883e-04 -1.236997e-04 -1.946219e-04
N 6.385387e+00 -3.683511e+00 7.000889e+00 1.597440e-04 3.118007e-04 -8.104581e-04
N 6.430906e+00 -3.711032e+00 -3.390366e+00 -2.519363e-04 5.129069e-04 -6.795442e-04
N 4.812747e+00 -9.543415e-01 1.829517e+00 -1.794100e-03 -2.021108e-04 5.143033e-05
N 4.822400e+00 -9.735693e-01 7.008817e+00 -2.753512e-04 -2.775647e-05 -4.863078e-05
N 4.865409e+00 -9.576756e-01 -3.375437e+00 -8.791098e-04 -3.309750e-04 -9.547531e-04
N -3.252294e+00 1.818168e+00 1.844430e+00 -2.104194e-03 2.980304e-04 -6.586999e-04
N -3.270977e+00 1.832786e+00 7.056454e+00 -5.343337e-04 4.169737e-04 -7.156588e-05
N -3.275179e+00 1.776150e+00 -3.379547e+00 -8.317268e-04 5.474199e-04 -1.817814e-04
N -2.010777e-02 -3.734065e+00 1.858018e+00 -1.836574e-03 -2.944134e-04 5.489426e-05
N -4.361671e-02 -3.678312e+00 7.071913e+00 -5.721029e-04 3.045114e-04 -8.667805e-05
N -4.314510e-03 -3.757386e+00 -3.409906e+00 -7.297978e-04 3.150787e-04 -5.172167e-04
N -1.629908e+00 -9.608899e-01 1.845265e+00 -2.071931e-03 -1.934090e-04 1.813252e-04
N -1.653945e+00 -9.961565e-01 7.088354e+00 -1.090893e-03 3.444394e-06 -5.012552e-04
N -1.656436e+00 -1.008358e+00 -3.399942e+00 -1.251339e-03 4.955910e-04 -8.658427e-04
