108
Energy=-1077519.146633 Lattice="9.474548 0.000000 0.000000 -4.740963 8.201740 0.000000 -0.000808 0.003105 15.290458" Stress="-0.000026 0.000020 -0.000002 0.000020 -0.000004 0.000002 -0.000002 0.000002 0.000027" Properties=species:S:1:pos:R:3:forces:R:3
Al 1.556379 0.888192 2.440230 -0.000964 -0.009676 -0.006698
Al 1.556360 0.890651 7.501821 -0.001684 -0.011145 0.000044
Al 1.558951 0.884487 -2.731318 0.000237 -0.009741 0.002540
Al -0.007659 3.599712 2.463058 -0.003339 0.001564 -0.012202
Al -0.013649 3.611255 7.503090 -0.000516 -0.002343 0.000959
Al -0.020529 3.600164 -2.736806 -0.000029 0.000255 0.000718
Al 3.158831 -1.868890 2.449919 0.000476 -0.002336 -0.008002
Al 3.161898 -1.872001 7.503323 -0.001843 0.001433 0.000243
Al 3.156901 -1.879753 -2.747039 -0.002077 0.000588 0.002294
Al -4.782207 0.890048 2.450349 0.003115 -0.011839 -0.006056
Al -4.783403 0.893518 7.510860 0.003607 -0.010400 -0.000009
Al -4.786727 0.889765 -2.752053 0.001935 -0.008284 0.001950
Al -6.348050 3.598584 2.437085 -0.001675 0.003102 -0.000331
Ga -6.347893 3.609338 7.523131 -0.000222 0.000008 0.001311
Ga -6.347341 3.604109 -2.748576 0.001752 -0.000284 0.004945
Ga -3.171930 -1.879206 2.467455 -0.001937 0.000999 -0.006051
Al -3.178137 -1.867819 7.503081 0.000371 0.002427 -0.000718
Ga -3.174932 -1.877092 -2.753541 0.000722 0.001743 0.000261
Ga -1.621690 0.894980 2.450237 0.009302 -0.006034 -0.009955
Al -1.639980 0.897815 7.511511 0.010318 -0.006636 -0.003101
Al -1.632693 0.894268 -2.743454 0.010466 -0.005868 -0.001825
Ga -3.215705 3.618743 2.433609 0.012902 0.004876 -0.005472
Al -3.206867 3.617643 7.514380 0.009137 0.003333 -0.000453
Al -3.210406 3.617543 -2.759211 0.008763 0.003649 0.005376
Al -0.036797 -1.863588 2.453829 0.011105 0.000324 -0.006894
Al -0.038515 -1.864655 7.503271 0.009120 0.005833 -0.000083
Al -0.035328 -1.874535 -2.750168 0.011283 0.003272 0.003154
Al -0.019609 1.792371 4.984217 0.000135 -0.001909 0.002640
Ga -0.005390 1.788998 -5.268796 -0.009365 -0.004633 0.000086
Al -0.020383 1.791172 -0.175800 -0.002026 -0.001950 0.003846
Ga 3.169755 -3.680563 4.987673 -0.010467 -0.003402 -0.001091
Al 3.166388 -3.686006 -5.269644 -0.008433 -0.003453 0.000585
Al 3.163645 -3.687289 -0.193043 -0.005465 -0.002297 0.011005
Al 1.593506 -0.966326 4.981380 -0.010329 0.004848 -0.001778
Al 1.599667 -0.975719 -5.268907 -0.011062 0.005740 -0.000643
Al 1.594072 -0.977776 -0.174209 -0.007388 0.006420 0.007017
Ga 3.122811 1.787971 4.984357 0.000949 0.000497 0.000135
Al 3.123986 1.785957 -5.268478 -0.000316 0.000681 0.003423
Al 3.108774 1.785400 -0.145153 0.004979 0.001511 -0.000811
Al 6.301437 -3.680433 4.995515 -0.000170 0.001155 -0.002872
Al 6.298867 -3.680220 -5.279465 -0.000847 -0.001060 0.004283
Al 6.294083 -3.696376 -0.221000 0.000548 -0.001436 0.022475
Al 4.730413 -0.951302 4.988551 -0.000665 0.001143 -0.001796
Al 4.727062 -0.973831 -5.271705 -0.000984 0.008502 -0.000193
Al 4.729475 -0.974735 -0.227684 -0.002035 0.010104 0.021487
Ga -3.196087 1.790092 4.988963 0.000299 0.000334 -0.001316
Ga -3.212478 1.791763 -5.264900 0.001388 0.000817 0.000957
Ga -3.200917 1.806053 -0.221602 -0.000807 -0.001279 0.021529
Ga -0.041318 -3.674356 4.988312 0.000221 0.000894 0.001268
Al -0.033253 -3.675736 -5.272314 0.000165 0.000434 0.002177
Al -0.020799 -3.677820 -0.127273 -0.002479 -0.005010 -0.012002
Al -1.607668 -0.947755 4.989161 0.001814 0.002641 -0.000835
Al -1.605546 -0.955168 -5.278943 0.001252 0.000278 0.002409
Ga -1.586663 -0.974836 -0.209549 -0.000301 0.010464 0.020858
N 1.542603 0.885259 4.376302 -0.013849 -0.016199 -0.008848
N 1.567852 0.881892 -5.869758 0.013449 -0.018386 -0.005914
N 1.549450 0.885690 -0.789624 0.001432 -0.009868 0.002537
N 0.001907 3.603612 4.387553 0.010567 -0.010043 -0.008552
N -0.010584 3.616085 -5.871218 -0.001669 0.014510 -0.006771
N -0.019316 3.600806 -0.808159 0.000780 0.001107 0.001090
N 3.162753 -1.856438 4.381233 -0.002535 0.015008 -0.007961
N 3.163056 -1.878648 -5.866567 -0.001809 0.001069 -0.001360
N 3.157820 -1.880258 -0.811874 0.000132 0.002686 0.001850
N -4.774964 0.867752 4.376909 0.001566 -0.016584 -0.010383
N -4.792639 0.883894 -5.865541 -0.011548 -0.017500 -0.004443
N -4.785594 0.887222 -0.830448 -0.014988 -0.015848 0.005469
N -6.359988 3.614791 4.383665 -0.010466 0.006437 -0.016888
N -6.348322 3.607373 -5.830967 0.001027 -0.000281 0.011654
N -6.351426 3.606242 -0.807909 0.004896 -0.000720 0.027931
N -3.174480 -1.864755 4.405343 0.000227 0.001663 0.018467
N -3.176016 -1.869732 -5.868963 -0.000079 0.001182 -0.000617
N -3.178138 -1.883994 -0.814359 -0.013510 -0.005666 0.016679
N -1.594382 0.891138 4.397091 0.012301 -0.011078 0.009980
N -1.643479 0.860056 -5.864567 0.011510 -0.010585 -0.009509
N -1.612980 0.904627 -0.825595 0.017582 -0.003656 -0.001599
N -3.211189 3.616650 4.379707 0.010839 0.003713 -0.000558
N -3.207995 3.621339 -5.864508 0.009325 0.018290 -0.003090
N -3.186032 3.637821 -0.822100 0.000235 0.015956 0.001836
N -0.040163 -1.851281 4.382384 0.008971 0.018299 -0.007274
N -0.037398 -1.866167 -5.868221 0.008382 0.004456 0.000844
N -0.005858 -1.892323 -0.806135 0.016759 -0.000724 -0.002927
N 0.010622 1.802125 1.771573 0.001438 0.001645 0.000900
N -0.009610 1.797531 6.907927 -0.008396 -0.004147 0.000718
N -0.004362 1.792154 -3.334200 -0.008777 -0.005037 0.018665
N 3.172457 -3.683426 1.794018 0.004323 0.003472 -0.005709
N 3.166103 -3.686078 6.925012 -0.010567 -0.003185 0.015779
N 3.163383 -3.689337 -3.346952 -0.008210 -0.004131 0.000682
N 1.594190 -0.972836 1.824228 -0.010240 0.005197 -0.006211
N 1.595992 -0.969918 6.905169 -0.010301 0.005364 0.001604
N 1.595732 -0.976287 -3.343435 -0.010265 0.006926 0.002524
N 3.127334 1.792457 1.827649 0.001564 -0.001994 -0.008891
N 3.127430 1.781688 6.922643 0.000124 -0.014102 0.007698
N 3.124093 1.781788 -3.346953 -0.000205 -0.018162 -0.007487
N 6.298487 -3.706608 1.875219 0.000365 -0.014248 -0.029752
N 6.290341 -3.679246 6.911790 -0.012944 0.007502 -0.006269
N 6.287594 -3.697934 -3.359490 -0.015579 -0.007655 -0.009503
N 4.725453 -0.965658 1.864471 -0.014663 0.017798 -0.027630
N 4.729005 -0.965166 6.909330 -0.001153 0.009733 0.001007
N 4.720447 -0.968864 -3.351883 -0.015333 0.017592 -0.003800
N -3.214442 1.790344 1.851847 -0.011236 -0.009299 -0.018428
N -3.208466 1.804674 6.928924 0.000866 -0.001451 0.013702
N -3.204277 1.792955 -3.327502 0.000146 0.000268 0.015438
N -0.053495 -3.684396 1.780371 -0.011012 0.010581 0.001335
N -0.027412 -3.677372 6.925051 0.014480 0.008124 0.009137
N -0.029137 -3.678960 -3.354373 0.014866 0.007831 -0.006481
N -1.585886 -0.983778 1.853970 0.010785 0.007686 -0.016216
N -1.605550 -0.962667 6.908991 -0.000354 0.009465 0.000688
N -1.589448 -0.964980 -3.350700 0.011812 0.018135 -0.003934
