108
Energy=-1.581051e+06 Lattice="9.534696e+00 0.000000e+00 0.000000e+00 -4.771540e+00 8.250961e+00 0.000000e+00 -3.920732e-04 1.567584e-02 1.539693e+01" Stress="-3.936793e-04 -5.882789e-05 1.196117e-04 -6.310571e-05 -1.173658e-03 6.161614e-04 1.289670e-04 5.989337e-04 -9.883276e-04" Properties=species:S:1:pos:R:3:forces:R:3 Config_type=AlGaN_super3_25_1_48.xyz
Al 1.561175e+00 8.912619e-01 2.401976e+00 -1.206858e-03 -1.505257e-03 -2.044972e-04
Al 1.561818e+00 9.006367e-01 7.558823e+00 3.254116e-04 2.232515e-04 7.312500e-04
Al 1.551236e+00 8.713243e-01 -2.701032e+00 2.096371e-03 1.032535e-03 -3.269438e-03
Al -3.228246e-02 3.613758e+00 2.419318e+00 7.406268e-04 -2.866696e-04 3.241883e-04
Al -2.864484e-02 3.619191e+00 7.551981e+00 2.565426e-04 3.903569e-04 -8.932702e-04
Ga -4.423428e-02 3.610431e+00 -2.717450e+00 6.947122e-05 -5.216310e-05 6.404767e-04
Al 3.166807e+00 -1.872021e+00 2.423978e+00 -2.383221e-04 -1.078815e-05 -8.328646e-05
Ga 3.157605e+00 -1.871772e+00 7.560711e+00 7.616727e-05 -1.299379e-04 5.519486e-05
Al 3.152420e+00 -1.889607e+00 -2.728246e+00 -9.248884e-06 2.862938e-05 -5.082855e-05
Al -4.784034e+00 8.804994e-01 2.408768e+00 -6.867830e-04 -4.092237e-04 -1.068914e-04
Al -4.792379e+00 9.040311e-01 7.560599e+00 9.631525e-04 3.963198e-04 5.240164e-04
Ga -4.794489e+00 8.772173e-01 -2.716914e+00 3.447743e-04 1.861088e-04 2.485627e-04
Ga -6.377073e+00 3.626254e+00 2.419460e+00 1.101795e-04 3.003124e-04 6.755027e-04
Ga -6.382957e+00 3.622289e+00 7.539256e+00 -2.762423e-05 7.600158e-04 2.044989e-04
Ga -6.372823e+00 3.616616e+00 -2.700266e+00 4.391143e-05 -5.920823e-04 1.453517e-04
Al -3.215169e+00 -1.867782e+00 2.432422e+00 -2.662012e-05 -6.487603e-05 -9.086498e-05
Ga -3.203272e+00 -1.865518e+00 7.551883e+00 2.662615e-04 -4.056644e-04 6.305375e-04
Al -3.189393e+00 -1.864449e+00 -2.718832e+00 6.222899e-05 1.801909e-04 -7.307228e-05
Al -1.607581e+00 8.954506e-01 2.427208e+00 -7.087824e-04 1.853006e-03 -6.399661e-04
Ga -1.619645e+00 9.153809e-01 7.556036e+00 4.799448e-04 -6.228419e-04 1.013441e-03
Al -1.605421e+00 8.718650e-01 -2.738934e+00 1.136951e-04 5.058228e-04 -1.953809e-04
Al -3.200405e+00 3.624217e+00 2.427724e+00 -8.443889e-04 -1.122521e-03 5.420764e-04
Al -3.199757e+00 3.621822e+00 7.545353e+00 4.212329e-05 -2.749962e-04 5.422221e-04
Al -3.192920e+00 3.629367e+00 -2.724661e+00 -2.448264e-05 -9.024649e-05 5.602141e-04
Ga -1.329996e-02 -1.876365e+00 2.410924e+00 6.302411e-04 3.434837e-05 1.580124e-04
Ga -1.736225e-02 -1.860063e+00 7.558635e+00 2.860558e-04 -5.522540e-04 6.791850e-04
Al -2.264669e-02 -1.868535e+00 -2.710005e+00 9.017283e-06 -2.884239e-04 -7.527392e-05
Al -1.867130e-02 1.807220e+00 4.978658e+00 -2.639738e-03 1.214785e-03 -1.136490e-03
Al -2.342045e-02 1.785877e+00 -5.283091e+00 -1.415377e-03 -3.350583e-04 7.959637e-04
Al -2.145390e-02 1.781627e+00 -1.457460e-01 7.870435e-04 5.217530e-04 8.866566e-04
Ga 3.159142e+00 -3.730287e+00 4.968314e+00 -4.462546e-04 4.844106e-04 4.045790e-04
Al 3.153324e+00 -3.740537e+00 -5.288059e+00 -1.018992e-04 5.615179e-04 7.428988e-04
Ga 3.145587e+00 -3.719056e+00 -1.259894e-01 -1.005354e-04 4.108047e-04 6.977560e-04
Ga 1.564173e+00 -9.380321e-01 4.978694e+00 -3.231920e-04 1.065475e-04 3.242025e-04
Ga 1.563692e+00 -9.437720e-01 -5.250574e+00 -3.750288e-04 8.900989e-04 3.175584e-04
Ga 1.575388e+00 -9.488093e-01 -1.633397e-01 -1.015869e-03 1.794263e-04 1.167939e-04
Ga 3.151821e+00 1.800013e+00 4.976511e+00 3.212659e-04 -7.435160e-05 8.400700e-04
Al 3.146695e+00 1.780470e+00 -5.293365e+00 -4.034201e-05 -2.152085e-04 1.068728e-03
Al 3.142578e+00 1.791874e+00 -1.309461e-01 -7.958093e-05 1.277343e-04 3.296110e-04
Al 6.327967e+00 -3.711019e+00 4.972333e+00 -3.089365e-04 1.783731e-04 -8.443757e-05
Ga 6.325454e+00 -3.721697e+00 -5.271981e+00 1.771271e-04 -4.041258e-05 5.609987e-04
Ga 6.340543e+00 -3.715932e+00 -1.367175e-01 -2.651457e-04 6.235525e-05 1.437851e-04
Ga 4.754395e+00 -9.407844e-01 4.974740e+00 -3.286325e-04 1.735988e-04 7.267225e-04
Ga 4.754306e+00 -9.496103e-01 -5.268170e+00 -6.229898e-04 5.134415e-04 -1.186994e-04
Ga 4.746394e+00 -9.612117e-01 -1.326586e-01 -5.287529e-04 2.733775e-04 -9.896232e-04
Al -3.204918e+00 1.814856e+00 4.966247e+00 -6.895260e-04 -1.069459e-03 8.530579e-04
Al -3.196475e+00 1.797578e+00 -5.278242e+00 3.935512e-05 -2.010274e-04 9.085668e-05
Ga -3.196309e+00 1.805320e+00 -1.404132e-01 -1.462430e-04 -1.561601e-04 -2.539969e-04
Al -1.586268e-02 -3.711886e+00 4.993543e+00 1.406962e-04 -4.320329e-04 7.214589e-05
Ga -5.134612e-03 -3.721578e+00 -5.269929e+00 -9.725655e-05 7.427223e-05 5.942606e-04
Al -1.196796e-02 -3.717430e+00 -1.638709e-01 -8.488138e-05 3.233591e-04 -1.297236e-04
Ga -1.615057e+00 -9.416245e-01 4.958959e+00 -3.345676e-04 4.806709e-04 1.309878e-04
Al -1.611136e+00 -9.421473e-01 -5.248604e+00 9.607090e-05 2.978821e-04 3.282031e-04
Ga -1.604159e+00 -9.490711e-01 -1.475518e-01 -6.630066e-04 3.801624e-04 -3.311170e-04
N 1.517333e+00 9.146596e-01 4.314386e+00 1.366400e-03 -1.094280e-03 -1.014314e-04
N 1.557088e+00 9.205031e-01 -5.918419e+00 9.208119e-04 -3.315627e-04 -8.308987e-04
N 1.564273e+00 9.309551e-01 -7.859696e-01 -5.229764e-05 3.868635e-04 1.472073e-03
N 1.739385e-02 3.602596e+00 4.337154e+00 1.251907e-04 -1.014110e-03 4.441595e-04
N -6.381149e-02 3.592260e+00 -5.917854e+00 -2.482790e-04 -2.111130e-04 -7.220784e-05
N -3.206717e-02 3.575643e+00 -7.412978e-01 1.981667e-04 -4.069163e-04 -2.134488e-04
N 3.155866e+00 -1.870782e+00 4.329636e+00 2.889265e-04 -1.735051e-04 -6.403672e-04
N 3.154293e+00 -1.926272e+00 -5.864296e+00 1.528092e-04 -5.407897e-04 2.041187e-04
N 3.163713e+00 -1.887076e+00 -8.184977e-01 1.494103e-04 -1.319673e-04 5.507032e-04
N -4.752450e+00 9.113361e-01 4.320870e+00 8.865625e-05 2.110792e-04 -6.397815e-04
N -4.787059e+00 9.256596e-01 -5.907750e+00 2.409334e-04 -2.965913e-05 -3.095478e-04
N -4.832863e+00 9.008423e-01 -7.400177e-01 5.475190e-05 6.104754e-04 -9.049455e-05
N -6.377445e+00 3.680170e+00 4.406020e+00 -1.106492e-04 4.237101e-04 -3.189943e-04
N -6.379694e+00 3.579950e+00 -5.881590e+00 -1.322889e-05 -1.962984e-04 -8.946659e-04
N -6.340958e+00 3.595408e+00 -7.180891e-01 3.597468e-04 -9.443250e-05 -1.643889e-05
N -3.203639e+00 -1.915734e+00 4.338832e+00 2.836658e-04 -5.779900e-04 -5.255524e-04
N -3.153279e+00 -1.855033e+00 -5.874226e+00 4.834714e-04 -1.204067e-05 -2.449503e-04
N -3.195531e+00 -1.872533e+00 -8.141264e-01 2.598814e-04 -1.297712e-04 6.289266e-04
N -1.615593e+00 9.444188e-01 4.345714e+00 2.312030e-03 3.339367e-04 2.105840e-03
N -1.617692e+00 8.767501e-01 -5.844802e+00 9.468690e-04 -4.053328e-05 -8.056269e-05
N -1.572135e+00 9.047599e-01 -8.133636e-01 8.081090e-05 -4.140764e-04 -5.037425e-04
N -3.253740e+00 3.611071e+00 4.345065e+00 5.136379e-04 7.636236e-04 -7.804584e-04
N -3.164696e+00 3.594240e+00 -5.927107e+00 1.584121e-04 -1.173289e-04 -8.805041e-04
N -3.235301e+00 3.647250e+00 -8.108489e-01 -1.022611e-04 -2.985137e-04 -4.251573e-04
N -1.972123e-02 -1.918336e+00 4.381111e+00 9.940295e-05 -6.029506e-04 -2.253941e-04
N -6.383851e-02 -1.850168e+00 -5.863565e+00 -5.863549e-05 -3.754035e-04 -2.649447e-04
N -2.408875e-02 -1.916188e+00 -7.925957e-01 3.788814e-04 -7.349919e-04 2.196242e-04
N -2.627624e-02 1.789311e+00 1.783675e+00 -3.188138e-04 1.162064e-05 -5.664417e-05
N 1.795427e-02 1.823194e+00 6.907233e+00 -2.094417e-04 -5.951327e-05 -4.246038e-04
N -1.803836e-02 1.739455e+00 -3.363172e+00 -2.917316e-04 -1.964085e-04 -3.584734e-04
N 3.153800e+00 -3.710871e+00 1.868370e+00 1.390473e-04 7.260381e-04 -1.267674e-03
N 3.159564e+00 -3.753510e+00 6.954256e+00 -2.031105e-04 -9.585087e-05 1.169778e-04
N 3.117741e+00 -3.696855e+00 -3.364968e+00 -2.270605e-04 3.602824e-04 -6.041154e-04
N 1.614195e+00 -9.308776e-01 1.820582e+00 3.890043e-05 6.977407e-04 -6.962066e-05
N 1.572886e+00 -8.955708e-01 6.954581e+00 -6.198403e-04 5.006879e-04 -6.622969e-04
N 1.568467e+00 -9.546073e-01 -3.264330e+00 -5.620614e-04 -3.855962e-05 5.735107e-04
N 3.149902e+00 1.748412e+00 1.789241e+00 1.273942e-03 6.352123e-05 -9.049536e-05
N 3.152296e+00 1.747450e+00 6.958191e+00 -2.579205e-04 -6.303945e-04 -3.824147e-04
N 3.108539e+00 1.762388e+00 -3.375878e+00 -1.313487e-03 -6.076040e-04 -1.227189e-04
N 6.290199e+00 -3.680876e+00 1.842187e+00 4.632615e-04 1.209215e-04 -1.213429e-03
N 6.287447e+00 -3.722424e+00 6.896998e+00 -3.396540e-04 -2.671762e-04 -2.577029e-04
N 6.333113e+00 -3.670571e+00 -3.301928e+00 -1.562035e-04 2.309758e-04 -6.888330e-05
N 4.746354e+00 -9.556206e-01 1.849752e+00 8.918606e-05 -2.220804e-04 6.503451e-04
N 4.746027e+00 -8.941759e-01 6.953845e+00 -6.159833e-04 2.216378e-04 -5.675281e-04
N 4.748101e+00 -1.003099e+00 -3.296315e+00 -3.672296e-04 -4.818942e-04 9.855594e-05
N -3.195837e+00 1.797179e+00 1.843775e+00 6.085457e-04 6.496044e-04 1.813467e-04
N -3.247974e+00 1.825578e+00 6.902276e+00 -2.119457e-04 1.631767e-04 -9.911028e-04
N -3.164124e+00 1.817477e+00 -3.353140e+00 2.258676e-04 -2.629017e-04 3.343390e-05
N 2.657253e-02 -3.732107e+00 1.749734e+00 1.411203e-04 -2.501938e-04 -8.570171e-05
N 2.443055e-02 -3.719828e+00 6.910018e+00 2.923671e-04 -1.324085e-04 -4.750721e-04
N 2.197012e-02 -3.688532e+00 -3.294928e+00 1.617480e-04 4.917685e-04 -1.227242e-05
N -1.654130e+00 -9.248544e-01 1.839859e+00 -1.258896e-04 -6.007734e-04 1.930923e-04
N -1.610956e+00 -9.353978e-01 6.922448e+00 -3.153252e-04 3.032219e-04 -5.998150e-04
N -1.607801e+00 -9.577401e-01 -3.323103e+00 -2.726717e-04 -1.107053e-04 -7.630915e-05
