108
Energy=-8.028681e+05 Lattice="9.439687e+00 0.000000e+00 0.000000e+00 -4.721567e+00 8.171869e+00 0.000000e+00 1.313086e-03 -5.768930e-05 1.517432e+01" Stress="2.720777e-04 -1.236845e-04 1.748155e-04 -1.151173e-04 -3.106251e-04 3.801029e-06 1.621843e-04 -4.083357e-06 6.546017e-04" Properties=species:S:1:pos:R:3:forces:R:3 Config_type=AlGaN_super3_8_1_33.xyz
Al 1.554890e+00 8.772754e-01 2.373358e+00 -1.035441e-04 3.636113e-05 6.405319e-05
Al 1.556641e+00 8.779196e-01 7.442979e+00 -1.637578e-06 1.387213e-04 1.529924e-04
Al 1.550994e+00 8.718904e-01 -2.684035e+00 1.257451e-04 -3.212737e-05 1.928420e-04
Al -8.820462e-03 3.584156e+00 2.384111e+00 9.326408e-05 5.973687e-05 7.728427e-05
Al -1.409170e-02 3.586563e+00 7.446233e+00 -3.661198e-05 1.375032e-04 -9.989978e-05
Al -1.123588e-02 3.590579e+00 -2.692580e+00 7.244740e-05 -1.086398e-05 9.311640e-05
Al 3.129418e+00 -1.844999e+00 2.395508e+00 -2.469659e-05 2.876677e-04 1.407196e-04
Al 3.130765e+00 -1.849448e+00 7.442481e+00 5.654422e-05 5.837795e-05 7.089927e-06
Al 3.120128e+00 -1.851852e+00 -2.689113e+00 6.177318e-05 -9.665119e-05 -5.310530e-05
Al -4.741881e+00 8.750054e-01 2.393366e+00 -6.624529e-05 5.998836e-05 -1.691949e-04
Al -4.744000e+00 8.734997e-01 7.421984e+00 8.270757e-05 1.283737e-04 -1.120563e-04
Al -4.749692e+00 8.753667e-01 -2.677957e+00 1.334333e-04 9.904058e-05 8.509620e-05
Al -6.321829e+00 3.586237e+00 2.378673e+00 -1.901905e-04 -7.457632e-06 -7.918373e-05
Al -6.321714e+00 3.583304e+00 7.439485e+00 6.515893e-05 6.285342e-06 3.870154e-05
Al -6.328729e+00 3.589746e+00 -2.680417e+00 1.696685e-05 3.481656e-05 7.996373e-05
Al -3.175838e+00 -1.863199e+00 2.378006e+00 6.576037e-05 1.256350e-05 -2.809588e-05
Al -3.178471e+00 -1.862352e+00 7.445640e+00 -1.213350e-04 -5.319225e-05 -4.045453e-05
Al -3.159284e+00 -1.862758e+00 -2.679978e+00 -3.221045e-05 2.594408e-05 -1.140987e-04
Al -1.597824e+00 8.839906e-01 2.367687e+00 3.242258e-05 -8.017281e-05 -1.101505e-04
Al -1.598130e+00 8.855264e-01 7.451767e+00 4.749281e-05 -9.745562e-05 1.164183e-04
Al -1.595250e+00 8.642656e-01 -2.682146e+00 1.706221e-04 -2.053658e-04 6.332792e-06
Al -3.176529e+00 3.578561e+00 2.378524e+00 -3.145036e-04 -1.041970e-04 -2.312406e-04
Al -3.170771e+00 3.580152e+00 7.454731e+00 -2.540931e-04 1.419496e-05 8.442674e-05
Ga -3.171974e+00 3.588341e+00 -2.686129e+00 1.767261e-04 -5.279869e-05 -2.181020e-04
Ga -1.514414e-02 -1.856598e+00 2.374881e+00 -6.301663e-05 1.804422e-05 -4.563308e-05
Ga -1.365272e-02 -1.856680e+00 7.454763e+00 7.875448e-05 -5.559010e-05 -3.949973e-06
Al -2.806039e-02 -1.846056e+00 -2.682708e+00 1.092592e-04 -1.814106e-04 -1.217811e-04
Al -1.231293e-02 1.773783e+00 4.912495e+00 2.269953e-05 -3.253778e-05 3.438438e-05
Al -2.317793e-02 1.775278e+00 -5.206354e+00 -1.206687e-05 2.055383e-04 1.459101e-04
Al -1.915632e-02 1.769491e+00 -1.601459e-01 1.279907e-04 6.373573e-05 -2.981195e-05
Ga 3.124617e+00 -3.675289e+00 4.912571e+00 -9.659632e-05 4.586309e-05 -1.068143e-04
Al 3.125242e+00 -3.677550e+00 -5.223439e+00 9.550252e-06 7.420357e-05 1.999519e-04
Ga 3.128648e+00 -3.676648e+00 -1.298002e-01 -2.561788e-05 -2.267283e-07 3.172540e-06
Al 1.564730e+00 -9.288559e-01 4.916668e+00 -1.521663e-05 5.412986e-05 2.126766e-04
Al 1.546606e+00 -9.404389e-01 -5.194203e+00 -8.771158e-05 -1.420455e-06 8.915572e-05
Al 1.542246e+00 -9.354674e-01 -1.638719e-01 -1.569213e-04 1.334630e-04 5.174135e-06
Al 3.120397e+00 1.778703e+00 4.905318e+00 -7.974070e-05 -2.384490e-05 -7.796407e-05
Al 3.117696e+00 1.784528e+00 -5.212175e+00 6.231705e-05 8.400722e-05 3.356654e-05
Al 3.116955e+00 1.786106e+00 -1.482551e-01 1.518485e-04 1.282521e-04 9.624345e-06
Al 6.279655e+00 -3.679970e+00 4.913452e+00 -4.278679e-05 2.442311e-05 -4.139432e-05
Al 6.276603e+00 -3.681516e+00 -5.207401e+00 3.760591e-05 -6.028303e-06 6.109927e-05
Al 6.284421e+00 -3.680867e+00 -1.533320e-01 9.355350e-05 1.439340e-05 3.418923e-05
Al 4.696427e+00 -9.410244e-01 4.912397e+00 8.679258e-05 1.690148e-04 7.320322e-05
Ga 4.697474e+00 -9.432889e-01 -5.200761e+00 -8.589370e-05 1.425516e-04 3.188595e-05
Ga 4.701585e+00 -9.373906e-01 -1.503277e-01 3.390373e-07 -1.822549e-05 -8.020200e-05
Al -3.174359e+00 1.777298e+00 4.912716e+00 -2.074439e-04 2.270407e-04 -9.424095e-05
Al -3.168529e+00 1.777486e+00 -5.217402e+00 -8.543890e-05 -8.851997e-06 1.388074e-04
Al -3.172034e+00 1.769874e+00 -1.399245e-01 1.324622e-04 -3.659757e-05 4.119890e-05
Al -2.681902e-02 -3.691592e+00 4.915584e+00 1.514391e-05 2.379790e-05 5.743000e-05
Al -3.064699e-02 -3.676142e+00 -5.202561e+00 6.091586e-05 1.477500e-04 -5.717479e-06
Al -3.878457e-02 -3.671348e+00 -1.553864e-01 -2.063805e-04 -5.729861e-05 -2.786026e-04
Ga -1.603307e+00 -9.388295e-01 4.913855e+00 -2.498633e-04 1.208208e-04 -9.261957e-06
Al -1.593646e+00 -9.413284e-01 -5.197586e+00 -1.155022e-04 -9.962342e-06 1.359209e-04
Al -1.591105e+00 -9.437227e-01 -1.587546e-01 -1.884119e-04 1.969914e-04 -9.046748e-05
N 1.549610e+00 8.717222e-01 4.297240e+00 1.449465e-04 3.606496e-06 -3.956720e-05
N 1.549035e+00 8.699539e-01 -5.808564e+00 4.939462e-05 1.534570e-06 -1.180542e-04
N 1.551823e+00 8.737013e-01 -7.623402e-01 1.021086e-04 -3.581172e-05 2.444757e-05
N 2.493158e-02 3.565231e+00 4.296979e+00 -2.505460e-04 -6.971021e-05 -1.736776e-04
N -1.751389e-02 3.588186e+00 -5.809996e+00 -3.673191e-05 -8.527688e-05 1.774696e-05
N 1.802445e-02 3.569547e+00 -7.742087e-01 3.291757e-05 4.683783e-05 -2.549125e-04
N 3.124379e+00 -1.805647e+00 4.302666e+00 -1.506624e-04 -1.838887e-04 -2.533964e-04
N 3.080316e+00 -1.871609e+00 -5.822406e+00 2.070024e-04 -8.422971e-05 -3.993823e-05
N 3.082556e+00 -1.836490e+00 -7.879251e-01 4.221086e-05 -2.054702e-05 6.112044e-05
N -4.742821e+00 8.718984e-01 4.316694e+00 2.250037e-04 5.929208e-05 1.458254e-04
N -4.747847e+00 9.177273e-01 -5.839373e+00 1.371056e-04 -9.398814e-05 9.359181e-05
N -4.746650e+00 9.243273e-01 -7.683697e-01 3.241779e-06 -7.252231e-05 1.037557e-04
N -6.317875e+00 3.592584e+00 4.300863e+00 9.674613e-05 -4.543155e-05 1.439132e-05
N -6.318968e+00 3.591101e+00 -5.817019e+00 -6.517139e-05 2.278741e-05 -4.227905e-05
N -6.319565e+00 3.590310e+00 -7.615885e-01 -7.580721e-05 -1.820097e-04 -9.791942e-05
N -3.209490e+00 -1.883909e+00 4.291087e+00 8.229902e-05 -1.296556e-05 1.299311e-04
N -3.129889e+00 -1.881578e+00 -5.818186e+00 4.700586e-05 1.000982e-04 1.594863e-05
N -3.126457e+00 -1.882633e+00 -7.687546e-01 2.147648e-04 -1.274653e-04 6.548399e-05
N -1.594229e+00 9.230441e-01 4.282973e+00 2.318485e-04 -5.180179e-05 -2.559783e-05
N -1.595431e+00 8.728985e-01 -5.806263e+00 2.300403e-04 -1.463538e-04 -9.812207e-05
N -1.599410e+00 8.726124e-01 -7.577085e-01 1.349414e-04 -5.491817e-05 5.293502e-05
N -3.213504e+00 3.566144e+00 4.287532e+00 2.243750e-05 -1.177404e-04 5.331890e-04
N -3.176199e+00 3.591778e+00 -5.800826e+00 2.495549e-05 -1.107866e-04 1.041604e-04
N -3.209221e+00 3.569224e+00 -7.176364e-01 5.515904e-05 -5.635717e-05 7.024330e-05
N 2.289151e-02 -1.878960e+00 4.350653e+00 -4.116366e-05 -2.057211e-04 9.935582e-05
N -2.105571e-02 -1.853646e+00 -5.746346e+00 8.567078e-05 -2.124327e-04 -8.917765e-05
N -2.358035e-02 -1.853064e+00 -7.544743e-01 1.634439e-04 -1.859004e-04 1.101779e-04
N -1.919546e-02 1.776137e+00 1.762134e+00 -1.560604e-04 -1.310060e-05 -2.297628e-06
N -2.041059e-02 1.773857e+00 6.837520e+00 -1.257687e-04 1.443403e-04 -1.875835e-05
N -2.406163e-02 1.773884e+00 -3.285231e+00 -1.019211e-04 7.391575e-05 -3.713792e-05
N 3.129064e+00 -3.670397e+00 1.850496e+00 1.531339e-04 -1.290979e-04 1.035178e-04
N 3.124581e+00 -3.675250e+00 6.895749e+00 4.396531e-04 -3.750115e-05 2.871673e-06
N 3.168200e+00 -3.650868e+00 -3.308017e+00 -1.672086e-04 1.042977e-04 -8.254001e-05
N 1.596213e+00 -9.203442e-01 1.749192e+00 -9.694004e-05 -2.896590e-06 -4.358723e-05
N 1.595830e+00 -9.171165e-01 6.825348e+00 -2.679176e-04 -3.860731e-05 -3.125846e-04
N 1.550272e+00 -9.429046e-01 -3.279049e+00 -1.772475e-04 1.816480e-04 -4.132332e-05
N 3.126000e+00 1.777231e+00 1.777154e+00 -1.026665e-04 -1.526601e-04 1.109442e-04
N 3.120177e+00 1.778458e+00 6.826676e+00 -6.039963e-05 -1.302065e-04 -5.616458e-05
N 3.121094e+00 1.777999e+00 -3.290511e+00 1.911647e-05 -5.945230e-05 -1.165075e-04
N 6.273848e+00 -3.673891e+00 1.767605e+00 -1.076723e-04 -8.012526e-07 -2.698493e-05
N 6.273484e+00 -3.673593e+00 6.834587e+00 -3.212214e-05 3.100640e-05 -1.207334e-05
N 6.273001e+00 -3.672793e+00 -3.291301e+00 -9.363043e-07 -3.408772e-05 2.480401e-06
N 4.699020e+00 -9.429044e-01 1.826897e+00 -2.339879e-04 1.606350e-05 2.292527e-05
N 4.700549e+00 -9.483255e-01 6.837619e+00 -7.225071e-05 -7.799312e-05 3.386499e-06
N 4.700480e+00 -9.449658e-01 -3.224068e+00 2.011892e-05 -1.450155e-04 -8.104117e-05
N -3.172537e+00 1.771299e+00 1.774583e+00 -5.063684e-05 3.401306e-05 7.163322e-05
N -3.165356e+00 1.777834e+00 6.833775e+00 8.360141e-05 3.273476e-05 -1.142841e-04
N -3.170574e+00 1.724391e+00 -3.308792e+00 -5.297155e-05 1.620753e-04 -2.736382e-04
N -2.773140e-02 -3.719503e+00 1.753936e+00 2.366185e-04 1.476819e-04 2.136854e-04
N -2.069503e-02 -3.723390e+00 6.828749e+00 -7.395033e-05 -3.252024e-05 -1.323371e-04
N -6.815954e-02 -3.649688e+00 -3.293424e+00 -1.535029e-04 6.847705e-05 1.445329e-04
N -1.637036e+00 -9.218370e-01 1.760794e+00 1.157638e-04 -1.257933e-04 9.499469e-06
N -1.637435e+00 -9.191421e-01 6.880604e+00 5.960702e-05 1.022241e-05 -3.007287e-05
N -1.597761e+00 -9.435944e-01 -3.279078e+00 -1.332338e-04 9.364072e-05 8.122932e-05
