108
Energy=-985970.009692 Lattice="9.461340 0.000000 0.000000 -4.733270 8.192250 0.000000 -0.008633 0.000564 15.227080" Stress="0.000001 -0.000001 -0.000002 -0.000001 -0.000001 -0.000000 -0.000002 -0.000000 0.000003" Properties=species:S:1:pos:R:3:forces:R:3
Al 1.550052 0.881808 2.423479 0.000238 -0.000013 0.000079
Al 1.551059 0.870458 7.452705 0.000153 0.000017 0.000198
Al 1.553300 0.868868 -2.717557 0.000135 -0.000038 0.000157
Al -0.028469 3.600406 2.389900 -0.000021 0.000030 0.000150
Al -0.020229 3.593487 7.440373 -0.000267 0.000121 -0.000234
Al -0.022632 3.592777 -2.665103 -0.000034 0.000078 -0.000017
Al 3.138346 -1.866191 2.386710 0.000081 -0.000064 0.000264
Al 3.118394 -1.853303 7.466090 -0.000182 -0.000169 -0.000095
Al 3.131970 -1.854694 -2.684942 0.000055 -0.000075 0.000057
Al -4.752627 0.872879 2.393092 0.000051 0.000056 0.000089
Al -4.763646 0.880015 7.464630 -0.000042 0.000171 0.000214
Al -4.758659 0.866189 -2.691005 0.000203 0.000119 -0.000020
Al -6.341709 3.595169 2.388455 0.000378 0.000389 -0.000187
Al -6.352068 3.586963 7.464355 0.000133 0.000030 -0.000123
Ga -6.332911 3.593077 -2.679767 -0.000089 0.000056 0.000289
Al -3.182095 -1.861482 2.385487 0.000174 0.000109 -0.000278
Ga -3.174030 -1.864786 7.471077 0.000198 0.000028 0.000199
Ga -3.184870 -1.860705 -2.687111 -0.000003 0.000047 0.000792
Al -1.605749 0.878544 2.385694 0.000037 0.000209 -0.000018
Al -1.598754 0.875550 7.461429 0.000075 -0.000063 0.000182
Ga -1.591782 0.884522 -2.680835 0.000494 -0.000300 0.000247
Al -3.169583 3.593115 2.383161 0.000220 -0.000141 0.000149
Ga -3.171875 3.592547 7.454381 0.000277 0.000028 0.000154
Al -3.172780 3.600288 -2.665300 0.000221 -0.000252 -0.000115
Ga -0.026786 -1.855693 2.398187 0.000174 -0.000004 0.000185
Al -0.018020 -1.836923 7.455270 -0.000140 0.000160 -0.000070
Al -0.006475 -1.853605 -2.676724 0.000104 -0.000020 0.000131
Al -0.030921 1.780297 4.923008 0.000038 0.000194 0.000192
Al -0.012869 1.780415 -5.249933 -0.000022 0.000145 0.000087
Al -0.026812 1.787152 -0.130131 -0.000313 0.000407 0.000774
Al 3.139521 -3.683931 4.914167 -0.000218 0.000090 -0.000447
Ga 3.156596 -3.681155 -5.206980 -0.000174 0.000049 0.000342
Al 3.138029 -3.688244 -0.152814 0.000074 -0.000132 0.000593
Al 1.557182 -0.940032 4.934713 0.000023 -0.000022 0.000332
Al 1.557245 -0.935524 -5.227288 0.000048 0.000094 0.000102
Ga 1.558696 -0.946131 -0.154547 -0.000698 -0.000088 0.001163
Al 3.121470 1.782230 4.924055 -0.000030 0.000121 0.000374
Al 3.130598 1.767887 -5.239511 0.000135 0.000038 0.000116
Ga 3.130191 1.776934 -0.134706 0.000043 0.000007 0.000628
Al 6.278773 -3.691688 4.909134 0.000024 0.000030 -0.000073
Al 6.281434 -3.691303 -5.234069 -0.000021 -0.000140 0.000362
Al 6.272947 -3.676460 -0.121624 0.000055 0.000008 0.000406
Ga 4.702818 -0.948530 4.919257 -0.000160 0.000160 0.000417
Al 4.706409 -0.935847 -5.233301 -0.000064 0.000117 -0.000081
Al 4.717071 -0.952696 -0.131494 0.000160 0.000150 0.000557
Al -3.169594 1.773869 4.910827 -0.000153 0.000081 -0.000123
Al -3.177506 1.761263 -5.220690 -0.000089 -0.000184 0.000126
Al -3.175201 1.782666 -0.133145 -0.000013 0.000039 -0.000118
Ga -0.030245 -3.685439 4.931114 0.000095 -0.000278 0.000217
Ga -0.028250 -3.670414 -5.228995 0.000153 -0.000030 0.000294
Al -0.016345 -3.681316 -0.139818 0.000226 0.000245 -0.000265
Al -1.602253 -0.932021 4.928509 -0.000029 -0.000150 0.000001
Al -1.588954 -0.937227 -5.234206 -0.000058 -0.000184 0.000115
Al -1.608772 -0.949115 -0.134409 0.000302 0.000183 -0.000369
N 1.547588 0.873028 4.340896 0.000095 0.000045 -0.000373
N 1.557602 0.868891 -5.845988 0.000031 -0.000035 -0.000109
N 1.509349 0.901073 -0.807434 -0.000155 -0.000108 0.000306
N -0.028655 3.598120 4.311901 0.000063 -0.000164 -0.000263
N 0.017586 3.579171 -5.875263 0.000068 -0.000139 -0.000056
N -0.019190 3.595348 -0.740951 0.000102 0.000064 -0.000120
N 3.086875 -1.884470 4.297926 0.000106 -0.000195 -0.000093
N 3.129924 -1.817429 -5.844843 0.000044 0.000069 0.000011
N 3.179188 -1.879892 -0.767453 -0.000022 -0.000108 -0.000269
N -4.756829 0.919074 4.301597 0.000129 0.000196 -0.000085
N -4.748799 0.875656 -5.841537 0.000066 0.000005 -0.000358
N -4.711948 0.845632 -0.768486 -0.000081 -0.000229 -0.000219
N -6.374880 3.577375 4.297625 -0.000110 -0.000209 -0.000051
N -6.371768 3.574213 -5.847129 -0.000221 -0.000045 -0.000131
N -6.337896 3.647943 -0.707368 -0.000256 0.000246 -0.000061
N -3.135104 -1.882731 4.304489 0.000177 0.000022 -0.000109
N -3.170430 -1.860996 -5.774291 -0.000080 0.000158 -0.000020
N -3.178761 -1.862602 -0.699544 0.000222 -0.000028 -0.000292
N -1.600819 0.872764 4.308037 0.000168 -0.000120 -0.000425
N -1.598724 0.876428 -5.836771 0.000017 -0.000128 -0.000331
N -1.599474 0.875381 -0.696850 0.000525 -0.000427 -0.000092
N -3.138522 3.578526 4.303789 0.000120 -0.000122 -0.000066
N -3.167140 3.552683 -5.810922 0.000162 0.000182 -0.000110
N -3.177253 3.596810 -0.741768 -0.000087 0.000079 -0.000152
N -0.024355 -1.810797 4.364100 -0.000180 0.000231 -0.000221
N -0.014449 -1.804007 -5.858708 -0.000062 -0.000018 -0.000006
N -0.063011 -1.878684 -0.759469 -0.000327 -0.000040 -0.000044
N -0.019980 1.780618 1.796167 0.000328 -0.000248 -0.000695
N -0.028543 1.778120 6.849520 -0.000207 -0.000065 -0.000181
N 0.016917 1.811060 -3.330173 -0.000189 -0.000044 -0.000378
N 3.132894 -3.682022 1.775715 -0.000006 0.000117 -0.000810
N 3.172885 -3.652696 6.829761 0.000167 0.000168 0.000380
N 3.139532 -3.683822 -3.223786 -0.000052 0.000057 0.000122
N 1.596716 -0.917911 1.819404 -0.000120 0.000277 -0.001268
N 1.558791 -0.946273 6.853316 -0.000255 0.000022 -0.000315
N 1.558376 -0.952620 -3.296084 -0.000278 -0.000026 -0.000256
N 3.124970 1.773801 1.841030 -0.000197 -0.000166 -0.000393
N 3.128383 1.780322 6.851515 -0.000170 -0.000102 -0.000280
N 3.135506 1.733589 -3.319777 -0.000072 -0.000205 -0.000117
N 6.278457 -3.682197 1.795523 0.000068 0.000023 -0.000474
N 6.283712 -3.725371 6.822971 0.000102 -0.000145 0.000099
N 6.241608 -3.709303 -3.326974 -0.000137 -0.000059 -0.000076
N 4.705543 -0.947082 1.794429 -0.000039 -0.000056 -0.000374
N 4.665375 -0.925243 6.891587 -0.000098 -0.000073 0.000159
N 4.667637 -0.924611 -3.317380 -0.000378 -0.000122 -0.000379
N -3.181362 1.780328 1.783956 -0.000004 0.000112 0.000060
N -3.180385 1.728261 6.825313 0.000264 -0.000311 0.000116
N -3.216911 1.801782 -3.304661 -0.000219 0.000362 0.000275
N -0.018594 -3.726423 1.776395 -0.000599 -0.000278 0.000375
N -0.069845 -3.657610 6.903796 -0.000160 0.000137 0.000116
N 0.021608 -3.655363 -3.253206 0.000030 0.000024 -0.000150
N -1.640326 -0.924219 1.771287 -0.000429 -0.000181 0.000501
N -1.566921 -0.919386 6.841262 0.000099 0.000048 -0.000034
N -1.553488 -0.969317 -3.322907 0.000080 0.000094 -0.000378
