108
Energy=-2084581.033641 Lattice="9.598152 0.000000 0.000000 -4.824570 8.300781 0.000000 0.083568 0.377827 15.486317" Stress="-0.000019 -0.000001 0.000017 -0.000001 -0.000027 0.000080 0.000017 0.000080 -0.000037" Properties=species:S:1:pos:R:3:forces:R:3
Al 1.609985 1.026649 2.447644 -0.002539 -0.001696 0.001239
Al 1.616071 1.078984 7.581411 0.001672 -0.001139 0.002694
Ga 1.524639 0.744375 -2.731806 0.001047 -0.002168 0.003472
Al -0.002606 3.799569 2.442869 -0.001755 -0.002134 0.001435
Al 0.025800 3.839117 7.588663 -0.001046 0.000080 0.002700
Ga -0.071780 3.498914 -2.745671 0.001753 0.000439 0.002461
Al 3.208514 -1.740098 2.454042 0.000105 -0.003013 0.001342
Ga 3.226628 -1.675139 7.588714 -0.000328 -0.002610 0.001622
Ga 3.142262 -2.027195 -2.730763 0.001150 0.000657 0.001141
Ga -4.821114 1.032014 2.426384 0.001710 -0.003202 0.000504
Al -4.799350 1.086819 7.584327 0.000375 0.000662 0.001745
Ga -4.852512 0.773182 -2.699255 0.000734 -0.003258 0.003068
Ga -6.414321 3.771782 2.414634 0.000315 -0.001723 0.006799
Ga -6.407344 3.836568 7.579539 0.000869 -0.000431 0.001481
Ga -6.458062 3.521154 -2.740259 -0.000371 0.001150 0.000110
Ga -3.189598 -1.747818 2.448092 0.000460 -0.000953 0.000996
Ga -3.175912 -1.693290 7.597996 0.000248 -0.001555 0.001128
Ga -3.232372 -2.015545 -2.734044 0.000229 -0.000835 0.000547
Ga -1.607051 1.052148 2.425294 0.003142 -0.002623 0.001714
Ga -1.591274 1.104184 7.603715 0.002820 -0.001505 -0.000837
Al -1.662281 0.771134 -2.730163 0.001858 -0.002369 0.001958
Al -3.200236 3.793092 2.395619 0.001338 -0.003007 0.008420
Ga -3.196172 3.846728 7.592080 0.002741 0.000799 0.000735
Al -3.260700 3.522783 -2.734051 -0.001176 -0.000488 -0.000303
Ga 0.032857 -1.727095 2.435224 0.000419 -0.002392 0.001975
Ga 0.038691 -1.666524 7.592409 0.002818 -0.001904 0.001545
Al -0.035151 -2.003783 -2.737386 -0.000085 -0.001453 0.000576
Ga 0.039371 1.982302 5.007269 -0.003652 -0.000830 0.000911
Al -0.055122 1.639336 -5.330564 0.000526 0.002061 0.002623
Ga -0.044405 1.695825 -0.121907 -0.000262 0.002952 -0.000864
Ga 3.242809 -3.554233 4.994493 -0.003724 -0.002205 0.001277
Ga 3.168087 -3.894465 -5.315050 -0.000170 -0.000220 0.000003
Ga 3.173268 -3.849055 -0.127895 0.000473 0.006974 0.000213
Al 1.638802 -0.776527 4.999979 -0.002214 -0.000572 0.001939
Al 1.546245 -1.117923 -5.312498 0.000501 0.002735 0.002666
Ga 1.581787 -1.071609 -0.123337 -0.002554 0.009688 -0.001454
Al 3.194117 1.970880 5.014026 -0.000847 0.001683 0.003224
Ga 3.113827 1.639951 -5.334110 0.000534 -0.000539 0.002225
Al 3.150906 1.737675 -0.138593 -0.000446 -0.005828 0.000896
Al 6.423129 -3.566595 5.006916 0.000951 -0.001133 0.001820
Al 6.348246 -3.897128 -5.322921 -0.001098 -0.000468 0.001550
Ga 6.368595 -3.846051 -0.136648 -0.000236 0.006398 -0.000492
Ga 4.814542 -0.785771 5.021006 -0.000417 -0.000162 -0.000043
Ga 4.746221 -1.123983 -5.312911 -0.000423 0.002304 0.000622
Ga 4.766285 -1.061339 -0.113526 -0.000029 0.010289 -0.003366
Ga -3.211975 1.988631 5.003161 0.000207 0.000455 0.003346
Ga -3.264873 1.654179 -5.305222 -0.002640 -0.001947 0.003074
Al -3.249743 1.754019 -0.166898 -0.000194 -0.006361 0.003076
Ga 0.022420 -3.552473 4.994863 -0.000742 -0.001954 0.000865
Ga -0.046733 -3.869540 -5.298838 -0.001769 -0.001843 0.000779
Ga -0.026365 -3.838294 -0.167345 0.000821 0.007560 0.000531
Ga -1.570372 -0.791232 5.020293 -0.001865 0.000984 0.000426
Ga -1.631347 -1.114297 -5.291241 -0.003478 0.001292 0.000022
Ga -1.634743 -1.060203 -0.160986 0.000503 0.008846 -0.001074
N 1.642532 1.034252 4.380198 0.004754 -0.002225 -0.003581
N 1.498005 0.693544 -5.955939 -0.002889 -0.002130 -0.003898
N 1.578434 0.797050 -0.741575 0.006002 0.003121 -0.003747
N 0.039523 3.836465 4.362675 0.003359 0.002057 -0.004099
N -0.035732 3.466491 -5.951903 0.003932 -0.002035 -0.003021
N -0.054227 3.530983 -0.768916 -0.000092 0.003741 -0.002524
N 3.192579 -1.695645 4.377212 -0.003009 0.001744 -0.003979
N 3.112415 -2.028045 -5.918741 -0.003185 0.001709 0.000263
N 3.167606 -1.999221 -0.757495 0.001407 0.001790 -0.001673
N -4.834968 1.078516 4.402300 -0.003011 0.000063 -0.000830
N -4.869728 0.728190 -5.974037 0.001775 -0.000589 -0.006093
N -4.854245 0.835775 -0.705182 0.001660 0.003100 -0.002361
N -6.431651 3.795281 4.411499 -0.003835 -0.002486 0.002124
N -6.502358 3.509622 -5.924521 -0.002234 0.002925 -0.000213
N -6.458685 3.513617 -0.765229 0.000366 0.001065 0.000882
N -3.176084 -1.751678 4.417761 -0.000245 -0.003856 0.001457
N -3.243724 -2.082306 -5.911100 0.000972 -0.003111 0.000713
N -3.239410 -1.998611 -0.764327 0.000030 0.003005 -0.001256
N -1.605630 1.065712 4.395774 0.004200 -0.001141 -0.000300
N -1.641422 0.753609 -5.912673 0.004801 -0.000470 0.000236
N -1.689418 0.813199 -0.789268 -0.001145 0.003526 -0.004726
N -3.205456 3.820950 4.336385 0.002953 0.001403 -0.006925
N -3.279465 3.494823 -5.929230 0.001631 0.001234 -0.001264
N -3.257354 3.523092 -0.813120 0.002768 0.001665 -0.001829
N 0.054420 -1.685756 4.404722 0.005281 0.001703 0.000882
N -0.014910 -2.015979 -5.916398 0.003224 0.000751 -0.001241
N -0.034136 -1.986522 -0.814530 0.003036 0.003339 -0.003085
N 0.046639 1.968310 1.851677 -0.000910 -0.004955 0.002334
N 0.057087 2.017871 6.991028 0.000782 0.001662 0.002458
N -0.088166 1.643003 -3.386214 -0.004462 -0.001263 -0.006566
N 3.226013 -3.585411 1.860170 -0.003060 -0.008840 0.001566
N 3.275001 -3.556064 6.979402 0.002084 -0.001818 0.001021
N 3.132099 -3.893988 -3.341051 -0.003719 0.000014 -0.000479
N 1.662042 -0.794726 1.846784 -0.001017 -0.007324 0.001172
N 1.640742 -0.730987 6.930975 -0.003140 0.005574 -0.004253
N 1.530146 -1.125304 -3.378516 -0.004437 0.002009 -0.005386
N 3.151662 1.896428 1.781923 -0.002206 0.002196 -0.003771
N 3.205872 1.960782 6.960679 -0.000036 -0.004199 -0.003526
N 3.135996 1.664506 -3.355998 -0.000057 -0.000065 -0.002496
N 6.382295 -3.605161 1.820062 -0.002202 -0.009455 0.001984
N 6.396400 -3.555472 6.939166 -0.003278 -0.000490 -0.004859
N 6.355082 -3.871803 -3.396852 0.000112 0.001141 -0.005340
N 4.779471 -0.848733 1.847552 -0.004173 -0.007944 0.001999
N 4.829342 -0.728768 6.994638 0.000155 0.004368 -0.000609
N 4.755186 -1.096272 -3.339818 -0.001196 0.003482 -0.000948
N -3.212810 1.956130 1.768117 -0.000234 0.007569 -0.005099
N -3.224947 1.988822 6.982389 -0.003708 -0.002969 -0.000413
N -3.233891 1.693333 -3.319924 0.003567 0.002461 0.001171
N 0.049546 -3.601027 1.807015 0.001100 -0.010094 0.000853
N 0.029861 -3.529357 6.968938 -0.001123 0.001040 -0.001255
N -0.007530 -3.842493 -3.320631 0.003686 0.003015 0.003302
N -1.580653 -0.820016 1.804707 -0.001881 -0.005455 0.000030
N -1.569984 -0.764212 6.985955 -0.001984 0.002834 -0.000663
N -1.607910 -1.073590 -3.314235 0.002570 0.004122 0.002798
