108
Energy=-7.570925e+05 Lattice="9.445211e+00 0.000000e+00 0.000000e+00 -4.735989e+00 8.171786e+00 0.000000e+00 -1.301253e-02 -1.753198e-03 1.516821e+01" Stress="2.340532e-03 -6.873335e-04 -2.552313e-04 -6.917514e-04 2.204994e-03 -2.189213e-04 -2.541272e-04 -2.266444e-04 3.370687e-03" Properties=species:S:1:pos:R:3:forces:R:3 Config_type=AlGaN_super3_7_0_11.xyz
Al 1.538170e+00 8.672175e-01 2.375211e+00 1.758692e-04 2.921068e-03 1.054558e-03
Al 1.539286e+00 8.713364e-01 7.438420e+00 1.193394e-03 7.768977e-04 2.952499e-04
Al 1.559917e+00 8.726248e-01 -2.691588e+00 9.839349e-04 4.304195e-04 6.619488e-04
Al -4.464224e-02 3.586664e+00 2.396233e+00 -2.263867e-03 -1.787926e-03 2.050273e-03
Al -3.102406e-02 3.585285e+00 7.409697e+00 2.455108e-05 -5.909218e-04 3.215950e-04
Al -2.413951e-02 3.579779e+00 -2.669492e+00 -2.560357e-04 -1.092873e-03 -5.934773e-04
Al 3.128299e+00 -1.859511e+00 2.376881e+00 5.135994e-04 -7.173980e-04 -1.332188e-06
Al 3.135579e+00 -1.855448e+00 7.431165e+00 1.091948e-03 -1.427930e-03 -8.819755e-05
Al 3.151957e+00 -1.851819e+00 -2.678827e+00 7.083551e-04 -6.391981e-04 1.145060e-03
Al -4.761425e+00 8.698514e-01 2.386314e+00 1.347485e-03 -4.973803e-04 -3.237331e-04
Al -4.759602e+00 8.684094e-01 7.427007e+00 9.467865e-04 1.150849e-06 4.095028e-04
Al -4.744980e+00 8.692076e-01 -2.687332e+00 1.101933e-03 -1.106067e-04 -2.650744e-04
Al -6.338946e+00 3.585325e+00 2.412321e+00 -1.655366e-04 -3.167355e-04 9.943291e-04
Al -6.327063e+00 3.588751e+00 7.419975e+00 -5.998095e-04 2.941418e-04 -4.699217e-04
Al -6.314987e+00 3.581184e+00 -2.696247e+00 -3.121968e-04 -6.739541e-04 -1.288025e-04
Al -3.177014e+00 -1.852066e+00 2.413038e+00 -5.679787e-03 -2.169687e-03 2.534615e-03
Al -3.170669e+00 -1.847736e+00 7.419721e+00 1.056638e-04 -1.230510e-03 -4.872875e-04
Al -3.165098e+00 -1.848469e+00 -2.705604e+00 -1.111620e-03 8.262627e-04 6.892641e-03
Al -1.614630e+00 8.727840e-01 2.406023e+00 -5.879053e-05 4.765552e-03 2.830345e-04
Al -1.612289e+00 8.771081e-01 7.426493e+00 1.472701e-03 -5.521642e-04 3.631351e-06
Al -1.604847e+00 8.841610e-01 -2.699252e+00 1.263660e-03 1.541210e-04 2.665301e-03
Al -3.185569e+00 3.590797e+00 2.405007e+00 1.056747e-03 2.404346e-05 -1.129298e-03
Al -3.191241e+00 3.594113e+00 7.418950e+00 1.326676e-03 -3.593250e-04 -2.997981e-04
Al -3.170777e+00 3.583199e+00 -2.684129e+00 -3.924745e-05 -5.784180e-04 -5.321746e-05
Al -2.860896e-02 -1.842166e+00 2.405229e+00 -7.702280e-04 -1.134110e-03 -2.594163e-04
Al -2.781369e-02 -1.851884e+00 7.441658e+00 1.520666e-04 -1.524382e-03 -6.392336e-04
Ga -1.040545e-02 -1.846450e+00 -2.700955e+00 1.015081e-03 -1.190472e-03 1.899865e-04
Al -3.547316e-02 1.777570e+00 4.910204e+00 -1.040537e-03 7.431185e-04 3.072950e-04
Al -1.787761e-02 1.758572e+00 -5.214186e+00 -6.799532e-04 2.728711e-04 -2.135692e-04
Al -1.466823e-02 1.772163e+00 -1.448250e-01 -3.908385e-03 -4.425002e-04 -7.498582e-04
Al 3.134013e+00 -3.682685e+00 4.913729e+00 -1.007675e-03 8.205703e-04 -4.186315e-04
Ga 3.139024e+00 -3.679433e+00 -5.212489e+00 -8.252514e-04 9.755863e-04 1.096784e-04
Al 3.138401e+00 -3.683620e+00 -1.528431e-01 -1.094705e-03 2.459342e-03 1.924145e-03
Ga 1.560135e+00 -9.525251e-01 4.916486e+00 -2.073138e-03 1.466565e-03 2.202067e-04
Al 1.576881e+00 -9.403491e-01 -5.225481e+00 -2.462336e-03 -2.182897e-04 -1.979856e-04
Al 1.580092e+00 -9.419794e-01 -1.503934e-01 -8.728288e-04 7.591049e-04 3.350247e-03
Al 3.114888e+00 1.780736e+00 4.910803e+00 4.445137e-05 -5.211249e-04 5.732349e-04
Al 3.132791e+00 1.768100e+00 -5.219922e+00 -7.199076e-04 3.076943e-04 1.182640e-03
Al 3.127785e+00 1.753195e+00 -1.465294e-01 -7.960061e-04 5.305618e-03 -2.599448e-03
Al 6.273949e+00 -3.671302e+00 4.915110e+00 -4.821617e-04 1.835465e-04 -2.301799e-03
Ga 6.296045e+00 -3.674592e+00 -5.212425e+00 -8.046467e-04 3.015956e-04 -3.962820e-04
Ga 6.274953e+00 -3.677122e+00 -1.370413e-01 9.573980e-04 1.552134e-03 1.868698e-03
Al 4.708344e+00 -9.471481e-01 4.910432e+00 -1.318128e-03 7.788786e-04 -4.810597e-05
Al 4.715417e+00 -9.312545e-01 -5.219001e+00 -8.699785e-04 -1.025879e-03 1.460863e-03
Al 4.694429e+00 -9.375621e-01 -1.354563e-01 7.622243e-05 -3.821824e-04 -2.597421e-03
Al -3.186369e+00 1.778678e+00 4.910569e+00 -8.489592e-04 1.304979e-04 1.878614e-04
Al -3.178597e+00 1.773745e+00 -5.223171e+00 -9.448468e-05 2.473593e-04 1.164353e-03
Al -3.180093e+00 1.779251e+00 -1.406276e-01 9.668371e-04 -1.495345e-04 -1.404262e-03
Al -2.891553e-02 -3.674190e+00 4.912113e+00 1.309123e-04 9.538961e-05 -4.143705e-04
Al -8.758520e-03 -3.676420e+00 -5.226497e+00 -4.792411e-04 1.887387e-03 7.107291e-04
Ga 1.056901e-03 -3.682473e+00 -1.271234e-01 -2.358197e-03 4.247732e-06 1.652671e-04
Al -1.604993e+00 -9.422207e-01 4.917238e+00 -1.171367e-03 8.848737e-04 -6.183856e-04
Al -1.585286e+00 -9.300693e-01 -5.230474e+00 -5.190087e-04 -8.135520e-04 -2.364919e-04
Ga -1.594325e+00 -9.208139e-01 -1.207334e-01 -3.130623e-03 8.037640e-04 4.949385e-04
N 1.538040e+00 9.111786e-01 4.292299e+00 1.350366e-03 8.823613e-04 -1.926039e-03
N 1.554182e+00 8.715659e-01 -5.813492e+00 1.032028e-03 1.428300e-04 -2.448854e-05
N 1.554430e+00 8.645482e-01 -7.584308e-01 -2.586979e-04 4.165897e-04 4.345986e-04
N -3.694270e-02 3.588830e+00 4.316536e+00 -1.198069e-05 -4.520475e-04 8.930172e-04
N -1.863317e-02 3.540720e+00 -5.852481e+00 2.780931e-04 -6.130011e-04 -6.866752e-04
N -5.566786e-02 3.565944e+00 -7.617297e-01 -2.402836e-03 -1.731644e-03 8.670931e-04
N 3.164734e+00 -1.879421e+00 4.294196e+00 2.417654e-03 -1.517188e-03 -1.550921e-03
N 3.148700e+00 -1.818345e+00 -5.829390e+00 5.400360e-04 1.573607e-03 -5.888083e-04
N 3.137136e+00 -1.855609e+00 -7.478368e-01 6.914174e-05 -1.421497e-03 1.618711e-04
N -4.761693e+00 8.693184e-01 4.308557e+00 8.934752e-04 1.328872e-04 -6.381822e-04
N -4.747014e+00 8.684006e-01 -5.818316e+00 1.252004e-03 7.632109e-04 -1.186862e-03
N -4.747784e+00 8.666881e-01 -7.580336e-01 6.831120e-04 7.521610e-04 1.403400e-03
N -6.334226e+00 3.589301e+00 4.324788e+00 2.009387e-04 -2.154877e-04 8.002004e-04
N -6.283229e+00 3.569993e+00 -5.835325e+00 1.947882e-03 -1.683252e-03 -1.091955e-03
N -6.318963e+00 3.555675e+00 -7.947452e-01 9.658983e-05 -5.182226e-03 4.681734e-03
N -3.173475e+00 -1.850537e+00 4.325744e+00 -2.029423e-04 -1.101178e-03 1.617175e-03
N -3.160221e+00 -1.813344e+00 -5.835091e+00 2.399581e-04 2.077895e-03 -3.176426e-04
N -3.204338e+00 -1.821797e+00 -7.665133e-01 8.729891e-04 -1.597996e-03 -6.259417e-03
N -1.614754e+00 8.778397e-01 4.321617e+00 1.587490e-03 -4.881939e-04 1.516136e-04
N -1.600913e+00 8.797035e-01 -5.820410e+00 1.184191e-03 -2.853387e-04 -4.436012e-04
N -1.604792e+00 9.247189e-01 -7.715534e-01 2.331670e-03 3.138375e-04 -1.211881e-03
N -3.185486e+00 3.596717e+00 4.320403e+00 6.359433e-04 -8.712888e-04 3.560165e-04
N -3.209828e+00 3.575758e+00 -5.837276e+00 -3.784353e-04 -2.401700e-03 -1.511236e-03
N -3.142925e+00 3.573878e+00 -7.702105e-01 2.324406e-03 -2.455803e-03 5.753069e-04
N -6.381089e-02 -1.869290e+00 4.310412e+00 2.214443e-04 -1.261141e-03 -4.128352e-04
N -1.282724e-02 -1.849634e+00 -5.807775e+00 9.577712e-04 -9.209111e-04 1.151577e-03
N 1.790565e-02 -1.827066e+00 -7.318220e-01 1.632331e-03 3.192130e-04 1.095576e-03
N -4.193571e-02 1.772753e+00 1.781354e+00 1.463521e-03 -9.295995e-04 -2.367652e-04
N -2.963124e-02 1.767565e+00 6.826503e+00 -6.272464e-04 2.153165e-04 -8.107217e-04
N -1.564327e-02 1.769772e+00 -3.293247e+00 -7.139797e-04 7.425975e-04 5.636149e-04
N 3.122819e+00 -3.679219e+00 1.786054e+00 -5.080147e-04 6.572729e-04 -3.008489e-03
N 3.129647e+00 -3.675855e+00 6.831856e+00 -1.016107e-03 1.414253e-03 -2.398873e-04
N 3.143325e+00 -3.677713e+00 -3.240156e+00 -2.466522e-04 1.581249e-03 3.059696e-03
N 1.550915e+00 -9.443544e-01 1.787652e+00 -5.298941e-04 -1.667771e-03 -1.404156e-03
N 1.557329e+00 -9.512002e-01 6.885392e+00 -1.579856e-03 6.621256e-04 2.114108e-03
N 1.614177e+00 -9.284356e-01 -3.308578e+00 3.474538e-04 1.561213e-03 -8.031910e-04
N 3.112342e+00 1.780140e+00 1.776987e+00 8.058798e-04 -9.483911e-04 -1.041163e-04
N 3.114008e+00 1.772485e+00 6.829769e+00 -5.394670e-04 -4.387979e-04 -2.167065e-04
N 3.129773e+00 1.773669e+00 -3.296522e+00 -1.070271e-04 -5.400674e-04 -1.914323e-04
N 6.260856e+00 -3.678873e+00 1.866923e+00 4.679947e-03 2.510911e-03 -6.121772e-03
N 6.278017e+00 -3.670784e+00 6.829849e+00 1.298117e-04 4.772560e-04 7.868673e-04
N 6.281791e+00 -3.678454e+00 -3.236594e+00 1.623005e-03 1.742085e-03 7.169321e-04
N 4.702762e+00 -9.489242e-01 1.780739e+00 -1.955554e-03 1.160452e-03 1.737369e-03
N 4.702571e+00 -9.446873e-01 6.826150e+00 -1.312750e-03 1.175765e-04 -4.957845e-04
N 4.714478e+00 -9.452045e-01 -3.294863e+00 -1.297367e-03 1.733995e-04 -6.206172e-04
N -3.183727e+00 1.777027e+00 1.786226e+00 -1.527839e-03 1.027476e-03 4.644907e-04
N -3.186086e+00 1.776962e+00 6.827781e+00 -5.321841e-04 -1.004283e-04 1.873152e-04
N -3.173218e+00 1.778321e+00 -3.297462e+00 -1.143354e-03 -1.853732e-05 -6.390687e-04
N -3.276551e-02 -3.669124e+00 1.852431e+00 1.263839e-03 -2.388647e-05 -1.059850e-04
N -2.333873e-02 -3.667096e+00 6.828202e+00 -1.610256e-04 1.144001e-03 1.434242e-04
N -6.151007e-03 -3.712278e+00 -3.310308e+00 -3.653254e-04 -1.494394e-03 -8.632280e-04
N -1.631378e+00 -9.355138e-01 1.873483e+00 1.034635e-02 -2.747271e-03 -6.980329e-03
N -1.593738e+00 -9.417899e-01 6.835107e+00 -5.570875e-04 2.048809e-04 2.019676e-04
N -1.619454e+00 -9.184547e-01 -3.316532e+00 -3.275336e-03 3.156317e-04 2.413482e-04
