108
Energy=-2.725432e+06 Lattice="9.487221e+00 0.000000e+00 0.000000e+00 -4.745319e+00 8.212375e+00 0.000000e+00 -6.649155e-05 -3.366512e-04 1.529994e+01" Stress="-9.489971e-02 6.557174e-03 -1.847153e-04 6.553502e-03 -8.811283e-02 -2.814063e-04 -1.807895e-04 -2.803284e-04 -9.182906e-02" Properties=species:S:1:pos:R:3:forces:R:3 Config_type=AlGaN_super3_50_2_1.xyz
Al 1.564600e+00 9.012346e-01 2.475174e+00 -9.911240e-04 -1.496945e-02 -9.188270e-03
Al 1.564155e+00 9.012115e-01 7.510516e+00 -8.616349e-04 -1.392818e-02 -2.743035e-03
Ga 1.564397e+00 9.021939e-01 -2.755058e+00 -2.113235e-03 -1.659855e-02 -4.069682e-03
Ga -2.024599e-03 3.613231e+00 2.468920e+00 -2.960718e-03 -1.745962e-03 -7.284741e-03
Ga -1.882257e-03 3.612975e+00 7.511182e+00 -2.863704e-03 -1.359878e-03 -5.736905e-04
Ga -2.278041e-03 3.614084e+00 -2.751785e+00 -2.822157e-03 -1.654856e-03 -2.379121e-04
Ga 3.176573e+00 -1.884861e+00 2.474636e+00 -3.952525e-03 1.988083e-03 -9.305962e-03
Ga 3.175845e+00 -1.884419e+00 7.510726e+00 -3.340667e-03 1.703886e-03 -2.253691e-03
Ga 3.176536e+00 -1.884841e+00 -2.754212e+00 -2.740606e-03 1.568693e-03 -1.304381e-03
Ga -4.789068e+00 9.013683e-01 2.470079e+00 4.505655e-04 -1.569665e-02 -8.966646e-03
Ga -4.788907e+00 9.015677e-01 7.511049e+00 4.978710e-04 -1.580358e-02 -3.116512e-03
Ga -4.788418e+00 9.020548e-01 -2.751233e+00 7.716203e-04 -1.588949e-02 -2.144640e-03
Ga -6.355819e+00 3.614027e+00 2.469379e+00 -1.023412e-05 -3.686160e-04 -6.202132e-03
Ga -6.355888e+00 3.614266e+00 7.511022e+00 -1.496051e-04 -3.122297e-04 1.469925e-04
Ga -6.355443e+00 3.615063e+00 -2.750803e+00 -1.387884e-04 5.071839e-05 9.818559e-04
Ga -3.177144e+00 -1.884110e+00 2.468908e+00 -3.329584e-04 3.064997e-03 -7.167291e-03
Ga -3.177124e+00 -1.884280e+00 7.511116e+00 -3.493238e-04 3.090103e-03 -8.235603e-04
Ga -3.177081e+00 -1.883889e+00 -2.750864e+00 -2.897623e-04 3.139709e-03 -1.826383e-05
Ga -1.653985e+00 9.019128e-01 2.470282e+00 1.560751e-02 -8.504054e-03 -1.189357e-02
Ga -1.653634e+00 9.024110e-01 7.511466e+00 1.532625e-02 -8.761529e-03 -5.939256e-03
Ga -1.654309e+00 9.027712e-01 -2.751928e+00 1.561260e-02 -8.685574e-03 -5.531230e-03
Ga -3.221582e+00 3.615215e+00 2.469762e+00 1.431498e-02 7.400058e-03 -8.960419e-03
Ga -3.221558e+00 3.615155e+00 7.511051e+00 1.439908e-02 7.385584e-03 -2.895747e-03
Ga -3.221508e+00 3.615663e+00 -2.750954e+00 1.427970e-02 7.361016e-03 -2.001926e-03
Ga -4.412410e-02 -1.883538e+00 2.474833e+00 1.505076e-02 1.049486e-02 -1.091152e-02
Ga -4.330747e-02 -1.883136e+00 7.510981e+00 1.438326e-02 1.029933e-02 -4.179113e-03
Ga -4.382375e-02 -1.883501e+00 -2.753779e+00 1.377411e-02 1.005344e-02 -3.546727e-03
Ga -1.634476e-03 1.804790e+00 4.992119e+00 -1.419448e-02 -1.025800e-02 -4.388525e-03
Al -2.114622e-03 1.805260e+00 -5.272794e+00 -1.112013e-02 -8.119196e-03 -3.198338e-03
Ga -1.337583e-03 1.803827e+00 -2.271149e-01 -1.376865e-02 -1.006862e-02 3.460872e-02
Ga 3.176509e+00 -3.694572e+00 4.992694e+00 -1.432714e-02 -7.387303e-03 -3.289896e-03
Ga 3.176458e+00 -3.694585e+00 -5.271173e+00 -1.397991e-02 -7.517729e-03 -2.972184e-03
Ga 3.175488e+00 -3.692347e+00 -2.264276e-01 -1.395727e-02 -7.051716e-03 3.546599e-02
Ga 1.609260e+00 -9.804476e-01 4.993557e+00 -1.535449e-02 8.636560e-03 -7.372106e-03
Ga 1.608854e+00 -9.801637e-01 -5.272578e+00 -1.538821e-02 9.238978e-03 -6.879489e-03
Al 1.608851e+00 -9.796610e-01 -2.477557e-01 -1.342003e-02 7.846184e-03 3.057615e-02
Ga 3.131347e+00 1.805380e+00 4.992231e+00 3.356960e-04 -3.163905e-03 -1.138900e-03
Ga 3.131179e+00 1.805963e+00 -5.272129e+00 -3.282254e-04 -3.520002e-03 -1.240197e-03
Ga 3.131039e+00 1.804316e+00 -2.273327e-01 -6.345248e-05 -3.101163e-03 3.798549e-02
Ga 6.309995e+00 -3.693556e+00 4.991889e+00 9.990638e-05 -1.795235e-04 4.838045e-05
Ga 6.309961e+00 -3.693790e+00 -5.270669e+00 -2.410435e-04 -3.128603e-04 1.739131e-04
Ga 6.310027e+00 -3.693258e+00 -2.249493e-01 9.788916e-05 -2.089705e-04 3.835544e-02
Ga 4.743558e+00 -9.805714e-01 4.992818e+00 -8.655163e-04 1.605075e-02 -3.248278e-03
Ga 4.743337e+00 -9.800843e-01 -5.271133e+00 -8.286582e-04 1.604773e-02 -3.003967e-03
Ga 4.741521e+00 -9.799971e-01 -2.262080e-01 -9.488352e-04 1.553499e-02 3.561923e-02
Ga -3.221170e+00 1.806096e+00 4.991641e+00 3.005576e-03 -1.828084e-03 -2.150970e-03
Ga -3.220549e+00 1.806689e+00 -5.271217e+00 3.114210e-03 -2.205673e-03 -1.860097e-03
Ga -3.220957e+00 1.806497e+00 -2.259014e-01 3.153963e-03 -1.871116e-03 3.657007e-02
Ga -4.319879e-02 -3.693190e+00 4.992361e+00 2.846205e-03 1.162192e-03 -1.330715e-03
Ga -4.291567e-02 -3.692645e+00 -5.271234e+00 2.771461e-03 1.192058e-03 -6.604166e-04
Ga -4.187250e-02 -3.691029e+00 -2.268913e-01 2.569881e-03 1.330809e-03 3.778820e-02
Ga -1.610410e+00 -9.798045e-01 4.992762e+00 1.763477e-03 1.738396e-02 -4.259968e-03
Ga -1.609600e+00 -9.789607e-01 -5.271162e+00 1.637387e-03 1.749880e-02 -3.988328e-03
Ga -1.608279e+00 -9.790320e-01 -2.267144e-01 1.672247e-03 1.692704e-02 3.452622e-02
N 1.564610e+00 9.018551e-01 4.393000e+00 -1.118654e-03 -1.624217e-02 -1.722507e-02
N 1.562474e+00 9.027534e-01 -5.871426e+00 -1.851185e-02 -6.252327e-03 -1.056235e-02
N 1.564471e+00 9.000462e-01 -8.339282e-01 -4.625312e-04 -3.294116e-02 1.208728e-02
N -2.122127e-03 3.613959e+00 4.392825e+00 -2.220914e-03 1.239820e-04 -2.091168e-04
N -2.185043e-03 3.611917e+00 -5.868365e+00 -1.969429e-03 -2.003904e-02 7.558097e-03
N -2.529042e-03 3.614165e+00 -8.274901e-01 -2.242016e-03 -2.608007e-05 2.710993e-03
N 3.176838e+00 -1.885389e+00 4.395743e+00 -2.615268e-03 1.534882e-03 1.509664e-04
N 3.176091e+00 -1.884712e+00 -5.869319e+00 -2.770984e-03 1.353829e-03 1.198346e-04
N 3.174584e+00 -1.883614e+00 -8.331351e-01 -1.951350e-02 1.131865e-02 9.864994e-03
N -4.788560e+00 9.014547e-01 4.393296e+00 5.455436e-04 -1.636332e-02 3.945885e-03
N -4.788306e+00 9.020223e-01 -5.869132e+00 6.373899e-04 -1.613143e-02 4.402510e-03
N -4.788468e+00 9.019552e-01 -8.279525e-01 6.817989e-04 -1.608205e-02 6.338587e-03
N -6.355681e+00 3.614628e+00 4.393035e+00 -4.355214e-04 4.227729e-04 1.929023e-04
N -6.355439e+00 3.615080e+00 -5.868995e+00 -2.669921e-04 7.546020e-04 4.680591e-04
N -6.355118e+00 3.614976e+00 -8.270047e-01 -2.992261e-04 2.295894e-04 3.238980e-03
N -3.177187e+00 -1.884428e+00 4.392837e+00 -1.064424e-03 1.959673e-03 -5.816199e-04
N -3.177063e+00 -1.884065e+00 -5.868849e+00 -7.720094e-04 1.736895e-03 2.629298e-04
N -3.177143e+00 -1.883678e+00 -8.269161e-01 -1.007260e-03 2.108563e-03 2.514631e-03
N -1.654445e+00 9.020796e-01 4.393231e+00 1.556103e-02 -8.911603e-03 7.518219e-03
N -1.652239e+00 9.039853e-01 -5.868389e+00 3.004790e-02 -7.506213e-04 1.341235e-02
N -1.654216e+00 9.027367e-01 -8.287063e-01 1.540027e-02 -8.829155e-03 9.614145e-03
N -3.221502e+00 3.615294e+00 4.393010e+00 1.449707e-02 7.894010e-03 3.701058e-03
N -3.221435e+00 3.615595e+00 -5.868980e+00 1.434123e-02 8.033912e-03 4.007484e-03
N -3.221395e+00 3.615874e+00 -8.277933e-01 1.434665e-02 7.532512e-03 6.217213e-03
N -4.427975e-02 -1.884055e+00 4.395686e+00 1.383949e-02 9.309515e-03 4.096030e-03
N -4.336973e-02 -1.883393e+00 -5.869205e+00 1.383682e-02 9.072884e-03 3.811069e-03
N -4.179992e-02 -1.882270e+00 -8.329296e-01 2.833628e-02 1.700448e-02 1.222719e-02
N 9.951076e-04 1.802405e+00 1.871177e+00 3.445429e-03 -1.911565e-02 -2.420393e-02
N 1.564755e-04 1.803610e+00 6.913313e+00 3.547961e-03 -1.944449e-02 1.102754e-02
N -2.030450e-03 1.805555e+00 -3.354054e+00 -1.379797e-02 -9.203767e-03 -1.792144e-02
N 3.175868e+00 -3.693665e+00 1.869409e+00 -1.412152e-02 -7.802013e-03 -3.057784e-02
N 3.176335e+00 -3.694533e+00 6.913271e+00 -1.424224e-02 -7.818826e-03 4.146893e-03
N 3.176404e+00 -3.694184e+00 -3.350765e+00 -1.468592e-02 -7.777771e-03 4.279145e-03
N 1.608967e+00 -9.779294e-01 1.888230e+00 -1.597436e-02 2.590209e-02 -3.821992e-02
N 1.609130e+00 -9.781601e-01 6.914210e+00 -1.580410e-02 2.573692e-02 1.320906e-02
N 1.609233e+00 -9.804985e-01 -3.352741e+00 -1.548626e-02 8.803700e-03 8.797474e-03
N 3.128854e+00 1.803228e+00 1.871561e+00 -1.658614e-02 -1.164242e-02 -2.793823e-02
N 3.129611e+00 1.804373e+00 6.913736e+00 -1.662601e-02 -1.196796e-02 7.151020e-03
N 3.131901e+00 1.806199e+00 -3.351159e+00 1.409966e-03 -1.951552e-03 2.215565e-04
N 6.310098e+00 -3.693701e+00 1.868165e+00 5.064255e-04 -7.527871e-05 -3.419886e-02
N 6.310003e+00 -3.693658e+00 6.913077e+00 4.173954e-04 -1.597662e-04 1.723821e-04
N 6.310136e+00 -3.693209e+00 -3.349717e+00 5.916876e-04 -2.240426e-04 6.422490e-04
N 4.742374e+00 -9.804264e-01 1.869517e+00 -2.262579e-04 1.624399e-02 -3.089451e-02
N 4.743352e+00 -9.803564e-01 6.913273e+00 -3.673874e-04 1.638528e-02 3.829110e-03
N 4.743564e+00 -9.800433e-01 -3.350658e+00 -4.978798e-04 1.648141e-02 4.285629e-03
N -3.221235e+00 1.805987e+00 1.868518e+00 2.741687e-03 -1.918773e-03 -3.509903e-02
N -3.221101e+00 1.806119e+00 6.912912e+00 2.741269e-03 -1.909758e-03 -3.792415e-04
N -3.221174e+00 1.806593e+00 -3.350169e+00 2.487893e-03 -1.559506e-03 -2.705435e-04
N -4.281102e-02 -3.692398e+00 1.869866e+00 1.802778e-03 8.653172e-05 -3.488497e-02
N -4.311375e-02 -3.693093e+00 6.913064e+00 1.972331e-03 7.927942e-05 6.563338e-05
N -4.315110e-02 -3.692832e+00 -3.350488e+00 2.241672e-03 -1.418630e-04 1.842243e-04
N -1.609317e+00 -9.798086e-01 1.869501e+00 8.590695e-04 1.653973e-02 -3.142905e-02
N -1.610143e+00 -9.796448e-01 6.913416e+00 9.545442e-04 1.668645e-02 3.572818e-03
N -1.610234e+00 -9.794202e-01 -3.350724e+00 1.061929e-03 1.656820e-02 3.945217e-03
