108
Energy=-1214847.318649 Lattice="9.487214 0.000000 0.000000 -4.746539 8.213293 0.000000 0.002217 0.008878 15.298751" Stress="-0.000004 -0.000001 0.000001 -0.000001 -0.000007 0.000002 0.000001 0.000002 0.000004" Properties=species:S:1:pos:R:3:forces:R:3
Al 1.551431 0.877440 2.436102 0.001471 0.003678 0.002048
Al 1.563940 0.895250 7.500691 -0.000504 0.000240 0.000154
Al 1.567127 0.881264 -2.738162 0.000199 0.000277 0.000078
Al -0.015397 3.605059 2.420195 -0.001425 0.002298 -0.000598
Al -0.028770 3.601404 7.506161 0.000852 0.000210 0.000177
Al -0.009658 3.612475 -2.722343 0.001972 -0.002120 0.000337
Al 3.145278 -1.865429 2.411889 0.002105 0.001878 -0.000659
Al 3.149791 -1.868125 7.503339 -0.001620 0.001487 -0.000501
Ga 3.156406 -1.872844 -2.704483 -0.000673 0.000555 0.000657
Al -4.785675 0.882459 2.439653 -0.000857 -0.004331 0.000047
Al -4.776829 0.889173 7.483473 0.000529 0.000271 0.000149
Al -4.778468 0.874969 -2.720846 0.000138 0.000469 0.000003
Al -6.359329 3.607568 2.422830 0.002274 -0.000728 0.001988
Al -6.342740 3.596945 7.512231 -0.000218 0.000259 0.000273
Al -6.366804 3.598352 -2.733534 0.000181 0.000182 -0.000299
Ga -3.185333 -1.858188 2.401502 -0.001271 0.000877 -0.000424
Ga -3.190586 -1.859471 7.485052 0.000689 0.000502 0.000117
Al -3.185842 -1.884108 -2.686153 -0.000074 -0.000011 0.000749
Al -1.592867 0.884433 2.430345 -0.002282 -0.002811 0.000363
Al -1.603916 0.901991 7.485713 0.000308 -0.000535 0.000306
Ga -1.610737 0.882076 -2.712347 0.001029 -0.000290 -0.000116
Ga -3.178175 3.621736 2.444115 -0.000288 0.000561 0.000342
Al -3.183597 3.610235 7.486041 -0.000216 -0.000273 -0.000101
Ga -3.185300 3.602584 -2.721007 0.000046 -0.000505 0.000307
Al -0.029381 -1.852979 2.429211 0.000264 0.000221 -0.000442
Ga -0.014458 -1.860202 7.502981 -0.000481 0.000050 0.000297
Ga -0.021781 -1.867527 -2.713440 0.000542 0.000060 0.000056
Al -0.033070 1.790993 4.961322 0.000265 -0.000665 0.000672
Al -0.016432 1.791058 -5.271139 -0.000108 -0.000312 -0.000443
Ga -0.020759 1.795431 -0.135628 -0.000108 0.000677 -0.000607
Al 3.149212 -3.691681 4.973370 -0.000379 0.000483 0.000730
Al 3.141021 -3.709834 -5.285629 0.000272 0.000534 0.000348
Al 3.165100 -3.690031 -0.135603 0.000393 0.000450 -0.000035
Ga 1.568546 -0.949353 4.951021 -0.000180 0.001164 0.000662
Al 1.572932 -0.951044 -5.273644 -0.000970 0.000198 -0.000197
Ga 1.570054 -0.955524 -0.114887 -0.000643 0.000280 -0.000494
Al 3.141985 1.793582 4.966727 -0.000192 -0.000092 -0.000193
Al 3.133258 1.786955 -5.267140 0.000045 -0.000331 0.000225
Ga 3.136385 1.786671 -0.143386 -0.000127 -0.000452 0.000392
Ga 6.303733 -3.698382 4.958012 0.000597 -0.000622 0.001201
Al 6.301625 -3.716800 -5.253019 -0.000019 0.000548 -0.000156
Al 6.296127 -3.685312 -0.156032 -0.000395 -0.000019 -0.000389
Al 4.714350 -0.937426 4.961338 -0.000875 0.000922 0.000627
Ga 4.717879 -0.951383 -5.254674 -0.000289 0.000152 0.000751
Al 4.733781 -0.957861 -0.151050 -0.000652 0.000157 -0.000014
Al -3.190130 1.783981 4.966317 0.000206 -0.000276 0.000110
Al -3.195455 1.796011 -5.288715 0.001593 -0.000881 -0.000767
Ga -3.194881 1.771566 -0.120530 -0.000413 0.000398 -0.000795
Al -0.026152 -3.691933 4.964856 -0.000438 -0.001000 0.000302
Al -0.021118 -3.716314 -5.264713 0.000242 0.001687 -0.002340
Ga -0.038043 -3.688661 -0.134529 0.000261 0.000429 0.000536
Al -1.602168 -0.935011 4.929802 -0.000276 0.002383 0.008988
Ga -1.598394 -0.950099 -5.255257 -0.000003 0.000149 -0.000223
Al -1.613644 -0.957405 -0.134919 -0.000288 -0.000249 -0.000126
N 1.555443 0.928639 4.347572 0.000039 0.000429 -0.000074
N 1.557377 0.873827 -5.873900 0.000741 0.000145 -0.000018
N 1.555380 0.868021 -0.821455 0.000223 0.000043 -0.000305
N -0.065221 3.590545 4.334818 -0.000583 0.000308 -0.001179
N -0.021375 3.602912 -5.874448 -0.000065 0.000084 -0.000113
N -0.022734 3.653590 -0.793337 0.000034 0.000306 0.000251
N 3.187926 -1.892457 4.330136 0.000245 -0.000645 -0.000951
N 3.109691 -1.896212 -5.883310 -0.000311 -0.000317 -0.000379
N 3.181502 -1.892310 -0.723980 -0.000354 0.000066 0.000216
N -4.775170 0.878259 4.362923 0.000681 -0.000244 -0.000399
N -4.775794 0.915586 -5.898480 0.000482 0.000176 -0.000521
N -4.772726 0.831740 -0.804688 0.000570 -0.000055 0.000116
N -6.309021 3.589681 4.334528 -0.000218 0.000368 -0.000818
N -6.351001 3.601572 -5.864174 -0.000212 0.000164 0.000022
N -6.393192 3.629969 -0.813489 0.000117 0.000199 0.000341
N -3.190751 -1.813748 4.383235 0.000568 -0.000672 -0.001546
N -3.184046 -1.919406 -5.854599 -0.000211 -0.000459 0.000097
N -3.180972 -1.869569 -0.747733 0.000130 -0.000038 0.000547
N -1.607335 0.884331 4.351174 0.000346 -0.000360 -0.000590
N -1.599163 0.918389 -5.895685 -0.001970 0.001502 0.001427
N -1.607864 0.833870 -0.742957 0.000459 -0.000491 0.000474
N -3.182541 3.620059 4.422751 0.000492 -0.000499 -0.000080
N -3.189250 3.608940 -5.886447 0.000420 -0.000332 0.000014
N -3.145972 3.633265 -0.738601 0.000166 -0.000206 0.000352
N -0.064236 -1.885171 4.344829 0.000163 -0.000331 -0.001263
N 0.019870 -1.895007 -5.828165 0.000434 -0.001062 0.000498
N -0.055200 -1.839944 -0.742138 -0.000046 0.000144 0.000213
N -0.022208 1.790514 1.853260 0.000427 -0.000265 -0.000782
N -0.020485 1.790358 6.887630 -0.000010 0.001106 -0.000936
N 0.017282 1.805647 -3.349323 -0.000449 0.001214 0.000524
N 3.186462 -3.667449 1.783707 0.001003 -0.001305 0.000403
N 3.149129 -3.687590 6.898398 0.000109 0.000381 -0.000293
N 3.190084 -3.722661 -3.368092 -0.002133 0.001009 -0.001874
N 1.556202 -0.937613 1.875887 0.000820 -0.003940 0.000433
N 1.602924 -0.915590 6.921834 0.002271 -0.002059 0.000295
N 1.572379 -0.913655 -3.359561 -0.000285 0.000218 -0.000380
N 3.127510 1.792188 1.853158 0.001751 -0.001553 -0.002510
N 3.136371 1.795142 6.889196 -0.000018 -0.000296 -0.000736
N 3.139591 1.781751 -3.339134 0.000297 0.000052 0.000234
N 6.312310 -3.740221 1.778274 -0.003348 0.001012 -0.000765
N 6.309149 -3.741179 6.925060 -0.001370 -0.000888 0.000048
N 6.300704 -3.692055 -3.324750 0.000491 0.000124 0.000108
N 4.681051 -0.920084 1.770128 -0.000591 0.002060 0.001968
N 4.678465 -0.920788 6.875955 -0.001214 -0.000270 -0.000955
N 4.769446 -0.932672 -3.280670 -0.000077 -0.000332 0.000047
N -3.198257 1.744806 1.859122 0.001855 -0.000426 0.000168
N -3.189624 1.788348 6.887599 0.000176 0.000408 -0.000264
N -3.230986 1.760029 -3.374724 -0.000255 0.000071 -0.000000
N -0.062895 -3.662036 1.848542 -0.000285 -0.001128 -0.001435
N -0.027761 -3.730357 6.880777 0.000422 -0.000614 -0.000662
N -0.060089 -3.720028 -3.361105 -0.000925 -0.000713 0.002052
N -1.561384 -0.921166 1.787199 -0.000429 0.001358 0.000417
N -1.598257 -0.890848 6.864881 -0.000015 -0.001308 -0.005889
N -1.647150 -0.975730 -3.296951 -0.000773 -0.000320 0.000375
