108
Energy=-2.542335e+06 Lattice="9.579187e+00 0.000000e+00 0.000000e+00 -4.801779e+00 8.277668e+00 0.000000e+00 9.545845e-02 8.436936e-02 1.547021e+01" Stress="-3.739883e-02 3.541746e-03 3.439397e-03 3.528718e-03 -3.717723e-02 2.892790e-03 3.436876e-03 2.903741e-03 -3.766730e-02" Properties=species:S:1:pos:R:3:forces:R:3 Config_type=AlGaN_super3_46_1_3.xyz
Al 1.629483e+00 9.427355e-01 2.458085e+00 -5.835431e-05 -7.238716e-03 -3.136059e-03
Al 1.624267e+00 9.430840e-01 7.588302e+00 -1.372475e-04 -7.301998e-03 -2.250601e-04
Ga 1.522135e+00 8.540847e-01 -2.742759e+00 5.121384e-04 -7.760803e-03 -7.481268e-04
Ga 3.475837e-02 3.681950e+00 2.442712e+00 -2.569439e-03 1.644092e-04 -2.556363e-04
Al 3.885173e-02 3.681575e+00 7.589260e+00 -1.592904e-03 -7.099822e-04 6.660157e-04
Ga -7.009247e-02 3.595418e+00 -2.746239e+00 5.908855e-04 -5.049437e-04 4.668372e-04
Ga 3.244673e+00 -1.844381e+00 2.441419e+00 -1.204776e-03 -2.000906e-03 3.708499e-04
Ga 3.251387e+00 -1.841787e+00 7.593543e+00 -2.569965e-03 -7.381273e-04 1.263923e-04
Ga 3.149422e+00 -1.932963e+00 -2.754141e+00 1.624042e-04 1.637865e-03 -4.848825e-05
Ga -4.777134e+00 9.456975e-01 2.454448e+00 1.241249e-04 -8.329879e-03 -3.282674e-03
Ga -4.780509e+00 9.393912e-01 7.599488e+00 9.905003e-04 -6.802649e-03 -3.839935e-04
Ga -4.867858e+00 8.607402e-01 -2.747824e+00 1.526911e-03 -8.010267e-03 -9.848849e-04
Ga -6.363326e+00 3.691379e+00 2.462089e+00 -1.163876e-03 -9.055279e-04 -1.348036e-03
Ga -6.370719e+00 3.685674e+00 7.587726e+00 8.415393e-04 5.759977e-04 7.653179e-04
Ga -6.458382e+00 3.601701e+00 -2.743927e+00 1.372350e-04 8.914827e-04 8.486169e-04
Ga -3.151279e+00 -1.838198e+00 2.453546e+00 -6.364139e-04 4.969770e-04 -1.415814e-03
Ga -3.159656e+00 -1.842398e+00 7.597999e+00 1.084084e-03 5.249140e-04 1.081128e-03
Ga -3.251794e+00 -1.921725e+00 -2.752830e+00 1.869314e-04 1.131774e-03 5.647487e-04
Ga -1.593109e+00 9.500654e-01 2.457648e+00 7.534825e-03 -4.887107e-03 -4.529543e-03
Ga -1.595019e+00 9.505174e-01 7.592816e+00 8.962123e-03 -4.517241e-03 -2.613886e-03
Al -1.695629e+00 8.640741e-01 -2.750092e+00 7.188916e-03 -4.442319e-03 -1.096522e-03
Ga -3.194960e+00 3.692639e+00 2.464476e+00 6.925741e-03 2.396886e-03 -3.892680e-03
Ga -3.189054e+00 3.691915e+00 7.586481e+00 7.257505e-03 4.230433e-03 -4.020939e-04
Al -3.278501e+00 3.605785e+00 -2.743960e+00 5.081442e-03 1.664952e-03 1.413381e-03
Ga 2.611432e-02 -1.833732e+00 2.460692e+00 7.009477e-03 3.860710e-03 -3.324935e-03
Ga 2.271154e-02 -1.836778e+00 7.587827e+00 8.126980e-03 3.491574e-03 -7.056434e-04
Ga -7.386555e-02 -1.922874e+00 -2.743763e+00 6.821071e-03 3.924746e-03 -1.203227e-03
Ga 4.518170e-02 1.855220e+00 5.025083e+00 -7.584813e-03 -4.728850e-03 1.386606e-05
Ga -5.734548e-02 1.767161e+00 -5.319070e+00 -6.174719e-03 -3.688568e-03 3.102105e-04
Ga -6.612684e-02 1.767058e+00 -1.734103e-01 -3.832553e-03 -2.112736e-03 1.203269e-02
Ga 3.250323e+00 -3.677096e+00 5.026568e+00 -7.618435e-03 -3.191233e-03 -4.109999e-04
Ga 3.156002e+00 -3.761749e+00 -5.315980e+00 -6.927032e-03 -2.999103e-03 -3.784390e-04
Al 3.165813e+00 -3.749610e+00 -2.025247e-01 -8.351030e-03 -4.255023e-03 1.804176e-02
Ga 1.662182e+00 -9.304730e-01 5.025249e+00 -8.449322e-03 4.806099e-03 -2.107415e-03
Ga 1.569336e+00 -1.013805e+00 -5.316459e+00 -8.569372e-03 4.852702e-03 -2.140964e-03
Ga 1.565909e+00 -1.023814e+00 -1.653489e-01 -6.044590e-03 8.514265e-03 1.055280e-02
Ga 3.214150e+00 1.856767e+00 5.023914e+00 -3.654883e-04 -1.011914e-03 1.109886e-03
Ga 3.117339e+00 1.764988e+00 -5.316738e+00 -1.427943e-04 -8.526694e-04 8.346227e-04
Ga 3.113383e+00 1.766098e+00 -1.703194e-01 2.760225e-03 1.419702e-03 1.516498e-02
Ga 6.427284e+00 -3.673808e+00 5.028929e+00 4.091109e-05 -5.118945e-04 1.138826e-03
Ga 6.325342e+00 -3.757476e+00 -5.316408e+00 2.069504e-04 -1.608992e-04 8.511067e-04
Ga 6.324576e+00 -3.760915e+00 -1.751152e-01 4.033447e-03 2.031822e-03 1.403902e-02
Ga 4.837392e+00 -9.291236e-01 5.023736e+00 -1.409702e-03 7.974033e-03 -2.969346e-04
Al 4.740008e+00 -1.011974e+00 -5.311663e+00 -1.291110e-03 6.388957e-03 1.480671e-04
Ga 4.736258e+00 -1.020249e+00 -1.748719e-01 2.724402e-03 1.184987e-02 1.171670e-02
Ga -3.189618e+00 1.863110e+00 5.025378e+00 1.318772e-03 -8.425656e-04 1.385473e-04
Ga -3.282191e+00 1.772250e+00 -5.305485e+00 -1.666980e-04 -3.116298e-04 1.175735e-03
Ga -3.277376e+00 1.776460e+00 -1.858427e-01 3.349451e-03 3.402040e-03 1.363120e-02
Al 2.557084e-02 -3.670029e+00 5.024785e+00 5.816821e-04 5.443124e-04 7.026450e-04
Ga -6.853807e-02 -3.757645e+00 -5.308833e+00 2.502378e-04 7.053552e-04 1.773823e-03
Ga -6.567002e-02 -3.759114e+00 -1.760831e-01 4.652035e-03 1.609812e-03 1.308586e-02
Ga -1.562787e+00 -9.295549e-01 5.026802e+00 1.379120e-04 9.054544e-03 -1.233579e-03
Ga -1.664567e+00 -1.007202e+00 -5.308480e+00 7.276894e-05 7.264053e-03 -9.769185e-04
Ga -1.665235e+00 -1.010451e+00 -1.802269e-01 3.439549e-03 1.154922e-02 1.286452e-02
N 1.626490e+00 9.426655e-01 4.384056e+00 2.162875e-04 -8.731849e-03 -1.131437e-02
N 1.528178e+00 8.561538e-01 -5.953565e+00 5.105604e-05 -8.130096e-03 -1.188238e-02
N 1.523981e+00 8.522425e-01 -7.917908e-01 8.319633e-04 -7.909409e-03 1.539663e-03
N 3.657515e-02 3.686892e+00 4.401258e+00 -7.858073e-04 3.335754e-04 -1.277537e-03
N -6.110346e-02 3.600073e+00 -5.950707e+00 -8.581828e-04 -3.773581e-06 -1.373811e-02
N -7.598762e-02 3.610234e+00 -7.918446e-01 -9.921663e-03 5.873199e-03 4.879462e-03
N 3.248152e+00 -1.844317e+00 4.402598e+00 -1.146575e-03 5.220148e-04 -1.919126e-03
N 3.169739e+00 -1.918514e+00 -5.921658e+00 9.239441e-03 5.999256e-03 3.111154e-03
N 3.152235e+00 -1.944248e+00 -7.995134e-01 -9.010603e-04 -9.648527e-03 5.182006e-03
N -4.775938e+00 9.437290e-01 4.406657e+00 6.502849e-04 -8.465174e-03 5.924563e-04
N -4.870909e+00 8.362778e-01 -5.915332e+00 1.549946e-03 -1.795138e-02 4.258134e-03
N -4.874849e+00 8.564723e-01 -7.953910e-01 1.630412e-03 -7.434178e-03 2.506098e-03
N -6.348332e+00 3.700970e+00 4.419025e+00 9.811793e-03 5.906370e-03 3.545132e-03
N -6.460271e+00 3.604331e+00 -5.929221e+00 -2.151445e-04 3.199610e-04 -8.397547e-04
N -6.463225e+00 3.600635e+00 -7.918652e-01 6.393561e-04 1.273391e-03 6.972409e-04
N -3.153881e+00 -1.840906e+00 4.406665e+00 -3.551847e-04 5.595185e-04 -1.520996e-03
N -3.268698e+00 -1.913972e+00 -5.917984e+00 -9.954769e-03 6.572205e-03 3.010941e-03
N -3.254138e+00 -1.927510e+00 -8.003964e-01 5.399336e-04 1.202382e-03 -1.041130e-04
N -1.598228e+00 9.488846e-01 4.409991e+00 8.154634e-03 -5.193409e-03 3.073960e-03
N -1.696829e+00 8.628971e-01 -5.929229e+00 8.296331e-03 -4.967538e-03 2.706639e-03
N -1.698195e+00 8.595970e-01 -8.242230e-01 9.459024e-03 -4.373707e-03 -7.342191e-03
N -3.207471e+00 3.703576e+00 4.419220e+00 -2.601462e-03 9.301322e-03 4.700736e-03
N -3.287113e+00 3.606486e+00 -5.931772e+00 7.918302e-03 3.055613e-03 8.457282e-04
N -3.263956e+00 3.619779e+00 -8.062603e-01 1.719261e-02 9.315092e-03 -9.107213e-03
N 2.270467e-02 -1.856968e+00 4.416035e+00 7.383504e-03 -7.841849e-03 4.728539e-03
N -7.526968e-02 -1.924031e+00 -5.928683e+00 7.108850e-03 4.341424e-03 7.586315e-04
N -7.589745e-02 -1.924652e+00 -7.931505e-01 8.188698e-03 4.900444e-03 2.004551e-03
N 6.413395e-02 1.841240e+00 1.837647e+00 -1.728364e-03 -1.199949e-02 -7.674437e-03
N 5.961088e-02 1.862684e+00 6.985454e+00 2.302742e-03 1.698077e-03 8.483693e-03
N -7.622092e-02 1.756394e+00 -3.359691e+00 -1.599766e-02 -8.665331e-03 3.271352e-03
N 3.233516e+00 -3.690400e+00 1.824763e+00 -5.323398e-03 -1.751369e-03 -2.759813e-02
N 3.269588e+00 -3.686439e+00 6.982510e+00 2.598177e-03 -9.140942e-03 5.235437e-03
N 3.135576e+00 -3.774733e+00 -3.359757e+00 -1.651155e-02 -8.178938e-03 4.111579e-03
N 1.663174e+00 -9.016147e-01 1.843785e+00 -1.139991e-02 1.063507e-02 -6.278060e-03
N 1.663523e+00 -9.085707e-01 6.981581e+00 -8.497520e-03 1.478407e-02 6.057825e-03
N 1.563969e+00 -1.015802e+00 -3.365319e+00 -8.568752e-03 4.866333e-03 2.210316e-03
N 3.199194e+00 1.850291e+00 1.849251e+00 -1.219553e-02 -8.980715e-03 -9.900841e-03
N 3.197356e+00 1.843359e+00 6.982184e+00 -9.230385e-03 -6.632595e-03 2.564794e-03
N 3.115523e+00 1.768770e+00 -3.363754e+00 9.756015e-05 -1.299073e-03 -1.451088e-03
N 6.429544e+00 -3.671247e+00 1.830960e+00 -3.244003e-03 -3.150747e-03 -1.232774e-02
N 6.407480e+00 -3.683305e+00 6.985393e+00 -9.904096e-03 -5.637167e-03 2.873946e-03
N 6.327093e+00 -3.761925e+00 -3.363543e+00 -1.107090e-04 -7.563117e-04 -3.461653e-04
N 4.840233e+00 -9.279625e-01 1.824976e+00 -4.412607e-03 5.276581e-03 -9.717763e-03
N 4.837273e+00 -9.286592e-01 6.974441e+00 -5.630412e-04 8.607939e-03 1.477295e-04
N 4.739005e+00 -1.014795e+00 -3.386088e+00 -1.489250e-03 8.439876e-03 -1.096888e-02
N -3.184461e+00 1.862657e+00 1.831517e+00 -1.530245e-03 -4.629232e-03 -1.360109e-02
N -3.188713e+00 1.856730e+00 6.976912e+00 5.884415e-04 -1.358616e-03 -1.211038e-03
N -3.264005e+00 1.784102e+00 -3.346327e+00 1.050719e-02 5.686184e-03 7.028204e-03
N 2.681413e-02 -3.668807e+00 1.830494e+00 -2.865881e-03 -2.019498e-03 -1.197717e-02
N 2.328938e-02 -3.671877e+00 6.952338e+00 5.352711e-04 2.818101e-05 -1.321681e-02
N -5.286325e-02 -3.767288e+00 -3.352194e+00 1.126697e-02 -5.938558e-03 3.188775e-03
N -1.560006e+00 -9.223690e-01 1.832632e+00 -3.453229e-03 5.961202e-03 -1.197099e-02
N -1.566897e+00 -9.267288e-01 6.977510e+00 -8.970678e-04 8.664169e-03 8.128375e-04
N -1.660976e+00 -9.896881e-01 -3.355469e+00 1.317156e-04 1.852407e-02 4.670839e-03
