108
Energy=-894418.995180 Lattice="9.454103 0.000000 0.000000 -4.734507 8.184135 0.000000 -0.005274 -0.001433 15.217720" Stress="0.000009 -0.000002 -0.000001 -0.000003 0.000007 -0.000001 -0.000001 -0.000001 0.000016" Properties=species:S:1:pos:R:3:forces:R:3
Al 1.564029 0.883152 2.385917 -0.000248 -0.001519 -0.000220
Al 1.561333 0.868664 7.459764 0.000666 0.000402 0.000265
Al 1.553261 0.880687 -2.679481 -0.000082 0.000726 -0.003822
Al -0.018879 3.604364 2.376800 -0.000064 0.000554 -0.000310
Al -0.030329 3.604325 7.458130 0.000584 0.000044 0.000371
Al -0.032399 3.586768 -2.676056 -0.000458 -0.000549 0.000340
Al 3.154655 -1.862676 2.408932 -0.001303 0.002247 -0.000945
Al 3.139798 -1.863109 7.457114 -0.000420 0.000630 -0.000454
Al 3.142654 -1.860636 -2.702476 0.000367 -0.000221 0.000478
Al -4.757714 0.864250 2.387288 0.000423 0.000166 -0.000626
Al -4.762022 0.865707 7.445459 0.000651 -0.000003 0.000570
Al -4.753845 0.871900 -2.675915 0.001007 0.000234 -0.000137
Al -6.341837 3.589494 2.389674 -0.000800 -0.000175 0.000448
Al -6.337116 3.587194 7.435072 -0.000100 0.000497 0.000038
Al -6.322096 3.585805 -2.663834 0.000397 0.000156 0.000402
Al -3.181758 -1.858936 2.379219 -0.000354 -0.000501 0.000749
Al -3.188656 -1.863386 7.446824 -0.001925 -0.001233 0.001750
Ga -3.184144 -1.852506 -2.664520 0.000085 0.000176 0.000796
Al -1.605918 0.879312 2.390707 -0.000180 -0.003073 -0.005162
Ga -1.618526 0.881086 7.477494 0.000859 -0.000347 0.000922
Al -1.598552 0.889042 -2.687471 0.000047 0.001153 0.000349
Ga -3.173552 3.592514 2.388163 0.000932 0.000386 0.000221
Al -3.184101 3.596337 7.457953 0.000659 -0.000388 0.000952
Al -3.172825 3.593346 -2.686884 0.000441 0.000021 0.000154
Ga -0.030356 -1.854828 2.402714 0.000919 0.000823 0.000412
Ga -0.023330 -1.869304 7.469421 0.000981 0.000471 -0.000359
Ga -0.015579 -1.855594 -2.689109 0.000874 -0.000463 0.000421
Ga -0.022591 1.780131 4.910494 -0.000178 0.000169 0.000648
Al -0.031467 1.773567 -5.214053 0.001385 0.001919 0.001326
Al -0.026478 1.785675 -0.145335 -0.001082 0.000385 -0.001435
Al 3.132087 -3.669849 4.935711 -0.000177 -0.000020 0.000258
Al 3.127204 -3.680845 -5.228361 -0.000465 0.000198 0.000495
Al 3.142474 -3.678089 -0.161233 -0.000274 0.000756 -0.000475
Al 1.572225 -0.951871 4.924051 -0.000068 0.000521 0.001223
Al 1.562816 -0.952422 -5.222604 0.000956 -0.000133 0.001990
Ga 1.575182 -0.942412 -0.147449 -0.000714 -0.000284 -0.001742
Al 3.132448 1.776473 4.920686 0.000106 0.000787 0.000531
Ga 3.132760 1.772133 -5.221112 0.000550 0.000499 0.001034
Al 3.130038 1.788321 -0.151298 0.000777 0.000144 -0.001070
Al 6.281788 -3.669195 4.917467 0.000422 -0.000124 -0.000044
Ga 6.281867 -3.676276 -5.227217 0.000296 -0.000021 0.000465
Al 6.286775 -3.679396 -0.141049 -0.000307 -0.001440 0.000306
Al 4.706585 -0.950549 4.918439 0.000056 0.000194 -0.000023
Al 4.707201 -0.945418 -5.238038 -0.000520 -0.000303 0.000656
Al 4.708746 -0.943478 -0.130904 -0.001174 -0.000107 -0.000410
Al -3.191020 1.777854 4.922846 -0.000490 0.000227 -0.000068
Al -3.174570 1.782780 -5.210658 -0.002470 0.002169 0.001290
Al -3.176511 1.779073 -0.161899 -0.000073 -0.000161 -0.000602
Al -0.025943 -3.683214 4.935330 0.000139 0.000077 -0.000334
Al -0.005504 -3.681849 -5.221240 -0.000142 -0.003786 0.000871
Al -0.025617 -3.687603 -0.151933 0.000370 0.000035 -0.000544
Al -1.616889 -0.950503 4.915836 0.002003 -0.001987 0.001285
Al -1.601472 -0.944165 -5.213010 0.000625 0.002926 -0.001998
Al -1.606526 -0.934523 -0.133877 -0.000152 0.000688 0.000241
N 1.592988 0.849258 4.296858 0.000911 -0.000383 -0.000633
N 1.513351 0.846902 -5.842909 -0.001051 -0.000841 -0.000153
N 1.549400 0.923155 -0.786462 0.000202 0.000152 0.007868
N -0.030920 3.647102 4.293539 -0.000119 0.000490 -0.000160
N -0.065174 3.573438 -5.844282 -0.000305 -0.000042 -0.000675
N -0.023917 3.596732 -0.752678 0.000143 -0.000138 0.000530
N 3.136551 -1.864116 4.325960 0.000168 -0.000044 0.000006
N 3.134080 -1.862130 -5.835641 0.000264 0.000071 0.000073
N 3.179495 -1.878104 -0.788280 0.001290 -0.000585 0.000308
N -4.756593 0.869268 4.312657 0.000708 -0.000217 -0.000228
N -4.709351 0.849095 -5.853491 0.000941 0.000133 -0.001062
N -4.752859 0.866948 -0.753402 0.000206 0.000100 0.000681
N -6.333416 3.596621 4.317856 0.000007 -0.000055 0.000019
N -6.287851 3.619021 -5.878078 0.000401 -0.000120 0.000643
N -6.327522 3.600427 -0.749932 -0.000539 0.000084 0.000244
N -3.177596 -1.860855 4.305442 0.000073 0.000223 0.000399
N -3.171032 -1.815150 -5.851720 0.000145 0.000941 -0.000205
N -3.174794 -1.854870 -0.685969 0.000516 0.000325 -0.000644
N -1.646328 0.849086 4.288623 -0.000404 0.000818 0.004678
N -1.607529 0.893796 -5.765970 0.001632 -0.008737 -0.000636
N -1.598617 0.876645 -0.760488 0.000736 -0.000477 -0.000014
N -3.177839 3.602262 4.367090 0.000427 -0.000845 0.000030
N -3.175257 3.596446 -5.830490 -0.000198 -0.000301 -0.000534
N -3.176039 3.604275 -0.758563 0.000289 -0.000616 0.000238
N -0.012104 -1.856376 4.382860 -0.004103 -0.000175 0.000768
N -0.015798 -1.872723 -5.761702 -0.001818 0.006162 -0.001015
N -0.059500 -1.872798 -0.714652 -0.000566 -0.000863 -0.000164
N -0.024636 1.780476 1.786927 0.000597 -0.000420 -0.000105
N 0.013871 1.796330 6.880509 -0.001050 0.000846 -0.000055
N -0.019837 1.780799 -3.290621 -0.000134 0.000137 -0.000173
N 3.173194 -3.645658 1.759003 0.000048 -0.002159 -0.000760
N 3.129740 -3.681095 6.858080 -0.000269 0.000681 -0.000217
N 3.136310 -3.681376 -3.298049 -0.000221 0.000216 -0.000088
N 1.603540 -0.933028 1.817050 0.000603 0.002109 0.003591
N 1.593508 -0.927307 6.845491 0.001075 -0.001154 -0.001435
N 1.605702 -0.921145 -3.298269 -0.001018 0.000165 -0.002528
N 3.130665 1.782882 1.775059 -0.000383 -0.000646 -0.000032
N 3.122772 1.774165 6.846254 -0.000272 -0.000595 -0.000839
N 3.130311 1.781484 -3.241321 0.000203 -0.000414 -0.000134
N 6.286196 -3.681163 1.783456 0.000140 0.000526 0.000013
N 6.276512 -3.678069 6.846568 -0.000338 -0.000155 -0.000785
N 6.286921 -3.725759 -3.250763 0.000033 0.000474 0.000094
N 4.701629 -0.946933 1.790269 0.000009 0.000150 0.000541
N 4.704672 -0.950679 6.843230 -0.001205 -0.000266 -0.000654
N 4.673714 -0.922638 -3.319849 -0.000899 0.000526 -0.001015
N -3.178325 1.734785 1.756174 -0.000740 -0.000287 0.000192
N -3.221374 1.800894 6.835808 -0.000572 0.000149 -0.001519
N -3.180355 1.781798 -3.284905 -0.000645 -0.000089 0.000929
N -0.062751 -3.702445 1.755636 0.000334 -0.000338 0.000172
N -0.023707 -3.725472 6.841280 0.000038 -0.000393 -0.000796
N -0.018780 -3.725698 -3.303812 -0.000405 -0.001160 -0.000389
N -1.638032 -0.925440 1.778325 0.000077 0.002607 0.000033
N -1.647115 -0.972355 6.837874 0.002006 0.001963 -0.005594
N -1.602856 -0.897586 -3.313464 -0.000326 -0.001076 -0.000280
