108
Energy=-802867.251890 Lattice="9.460708 0.000000 0.000000 -4.741367 8.180948 0.000000 -0.002601 -0.009764 15.225166" Stress="0.000025 0.000010 -0.000005 0.000010 0.000029 -0.000003 -0.000005 -0.000003 0.000053" Properties=species:S:1:pos:R:3:forces:R:3
Al 1.543461 0.873605 2.386228 0.002808 -0.001049 0.001804
Al 1.542483 0.868801 7.447395 0.002202 -0.003244 0.000152
Al 1.553795 0.853840 -2.702490 0.003285 0.003785 0.004396
Al -0.045658 3.584068 2.380844 0.012142 0.002696 0.002462
Al -0.022904 3.590271 7.458698 -0.001366 -0.000052 0.000266
Al -0.031120 3.577805 -2.689041 0.001359 -0.000614 0.002238
Al 3.137848 -1.863160 2.390657 -0.007451 -0.007800 0.005917
Al 3.142035 -1.862378 7.433825 -0.001118 0.000291 0.003692
Al 3.130645 -1.864516 -2.659021 0.011428 -0.004591 0.005153
Al -4.765760 0.869514 2.392798 -0.000186 -0.004479 -0.003166
Al -4.769681 0.886680 7.448363 0.001764 -0.003037 0.000393
Al -4.752988 0.863177 -2.715625 -0.002653 0.015665 0.019110
Al -6.330702 3.594158 2.386093 0.025974 -0.014223 0.010273
Al -6.345400 3.596548 7.459682 0.002543 -0.000374 -0.001059
Al -6.334714 3.578680 -2.696532 -0.004725 -0.003491 0.006697
Al -3.149906 -1.866002 2.408121 0.002547 -0.002944 0.001750
Al -3.169930 -1.848238 7.449325 0.000013 -0.002048 0.004126
Al -3.187830 -1.867564 -2.677396 0.003221 0.007240 -0.005120
Al -1.622297 0.886182 2.386947 0.003511 -0.003546 -0.001189
Al -1.624697 0.894915 7.446919 0.003988 -0.002579 -0.000385
Al -1.616122 0.865459 -2.703863 0.002981 0.019931 0.010165
Al -3.195095 3.608427 2.380726 0.000408 -0.000642 0.000104
Al -3.194162 3.604897 7.441841 0.002747 -0.000799 -0.001462
Al -3.187599 3.590735 -2.671968 0.003197 -0.002662 0.004128
Al -0.022211 -1.846884 2.386913 0.001402 -0.002869 -0.001096
Al -0.022576 -1.847413 7.436572 0.005676 -0.000528 0.003184
Ga -0.013198 -1.850684 -2.644262 0.003529 0.000464 -0.000671
Al -0.031284 1.770892 4.923509 -0.001060 0.000325 0.001012
Al -0.016350 1.784762 -5.246348 -0.003458 -0.000224 0.003293
Al -0.031783 1.754607 -0.137288 -0.002202 -0.000026 -0.011388
Al 3.138179 -3.685662 4.925509 -0.002498 0.001542 0.000344
Ga 3.139769 -3.682566 -5.234252 -0.002725 0.002788 0.002249
Al 3.134847 -3.704327 -0.115968 -0.002597 0.003329 -0.016964
Al 1.574315 -0.957664 4.919394 -0.004312 0.002682 -0.001421
Al 1.545235 -0.935253 -5.227478 0.013980 0.004572 0.002028
Al 1.572461 -0.963588 -0.141124 -0.000971 0.004049 0.006780
Al 3.125206 1.777050 4.923330 -0.002795 0.001948 0.000818
Al 3.111888 1.785820 -5.248497 0.000048 -0.001529 0.004177
Al 3.115186 1.764283 -0.120350 -0.002099 0.006039 -0.009097
Ga 6.290061 -3.675884 4.929645 0.000508 -0.001325 -0.002538
Al 6.288851 -3.682773 -5.229891 0.000060 -0.001367 0.003089
Ga 6.304550 -3.684241 -0.136887 0.002017 -0.003160 0.004829
Al 4.719477 -0.942192 4.926719 -0.002396 0.000267 -0.000380
Ga 4.702140 -0.940186 -5.225795 -0.002209 0.002279 0.000646
Ga 4.731860 -0.944619 -0.081377 -0.005832 0.003441 -0.025132
Al -3.193889 1.789303 4.919100 -0.000159 0.000902 0.000597
Al -3.190062 1.803989 -5.240119 -0.001219 -0.008697 0.003576
Al -3.184540 1.774055 -0.138276 0.005153 0.006699 -0.003357
Al -0.017239 -3.671049 4.923064 -0.002465 0.000813 0.000326
Ga -0.017383 -3.684109 -5.233253 -0.000836 0.003261 0.003208
Al -0.011038 -3.691604 -0.128228 -0.001389 -0.001783 -0.006837
Al -1.590611 -0.935375 4.927168 -0.000556 0.001084 -0.000171
Ga -1.575338 -0.925516 -5.234137 -0.002915 0.001178 0.001535
Al -1.594692 -0.951865 -0.135104 0.003059 0.007069 -0.004231
N 1.542990 0.875721 4.322898 0.001491 -0.002238 -0.002331
N 1.542432 0.878171 -5.849957 0.000478 -0.001742 0.000985
N 1.544000 0.861518 -0.752680 0.001721 -0.003750 -0.002076
N -0.057445 3.576365 4.311158 -0.006508 -0.003646 -0.005680
N 0.000994 3.588857 -5.845843 0.005413 -0.004088 -0.003560
N -0.048120 3.566882 -0.755861 -0.004404 -0.001484 -0.000490
N 3.145893 -1.864948 4.325927 0.000716 -0.000475 -0.001396
N 3.089778 -1.834655 -5.866060 0.000796 0.000944 -0.006126
N 3.125873 -1.882644 -0.727622 -0.005294 -0.003806 -0.006809
N -4.769161 0.879879 4.325684 0.002515 -0.003916 -0.004361
N -4.768931 0.919953 -5.855348 0.002607 0.002631 -0.002245
N -4.759534 0.941621 -0.669682 -0.001252 -0.013224 -0.028180
N -6.309212 3.583065 4.312996 0.008598 -0.005047 -0.001413
N -6.365994 3.590949 -5.848235 -0.004969 -0.003282 -0.002973
N -6.304808 3.567688 -0.763297 0.003431 -0.001817 -0.003829
N -3.163483 -1.821518 4.323205 -0.000624 0.008197 -0.002664
N -3.166217 -1.895219 -5.833527 0.000509 0.001014 -0.009856
N -3.135790 -1.837120 -0.775449 0.002159 -0.001576 -0.000744
N -1.623604 0.884927 4.322253 0.003785 -0.002084 -0.002950
N -1.621108 0.931659 -5.860155 0.004293 0.002253 -0.002119
N -1.621381 0.868829 -0.766031 0.003890 -0.001375 0.002846
N -3.194907 3.609040 4.319222 0.003672 -0.000802 -0.003311
N -3.192828 3.556154 -5.874681 0.003250 0.003267 -0.004846
N -3.190129 3.590900 -0.743509 0.004844 0.000688 -0.000629
N -0.027999 -1.850353 4.323650 0.002674 -0.000089 -0.001838
N 0.045756 -1.824149 -5.844813 -0.010742 -0.003577 -0.011459
N -0.014174 -1.863643 -0.666011 0.000400 0.000622 -0.003763
N -0.026298 1.773352 1.754949 -0.003194 -0.000027 0.011689
N -0.024369 1.776374 6.850307 -0.002695 0.000198 -0.001312
N -0.021348 1.764642 -3.309552 -0.000593 -0.000293 -0.000679
N 3.140536 -3.678952 1.755583 -0.000770 -0.002756 0.016526
N 3.146035 -3.684802 6.850392 -0.002107 -0.000097 -0.000434
N 3.139483 -3.683211 -3.260980 -0.001586 0.000363 0.006104
N 1.574844 -0.954949 1.814865 -0.003478 0.003170 -0.005115
N 1.573835 -0.958617 6.842765 -0.004654 0.003432 -0.002650
N 1.646896 -0.962146 -3.299703 -0.019643 0.010197 -0.004116
N 3.121300 1.779140 1.766959 -0.000284 -0.004694 0.013410
N 3.117867 1.782817 6.850764 -0.000867 -0.000243 -0.001066
N 3.127582 1.769893 -3.314532 -0.001185 0.000472 0.000071
N 6.397812 -3.709119 1.889810 -0.049792 0.017295 -0.016418
N 6.289116 -3.675150 6.887798 -0.000796 0.001554 0.006023
N 6.287232 -3.685373 -3.293836 -0.000052 0.003502 -0.000564
N 4.697670 -1.038137 1.808211 0.013317 0.022720 0.027541
N 4.719237 -0.946662 6.850810 -0.000736 0.002506 -0.000038
N 4.686405 -0.907613 -3.245238 0.008721 -0.020763 0.002931
N -3.190750 1.786991 1.769472 0.000696 -0.002602 0.011269
N -3.194115 1.791449 6.842714 -0.000609 -0.001160 -0.003249
N -3.182684 1.781875 -3.308222 -0.001007 0.000887 -0.000203
N -0.023413 -3.667950 1.758199 0.003793 -0.001415 0.014290
N -0.025973 -3.670528 6.852088 -0.001303 0.000812 -0.000114
N -0.030096 -3.715834 -3.258036 0.004237 0.001110 -0.000471
N -1.592154 -0.943378 1.765596 -0.004590 0.003768 0.010399
N -1.592895 -0.940175 6.851941 -0.002068 0.002356 0.001290
N -1.599427 -0.875258 -3.260423 -0.011564 -0.026544 -0.002156
