108
Energy=-619766.234383 Lattice="9.417924 0.000000 0.000000 -4.709241 8.156239 0.000000 -0.000104 0.001476 15.110818" Stress="0.000000 -0.000000 0.000000 -0.000000 0.000000 0.000000 0.000000 0.000000 0.000002" Properties=species:S:1:pos:R:3:forces:R:3
Al 1.546935 0.870670 2.367555 0.000043 0.000028 -0.000021
Al 1.551314 0.875044 7.403349 0.000009 0.000039 0.000031
Al 1.552916 0.877000 -2.666464 0.000005 0.000023 0.000077
Al -0.029179 3.581412 2.382683 0.000102 0.000072 -0.000032
Al -0.022593 3.586727 7.405228 0.000013 0.000018 0.000008
Al -0.028126 3.583216 -2.683339 0.000021 0.000020 0.000072
Al 3.120301 -1.852412 2.368066 -0.000000 0.000041 0.000001
Al 3.125285 -1.850774 7.403552 0.000028 0.000003 0.000025
Al 3.127385 -1.853186 -2.666464 0.000013 0.000012 0.000081
Al -4.731211 0.866823 2.367353 -0.000004 0.000037 -0.000011
Al -4.730467 0.868171 7.404609 0.000021 0.000011 0.000023
Al -4.733197 0.867284 -2.672527 0.000018 0.000020 0.000072
Al -6.296931 3.580232 2.382100 0.000084 -0.000016 0.000016
Al -6.306511 3.579176 7.402678 -0.000018 -0.000006 -0.000006
Al -6.301743 3.573368 -2.676723 0.000024 0.000009 0.000181
Al -3.169654 -1.847501 2.372809 0.000016 -0.000012 -0.000022
Al -3.178425 -1.856301 7.416973 -0.000058 0.000001 0.000024
Al -3.171670 -1.846619 -2.677384 0.000018 0.000022 0.000083
Al -1.592955 0.876236 2.358167 0.000014 0.000016 -0.000010
Al -1.596666 0.885709 7.417676 0.000003 0.000012 0.000040
Al -1.596381 0.875480 -2.666845 0.000041 -0.000001 0.000073
Al -3.160049 3.583490 2.368313 -0.000005 0.000016 0.000013
Al -3.156764 3.578314 7.403658 0.000003 0.000002 -0.000021
Al -3.156047 3.578681 -2.665951 0.000027 0.000010 0.000067
Al -0.017986 -1.854355 2.356134 0.000028 -0.000020 0.000088
Ga -0.013239 -1.854646 7.424184 0.000080 0.000027 -0.000022
Ga -0.023437 -1.851882 -2.664331 0.000063 0.000030 -0.000001
Al -0.019125 1.780083 4.889758 0.000014 0.000018 0.000030
Al -0.021205 1.771874 -5.188270 0.000005 0.000030 0.000033
Al -0.025452 1.768209 -0.152124 0.000021 0.000011 0.000022
Al 3.115607 -3.663483 4.887228 -0.000006 0.000047 0.000018
Al 3.114785 -3.663311 -5.192377 0.000015 0.000035 0.000032
Al 3.109765 -3.664555 -0.148622 -0.000014 0.000029 0.000053
Al 1.560242 -0.941948 4.873937 0.000054 0.000032 0.000043
Al 1.560395 -0.938556 -5.179556 0.000038 0.000050 0.000067
Al 1.555820 -0.940221 -0.140643 0.000030 0.000032 0.000101
Al 3.117127 1.772186 4.887860 -0.000004 0.000032 0.000011
Al 3.116089 1.771861 -5.192238 -0.000003 0.000010 0.000030
Al 3.121869 1.766423 -0.147494 -0.000004 -0.000060 0.000065
Al 6.251286 -3.670933 4.886382 0.000008 0.000011 0.000018
Al 6.256407 -3.666003 -5.186523 -0.000006 0.000035 0.000021
Ga 6.255642 -3.666147 -0.147046 0.000011 0.000004 0.000205
Al 4.676800 -0.943572 4.890332 -0.000012 0.000018 0.000016
Al 4.683196 -0.945301 -5.187716 -0.000006 0.000006 0.000031
Al 4.681743 -0.936632 -0.151768 -0.000064 0.000041 0.000003
Al -3.166082 1.781299 4.886081 -0.000001 0.000011 0.000027
Al -3.162768 1.774976 -5.184069 -0.000004 0.000003 0.000050
Al -3.163830 1.774040 -0.154302 -0.000038 -0.000032 0.000016
Al -0.016600 -3.675706 4.878925 0.000023 0.000058 -0.000125
Al -0.020805 -3.678650 -5.184345 -0.000001 0.000038 0.000051
Al -0.014141 -3.673683 -0.138202 0.000034 0.000102 0.000110
Ga -1.595065 -0.940575 4.884393 0.000013 0.000069 0.000011
Al -1.602890 -0.937939 -5.187945 -0.000052 0.000038 0.000046
Al -1.595412 -0.933897 -0.136225 0.000100 -0.000020 0.000069
N 1.546225 0.871830 4.285768 -0.000006 -0.000038 -0.000043
N 1.546793 0.867663 -5.790881 -0.000006 -0.000050 -0.000020
N 1.548599 0.869259 -0.746650 -0.000021 -0.000035 0.000033
N -0.026650 3.584509 4.297965 -0.000010 -0.000032 -0.000091
N -0.022651 3.585252 -5.784335 -0.000009 -0.000034 -0.000014
N -0.065637 3.562264 -0.771940 -0.000085 -0.000067 -0.000011
N 3.120410 -1.853636 4.284486 0.000007 -0.000020 -0.000050
N 3.117515 -1.852416 -5.790903 -0.000017 -0.000009 -0.000021
N 3.118165 -1.852877 -0.746837 -0.000008 -0.000037 0.000053
N -4.731349 0.867232 4.289018 0.000022 -0.000027 -0.000055
N -4.730431 0.867128 -5.786058 0.000017 -0.000026 -0.000018
N -4.732441 0.868009 -0.752751 0.000024 -0.000041 0.000025
N -6.301135 3.583089 4.295875 -0.000002 -0.000026 -0.000069
N -6.303335 3.584540 -5.789831 0.000019 -0.000004 -0.000017
N -6.259079 3.560245 -0.765962 0.000011 -0.000012 -0.000181
N -3.207233 -1.872979 4.277469 -0.000056 -0.000057 -0.000086
N -3.167973 -1.855556 -5.779890 0.000008 -0.000016 -0.000006
N -3.161957 -1.803162 -0.765245 0.000010 -0.000000 -0.000048
N -1.591991 0.920813 4.266748 0.000025 -0.000042 -0.000069
N -1.593272 0.874626 -5.781229 0.000030 -0.000019 -0.000021
N -1.592551 0.867967 -0.746849 0.000016 -0.000036 0.000013
N -3.158521 3.585142 4.284503 0.000034 -0.000052 -0.000072
N -3.160272 3.583391 -5.791139 0.000013 -0.000004 -0.000036
N -3.160822 3.586258 -0.748140 0.000020 -0.000043 0.000012
N 0.019703 -1.875325 4.271175 -0.000070 -0.000076 -0.000200
N -0.018242 -1.852828 -5.712920 0.000000 -0.000092 -0.000034
N -0.022471 -1.851372 -0.683427 -0.000154 -0.000115 0.000074
N -0.020141 1.776526 1.764849 -0.000021 -0.000017 -0.000065
N -0.022681 1.773974 6.809319 -0.000026 -0.000024 -0.000032
N -0.021463 1.769727 -3.270186 -0.000032 -0.000035 -0.000019
N 3.118219 -3.665058 1.771270 0.000021 0.000015 -0.000101
N 3.116827 -3.663120 6.807912 -0.000026 -0.000001 -0.000014
N 3.113687 -3.662034 -3.273467 -0.000044 0.000002 -0.000034
N 1.553784 -0.941339 1.774369 0.000007 0.000042 -0.000065
N 1.589908 -0.920147 6.786489 -0.000065 -0.000007 -0.000063
N 1.593760 -0.918670 -3.272370 -0.000016 0.000008 -0.000018
N 3.117548 1.773530 1.771523 -0.000002 0.000003 -0.000045
N 3.118032 1.772812 6.806011 -0.000010 -0.000030 -0.000029
N 3.116621 1.770467 -3.275443 -0.000012 -0.000039 -0.000040
N 6.256028 -3.667548 1.827778 -0.000212 0.000013 -0.000130
N 6.255607 -3.663413 6.807997 -0.000003 -0.000001 -0.000020
N 6.257106 -3.664744 -3.264816 -0.000016 -0.000014 0.000007
N 4.684707 -0.943162 1.764696 -0.000012 0.000017 -0.000029
N 4.686364 -0.943163 6.807839 -0.000024 0.000004 -0.000037
N 4.683172 -0.943650 -3.271574 -0.000037 0.000008 -0.000044
N -3.165544 1.774427 1.763104 0.000038 0.000022 -0.000036
N -3.162338 1.773610 6.804284 0.000012 -0.000010 -0.000023
N -3.162637 1.774038 -3.265107 -0.000015 -0.000026 -0.000037
N -0.023011 -3.671967 1.776252 0.000012 0.000036 -0.000108
N -0.021510 -3.711369 6.790046 0.000016 -0.000048 0.000133
N -0.019699 -3.715994 -3.279846 -0.000015 -0.000081 -0.000016
N -1.596789 -0.942983 1.781685 0.000016 0.000033 -0.000048
N -1.633471 -0.919794 6.853446 0.000003 0.000045 0.000003
N -1.635079 -0.917527 -3.281437 -0.000085 0.000038 -0.000026
