108
Energy=-7.113171e+05 Lattice="9.428740e+00 0.000000e+00 0.000000e+00 -4.714737e+00 8.164727e+00 0.000000e+00 7.029101e-05 8.965221e-04 1.514052e+01" Stress="5.777559e-05 -4.372744e-05 3.692621e-05 -3.859863e-05 2.360496e-05 8.237054e-05 3.623815e-05 7.865715e-05 2.546864e-04" Properties=species:S:1:pos:R:3:forces:R:3 Config_type=AlGaN_super3_6_2_24.xyz
Al 1.555586e+00 8.747292e-01 2.378820e+00 -1.368328e-04 1.278670e-04 -4.003954e-04
Al 1.550375e+00 8.683954e-01 7.423166e+00 -4.185918e-06 4.893090e-07 2.239452e-05
Al 1.556886e+00 8.703175e-01 -2.683846e+00 -9.438785e-07 -5.596973e-05 1.282817e-04
Al -2.709122e-02 3.587323e+00 2.395965e+00 -5.347622e-05 -1.463953e-04 -9.459026e-05
Al -2.120198e-02 3.590433e+00 7.413639e+00 -9.589466e-06 -7.097863e-06 -1.339842e-05
Al -1.438616e-02 3.593191e+00 -2.687583e+00 -2.824567e-05 3.368867e-05 3.638873e-04
Al 3.124526e+00 -1.854787e+00 2.368480e+00 -8.014447e-04 4.496719e-04 -6.422321e-04
Al 3.115552e+00 -1.854839e+00 7.437209e+00 8.126468e-05 1.158112e-04 4.535684e-05
Al 3.126389e+00 -1.848159e+00 -2.685119e+00 -6.291616e-05 2.155212e-06 8.969659e-05
Al -4.740195e+00 8.727389e-01 2.371066e+00 -2.012004e-05 3.407272e-05 -3.290797e-04
Al -4.738936e+00 8.742876e-01 7.428601e+00 -9.483428e-06 1.845673e-04 1.481054e-04
Al -4.749860e+00 8.610737e-01 -2.678128e+00 -3.343325e-05 -7.879119e-06 6.112530e-05
Al -6.315412e+00 3.574194e+00 2.408004e+00 4.602008e-04 -9.539467e-05 -4.710421e-05
Al -6.311069e+00 3.588111e+00 7.421336e+00 -7.765602e-05 -4.273091e-05 1.758108e-05
Al -6.317303e+00 3.584006e+00 -2.705595e+00 -1.814531e-05 -8.240176e-06 1.484737e-04
Al -3.169586e+00 -1.849644e+00 2.383848e+00 -4.960737e-04 -4.428118e-04 -5.869356e-05
Al -3.162360e+00 -1.857871e+00 7.435735e+00 -7.133449e-05 8.499874e-05 1.606962e-05
Al -3.170187e+00 -1.855889e+00 -2.695471e+00 4.961963e-05 6.543000e-05 6.793001e-04
Al -1.597946e+00 8.733314e-01 2.380354e+00 -3.192858e-05 -1.932735e-04 -3.352749e-04
Al -1.593505e+00 8.703845e-01 7.420898e+00 5.022818e-05 1.823104e-05 -7.409622e-06
Ga -1.588460e+00 8.625181e-01 -2.674474e+00 7.678115e-05 -1.008466e-04 -1.872822e-04
Al -3.153948e+00 3.580223e+00 2.394914e+00 -2.520202e-05 5.825885e-05 -2.497046e-04
Al -3.164399e+00 3.589821e+00 7.420299e+00 1.068886e-04 -1.274293e-05 1.568063e-05
Ga -3.164217e+00 3.594581e+00 -2.685770e+00 1.247932e-04 -1.774477e-06 -6.492994e-05
Ga -2.268887e-02 -1.840791e+00 2.399390e+00 3.105143e-04 -6.339914e-05 2.923304e-05
Al -1.982479e-02 -1.851860e+00 7.414690e+00 2.546162e-05 9.327419e-05 8.433819e-05
Al -2.345339e-02 -1.849129e+00 -2.690041e+00 2.584418e-05 1.093135e-05 4.343357e-05
Al -2.228123e-02 1.772617e+00 4.901418e+00 -2.005536e-05 1.795272e-05 -9.169347e-05
Al -1.774970e-02 1.777908e+00 -5.216441e+00 -1.242870e-05 -2.382532e-06 1.050188e-05
Al -1.998882e-02 1.771735e+00 -1.376632e-01 1.307091e-04 -3.225620e-05 5.104601e-04
Al 3.115972e+00 -3.672330e+00 4.907845e+00 9.067666e-06 -1.633822e-04 -1.359868e-05
Al 3.126394e+00 -3.666485e+00 -5.215198e+00 -1.992482e-05 9.600778e-06 7.141339e-06
Al 3.127834e+00 -3.666283e+00 -1.400308e-01 -2.953228e-04 7.528687e-05 3.425713e-04
Al 1.550152e+00 -9.407296e-01 4.918065e+00 1.644816e-04 4.566583e-04 9.600698e-05
Al 1.548222e+00 -9.457956e-01 -5.201780e+00 -2.810441e-05 4.617917e-05 2.308124e-05
Al 1.556776e+00 -9.360423e-01 -1.657621e-01 -1.824079e-04 8.070474e-05 -1.365673e-03
Al 3.114858e+00 1.779206e+00 4.908851e+00 1.636121e-05 1.179768e-05 -5.316925e-05
Al 3.120223e+00 1.772473e+00 -5.205214e+00 2.111378e-05 -9.654426e-06 4.842532e-05
Al 3.118408e+00 1.762673e+00 -1.526153e-01 -1.092022e-04 -2.578637e-04 1.801402e-04
Al 6.266725e+00 -3.673520e+00 4.905523e+00 -1.444248e-05 -3.376094e-05 -8.582999e-05
Al 6.260968e+00 -3.669828e+00 -5.203082e+00 7.521219e-06 1.948686e-05 -6.498501e-06
Ga 6.255656e+00 -3.669632e+00 -1.472104e-01 4.928875e-06 1.394797e-04 4.415898e-04
Ga 4.689625e+00 -9.457184e-01 4.908495e+00 3.114204e-05 2.479402e-04 2.196689e-07
Al 4.690540e+00 -9.441059e-01 -5.203836e+00 -5.010444e-06 5.107033e-05 -8.022426e-06
Al 4.688536e+00 -9.406769e-01 -1.537307e-01 -1.689480e-04 1.561948e-04 4.341453e-04
Al -3.161240e+00 1.780877e+00 4.903342e+00 -9.928946e-05 -6.592839e-05 -9.696114e-05
Al -3.169401e+00 1.772319e+00 -5.221979e+00 2.095152e-05 -2.499515e-05 3.036530e-05
Al -3.166425e+00 1.764344e+00 -1.275218e-01 -2.604961e-04 -3.973248e-05 4.682898e-04
Al -2.135596e-02 -3.676413e+00 4.916386e+00 5.321820e-06 1.072332e-03 -5.470756e-04
Al -2.530214e-02 -3.663854e+00 -5.217952e+00 -5.515347e-06 1.080961e-05 7.398260e-05
Ga -2.182697e-02 -3.669597e+00 -1.421282e-01 1.925179e-05 1.457673e-04 5.585965e-04
Al -1.593554e+00 -9.399704e-01 4.922404e+00 1.909840e-05 2.729401e-04 -6.737880e-05
Al -1.591423e+00 -9.498038e-01 -5.216054e+00 -6.441813e-06 4.035909e-05 3.808402e-06
Al -1.597734e+00 -9.358317e-01 -1.467882e-01 3.021032e-04 -3.987457e-04 -1.257493e-03
N 1.550416e+00 8.670965e-01 4.301765e+00 1.524040e-04 -1.113151e-04 -9.786180e-05
N 1.550968e+00 8.662604e-01 -5.803801e+00 -2.597158e-05 -9.817704e-05 -1.962194e-05
N 1.547231e+00 8.728168e-01 -7.601607e-01 -5.618779e-05 8.023144e-05 -1.247089e-04
N -2.562695e-02 3.589232e+00 4.313950e+00 -1.176165e-04 -3.585236e-05 9.968600e-05
N -2.024092e-02 3.590062e+00 -5.813328e+00 -2.862944e-05 -9.951004e-06 -2.476449e-05
N -6.529570e-02 3.563155e+00 -7.700497e-01 1.389294e-04 -1.806157e-04 -6.040224e-04
N 3.077196e+00 -1.876952e+00 4.282459e+00 -2.209516e-04 1.091994e-04 -4.889025e-04
N 3.117615e+00 -1.851844e+00 -5.793658e+00 -2.545815e-05 -1.223775e-05 -4.175413e-05
N 3.123258e+00 -1.857085e+00 -7.578113e-01 8.368521e-05 -1.889976e-05 5.408182e-05
N -4.739553e+00 9.170894e-01 4.283325e+00 1.388644e-04 8.120097e-06 3.806730e-04
N -4.741093e+00 8.689311e-01 -5.804170e+00 8.344082e-06 -7.244366e-05 -1.630263e-05
N -4.736421e+00 8.691539e-01 -7.503874e-01 5.128542e-05 -6.319700e-05 8.931263e-05
N -6.309238e+00 3.585415e+00 4.320699e+00 1.568879e-04 1.254815e-04 1.108992e-04
N -6.312052e+00 3.587194e+00 -5.801701e+00 1.738286e-05 -3.241461e-06 -8.209673e-05
N -6.310436e+00 3.540745e+00 -7.982471e-01 1.173354e-04 4.237976e-05 -6.271601e-05
N -3.123282e+00 -1.873305e+00 4.293233e+00 2.779366e-04 5.199565e-06 -1.692804e-04
N -3.166326e+00 -1.856725e+00 -5.793358e+00 -9.751614e-06 -3.791475e-06 -2.900736e-05
N -3.166242e+00 -1.806394e+00 -7.742416e-01 -1.712677e-05 -8.694146e-05 -1.096731e-03
N -1.594456e+00 8.667512e-01 4.304227e+00 -5.834125e-05 -3.320904e-05 -6.599276e-05
N -1.591634e+00 8.688618e-01 -5.804997e+00 8.890862e-05 -7.320055e-05 -3.819796e-05
N -1.593521e+00 8.728908e-01 -6.971062e-01 2.578047e-04 -2.182460e-04 1.780182e-04
N -3.162484e+00 3.588950e+00 4.312706e+00 -2.414501e-05 1.006158e-04 8.376843e-05
N -3.164223e+00 3.591190e+00 -5.803880e+00 4.443562e-05 1.356369e-05 -6.863323e-05
N -3.122912e+00 3.562067e+00 -7.164633e-01 2.390219e-04 2.754422e-04 2.652975e-04
N -2.104433e-02 -1.843882e+00 4.372953e+00 -4.485712e-04 -2.141615e-03 7.054415e-04
N -1.846127e-02 -1.851011e+00 -5.810981e+00 5.618150e-05 2.806995e-05 -1.999001e-05
N -2.324010e-02 -1.806948e+00 -7.724027e-01 -4.188738e-04 4.466990e-04 4.291234e-04
N -1.919668e-02 1.777353e+00 1.788218e+00 -1.982887e-04 -1.086771e-04 -2.697286e-04
N -2.112926e-02 1.773999e+00 6.820026e+00 -4.938344e-05 -1.059860e-04 4.976182e-05
N 1.991151e-02 1.798132e+00 -3.304486e+00 -6.848200e-05 4.656265e-06 -7.675893e-06
N 3.124831e+00 -3.669630e+00 1.782007e+00 -1.670031e-04 1.309907e-04 -2.206659e-04
N 3.120529e+00 -3.664461e+00 6.825070e+00 -4.072982e-05 5.211677e-05 4.220075e-05
N 3.164755e+00 -3.642757e+00 -3.306368e+00 -2.352153e-06 -3.495586e-05 -2.962596e-05
N 1.585589e+00 -9.176850e-01 1.742401e+00 1.250537e-03 -8.377598e-04 2.691597e-03
N 1.555690e+00 -9.431320e-01 6.829937e+00 -1.008309e-04 -3.346962e-05 5.246782e-06
N 1.550690e+00 -9.452922e-01 -3.279043e+00 -3.537176e-05 5.740924e-05 -1.586676e-04
N 3.117854e+00 1.778279e+00 1.770694e+00 1.420501e-04 1.455797e-05 -1.230762e-04
N 3.119353e+00 1.774306e+00 6.823861e+00 2.772377e-05 -1.946792e-05 -2.504922e-05
N 3.121181e+00 1.769658e+00 -3.288885e+00 4.579539e-05 -1.650140e-05 -1.206698e-04
N 6.264439e+00 -3.672482e+00 1.836917e+00 -2.975188e-04 5.629123e-04 -7.347220e-04
N 6.264066e+00 -3.665892e+00 6.822418e+00 -1.425038e-05 5.699314e-05 2.994794e-05
N 6.260398e+00 -3.667409e+00 -3.284787e+00 -3.083498e-05 -2.285970e-06 2.894408e-05
N 4.692657e+00 -9.459433e-01 1.775161e+00 -1.823600e-04 -3.812580e-05 -1.216107e-04
N 4.691420e+00 -9.457046e-01 6.881632e+00 -1.041478e-04 -4.690049e-04 4.649128e-05
N 4.689985e+00 -9.436302e-01 -3.283168e+00 6.987183e-05 1.177559e-05 7.612307e-06
N -3.166951e+00 1.775130e+00 1.789048e+00 9.655159e-05 1.514420e-05 -2.874853e-04
N -3.166010e+00 1.774892e+00 6.822964e+00 2.580669e-05 -8.660053e-07 1.107474e-05
N -3.206970e+00 1.747975e+00 -3.319437e+00 -8.801063e-05 -7.320019e-05 -2.281708e-06
N -2.512081e-02 -3.712619e+00 1.831393e+00 -1.627812e-04 -4.723944e-04 -3.512575e-04
N -2.269297e-02 -3.672086e+00 6.832057e+00 3.945354e-05 1.674986e-04 -1.649835e-04
N -6.185241e-02 -3.642788e+00 -3.304780e+00 -7.926821e-05 5.435331e-05 -6.247620e-05
N -1.636488e+00 -9.267067e-01 1.758507e+00 5.553324e-04 1.017524e-03 1.372865e-03
N -1.598953e+00 -9.437979e-01 6.835071e+00 7.873825e-05 -3.358012e-05 1.921920e-06
N -1.593794e+00 -9.916841e-01 -3.307488e+00 -4.307658e-05 1.015254e-04 -5.219902e-05
