108
Energy=-1.947255e+06 Lattice="9.580502e+00 0.000000e+00 0.000000e+00 -4.793038e+00 8.295202e+00 0.000000e+00 -4.300686e-04 -4.087990e-03 1.550731e+01" Stress="2.916470e-04 -1.565970e-04 1.145913e-04 -1.619323e-04 1.479140e-04 -1.355974e-04 1.020691e-04 -1.400516e-04 2.040783e-04" Properties=species:S:1:pos:R:3:forces:R:3 Config_type=AlGaN_super3_33_1_12.xyz
Al 1.569913e+00 8.762954e-01 2.453550e+00 1.152536e-05 1.809308e-04 2.043835e-04
Al 1.582550e+00 8.803656e-01 7.603126e+00 1.614401e-04 -5.840794e-05 3.391759e-04
Al 1.577338e+00 8.775538e-01 -2.744897e+00 2.011890e-04 -9.665168e-05 2.115960e-04
Al -3.471484e-02 3.655544e+00 2.428748e+00 -1.922057e-04 1.996516e-04 1.803307e-04
Al -3.077191e-02 3.642730e+00 7.618263e+00 -3.706860e-05 -7.632925e-05 1.994893e-04
Ga -2.894843e-02 3.649144e+00 -2.734857e+00 1.008096e-04 -1.056075e-05 3.220933e-04
Al 3.172543e+00 -1.891184e+00 2.453868e+00 3.554395e-05 1.778777e-04 -3.428444e-04
Ga 3.169379e+00 -1.883503e+00 7.584357e+00 7.025068e-05 -2.288755e-05 4.224259e-04
Ga 3.159571e+00 -1.893709e+00 -2.731533e+00 1.112677e-04 -7.903877e-05 3.308493e-04
Ga -4.809204e+00 8.784691e-01 2.451903e+00 1.982883e-04 -3.388768e-05 5.472732e-04
Al -4.819431e+00 8.873250e-01 7.583427e+00 1.495046e-04 1.147160e-05 1.888856e-04
Ga -4.827939e+00 8.881523e-01 -2.725823e+00 2.118987e-04 -5.046830e-05 4.305618e-04
Ga -6.415051e+00 3.655748e+00 2.434475e+00 1.614321e-04 2.250418e-04 2.086252e-04
Ga -6.416367e+00 3.626032e+00 7.622986e+00 5.482292e-06 -1.603457e-05 1.061758e-04
Ga -6.414992e+00 3.641193e+00 -2.746467e+00 2.898749e-05 -7.095949e-05 1.513268e-04
Al -3.238944e+00 -1.887975e+00 2.456321e+00 2.326459e-04 1.072029e-04 2.570294e-04
Ga -3.225626e+00 -1.882963e+00 7.615203e+00 8.464150e-05 -1.168499e-05 3.449976e-04
Ga -3.200058e+00 -1.887563e+00 -2.753908e+00 4.992200e-05 -1.192284e-04 3.976891e-04
Ga -1.627304e+00 9.033559e-01 2.446244e+00 4.190143e-04 -4.137299e-04 3.768554e-04
Ga -1.627659e+00 8.975834e-01 7.601431e+00 3.573540e-04 -2.822318e-04 1.110899e-04
Ga -1.609921e+00 8.725763e-01 -2.730851e+00 3.735965e-04 -2.568864e-04 4.457041e-06
Al -3.206986e+00 3.643056e+00 2.422201e+00 -1.247847e-03 2.764506e-03 -1.846428e-03
Al -3.208116e+00 3.635368e+00 7.603775e+00 1.344725e-04 -1.370974e-04 2.722123e-04
Ga -3.210088e+00 3.661339e+00 -2.710792e+00 1.405490e-04 -1.382499e-04 3.833427e-04
Ga -6.136345e-03 -1.886282e+00 2.439957e+00 1.872607e-04 -3.486316e-04 2.309141e-04
Ga -8.356857e-03 -1.875096e+00 7.601288e+00 2.198534e-04 -4.243926e-05 3.199210e-04
Al -2.161229e-02 -1.874775e+00 -2.727216e+00 1.547216e-04 -2.231737e-04 2.743498e-04
Ga -1.824194e-02 1.803310e+00 5.029862e+00 4.666107e-05 1.985291e-04 2.803459e-04
Ga -8.628613e-03 1.813529e+00 -5.331653e+00 -2.036968e-04 1.244366e-04 1.994997e-04
Ga -2.098551e-02 1.805504e+00 -1.373005e-01 -3.816923e-04 3.690356e-04 2.124926e-04
Ga 3.164119e+00 -3.732040e+00 5.003483e+00 1.721651e-04 6.090218e-04 7.403855e-05
Al 3.179375e+00 -3.732583e+00 -5.346927e+00 6.271740e-06 5.557669e-05 3.271074e-04
Al 3.159055e+00 -3.735072e+00 -1.056942e-01 -1.778478e-04 3.266696e-04 6.030950e-04
Al 1.589465e+00 -9.537015e-01 5.011685e+00 1.481869e-04 -1.177022e-04 1.497158e-04
Ga 1.573691e+00 -9.535607e-01 -5.305174e+00 -2.410126e-04 2.265304e-04 3.427422e-04
Ga 1.580454e+00 -9.727292e-01 -1.465052e-01 -6.309827e-04 5.093179e-04 -1.363522e-04
Ga 3.171919e+00 1.780776e+00 5.029112e+00 -1.654937e-04 -2.426442e-05 2.491007e-04
Al 3.163681e+00 1.798546e+00 -5.336717e+00 5.606955e-05 2.114519e-05 2.719191e-04
Ga 3.173753e+00 1.803227e+00 -1.326314e-01 -3.044661e-04 3.394727e-04 2.826874e-04
Ga 6.347526e+00 -3.718676e+00 5.019028e+00 -5.012089e-05 -7.401990e-05 3.272953e-04
Al 6.357635e+00 -3.730275e+00 -5.331225e+00 6.421077e-05 -5.731116e-05 1.635258e-04
Ga 6.362965e+00 -3.724657e+00 -1.261792e-01 -1.497972e-04 9.553774e-05 1.156773e-04
Al 4.764095e+00 -9.555311e-01 5.012758e+00 -2.850644e-04 -3.066862e-04 3.798489e-04
Ga 4.770972e+00 -9.578158e-01 -5.333868e+00 -1.372676e-04 1.207553e-04 1.574525e-04
Ga 4.770693e+00 -9.706820e-01 -1.247010e-01 -4.756987e-04 3.733573e-04 2.292390e-04
Al -3.229591e+00 1.810875e+00 5.033578e+00 2.089707e-05 -1.265601e-04 4.190041e-04
Ga -3.226188e+00 1.811207e+00 -5.338277e+00 3.638259e-05 -4.190082e-05 4.370886e-04
Al -3.216317e+00 1.824117e+00 -1.369895e-01 -2.108701e-04 2.324162e-04 -8.320655e-05
Ga -7.869229e-04 -3.734605e+00 5.029734e+00 -1.789474e-04 5.392626e-05 1.967440e-04
Ga -1.962626e-02 -3.723575e+00 -5.319530e+00 7.446076e-05 -4.708376e-05 2.651090e-04
Al -3.080414e-03 -3.728425e+00 -1.514833e-01 1.354648e-04 -1.400742e-04 3.701611e-04
Ga -1.631250e+00 -9.579657e-01 5.006679e+00 -1.780412e-04 -1.460855e-04 1.551444e-04
Al -1.615582e+00 -9.689727e-01 -5.309349e+00 -1.059987e-04 6.945424e-05 1.937993e-04
Ga -1.614709e+00 -9.687001e-01 -1.328615e-01 -5.226179e-04 1.157968e-04 6.780574e-05
N 1.569397e+00 8.359196e-01 4.365969e+00 2.075140e-05 1.204553e-05 -3.654124e-04
N 1.614819e+00 8.991375e-01 -5.987729e+00 2.067340e-04 -1.154355e-04 -2.436107e-04
N 1.577837e+00 8.818519e-01 -8.298240e-01 2.693564e-04 -1.899125e-04 -1.729269e-04
N -2.890153e-02 3.643349e+00 4.336983e+00 -7.324386e-05 -1.166974e-04 -2.827100e-04
N -2.469328e-02 3.695929e+00 -5.967179e+00 3.323964e-05 2.372949e-05 -2.715875e-04
N -7.117824e-02 3.675543e+00 -7.471548e-01 -3.814588e-05 -5.427103e-05 -3.871216e-04
N 3.171246e+00 -1.839452e+00 4.386525e+00 1.734420e-05 -1.360620e-04 -1.745087e-05
N 3.166886e+00 -1.924550e+00 -5.940505e+00 5.641255e-05 -9.906550e-05 -2.865282e-04
N 3.176139e+00 -1.943610e+00 -7.482824e-01 4.936968e-05 -2.254238e-04 -1.899688e-04
N -4.768667e+00 8.612854e-01 4.435581e+00 2.942782e-04 6.146155e-05 -4.219994e-04
N -4.855491e+00 9.076286e-01 -5.999073e+00 7.497975e-05 1.469400e-05 -3.067603e-04
N -4.773133e+00 9.038669e-01 -7.430886e-01 3.593947e-04 -8.519748e-05 -1.660730e-04
N -6.410099e+00 3.647314e+00 4.408984e+00 3.908717e-05 -2.510523e-05 -2.171804e-04
N -6.450799e+00 3.622180e+00 -5.899894e+00 -9.002031e-05 3.170663e-05 -1.395615e-04
N -6.371969e+00 3.669468e+00 -7.542872e-01 1.710205e-05 -4.248990e-05 -2.843679e-04
N -3.263876e+00 -1.861344e+00 4.369628e+00 -2.574441e-05 2.922648e-04 -4.326838e-04
N -3.171921e+00 -1.904258e+00 -5.907697e+00 1.870379e-05 -3.586636e-05 -1.405590e-04
N -3.212392e+00 -1.885835e+00 -7.834416e-01 1.391254e-04 1.160545e-04 -1.858833e-04
N -1.666930e+00 9.176155e-01 4.427294e+00 3.871953e-05 2.262308e-05 -3.184376e-04
N -1.621520e+00 8.359595e-01 -5.925106e+00 2.285369e-04 -6.455720e-05 -2.220994e-04
N -1.660808e+00 9.033590e-01 -7.446999e-01 1.989274e-04 -9.526841e-05 -2.595143e-04
N -3.220337e+00 3.595032e+00 4.340991e+00 1.489915e-05 -6.072210e-04 5.872626e-04
N -3.176625e+00 3.672590e+00 -5.988534e+00 1.810762e-05 -9.749402e-05 -3.589686e-04
N -3.207662e+00 3.652340e+00 -7.156442e-01 -7.221138e-05 -2.272277e-04 -3.649481e-04
N 2.329830e-02 -1.863717e+00 4.418273e+00 -1.694428e-05 9.442111e-05 -1.338019e-04
N -5.669607e-02 -1.853866e+00 -5.932201e+00 3.550052e-05 -1.903533e-04 -3.100108e-04
N -2.205887e-02 -1.927798e+00 -8.004644e-01 2.388845e-04 1.019727e-06 -4.883444e-05
N 2.132823e-02 1.825644e+00 1.850674e+00 3.274688e-04 -1.353563e-04 -3.971586e-04
N 2.317437e-02 1.828779e+00 7.021661e+00 -1.524488e-04 2.063994e-04 -1.508757e-04
N 2.105500e-02 1.782255e+00 -3.347374e+00 -9.788255e-05 1.769549e-04 -1.874966e-04
N 3.167603e+00 -3.722090e+00 1.828811e+00 1.716831e-04 -3.243578e-04 1.268190e-04
N 3.173011e+00 -3.781159e+00 6.993832e+00 -1.341963e-04 5.385899e-05 -3.781812e-04
N 3.170212e+00 -3.732375e+00 -3.430423e+00 -1.714058e-04 1.440109e-04 -3.853096e-04
N 1.620222e+00 -9.345403e-01 1.839438e+00 8.516922e-05 -2.495714e-04 2.566833e-04
N 1.579199e+00 -9.115132e-01 6.933079e+00 -3.898331e-04 2.158162e-04 -3.867316e-04
N 1.534916e+00 -9.390340e-01 -3.317274e+00 -2.808858e-04 1.908591e-04 -2.392113e-04
N 3.125719e+00 1.779369e+00 1.843384e+00 1.629591e-04 -4.772069e-04 -3.290626e-04
N 3.165755e+00 1.753633e+00 7.007056e+00 -3.537981e-05 -3.246535e-05 -2.487083e-04
N 3.129652e+00 1.774153e+00 -3.407137e+00 -1.028448e-04 -4.036084e-05 -2.804321e-04
N 6.320264e+00 -3.697286e+00 1.854388e+00 6.861036e-05 -2.661099e-04 -3.281155e-04
N 6.320249e+00 -3.752099e+00 6.999613e+00 1.840428e-05 1.723549e-05 -2.587115e-04
N 6.360001e+00 -3.733163e+00 -3.417933e+00 -8.068352e-06 5.245017e-05 -1.835906e-04
N 4.761867e+00 -1.006503e+00 1.858592e+00 7.212669e-05 -6.550740e-04 -1.406811e-04
N 4.770525e+00 -9.178666e-01 6.940330e+00 -1.029961e-04 6.349091e-05 -3.284855e-04
N 4.765071e+00 -9.584415e-01 -3.360670e+00 -1.900825e-04 1.529266e-06 -3.221864e-04
N -3.221385e+00 1.852457e+00 1.774670e+00 -9.954718e-05 -8.357574e-04 -7.857973e-05
N -3.261956e+00 1.832744e+00 6.963161e+00 -2.197480e-04 1.697621e-04 -1.858794e-04
N -3.219247e+00 1.809834e+00 -3.361303e+00 -2.154136e-04 1.118374e-04 -2.257171e-04
N 1.880936e-02 -3.744707e+00 1.770473e+00 1.139235e-03 -9.015724e-04 6.957250e-04
N 2.111920e-02 -3.755197e+00 7.009986e+00 -7.152065e-06 2.058071e-05 -1.980898e-04
N -1.498163e-02 -3.679602e+00 -3.337179e+00 -3.785988e-05 1.802985e-04 -1.940889e-04
N -1.662773e+00 -9.849751e-01 1.850257e+00 -4.430160e-05 -5.714038e-05 -1.564471e-04
N -1.622422e+00 -9.628110e-01 6.971645e+00 -2.597272e-04 1.036742e-04 -2.455236e-04
N -1.570145e+00 -9.839642e-01 -3.390113e+00 -2.347128e-04 6.644748e-05 -1.860839e-04
