108
Energy=-2.725439e+06 Lattice="9.680825e+00 0.000000e+00 0.000000e+00 -4.840676e+00 8.382981e+00 0.000000e+00 -7.959717e-04 -9.691009e-04 1.572072e+01" Stress="-5.126282e-06 2.556203e-06 -2.886565e-06 -4.141440e-07 8.769961e-06 3.184688e-06 3.587136e-06 -9.371484e-06 -9.555764e-06" Properties=species:S:1:pos:R:3:forces:R:3 Config_type=AlGaN_super3_50_0_14.xyz
Al 1.585000e+00 8.999073e-01 2.473710e+00 8.901362e-06 -7.287175e-06 4.119801e-06
Ga 1.589135e+00 8.919160e-01 7.709444e+00 -3.582389e-07 3.179102e-06 4.263156e-06
Ga 1.589307e+00 8.933859e-01 -2.762509e+00 -1.791530e-07 7.565498e-06 1.858387e-05
Al -1.290046e-02 3.681436e+00 2.484869e+00 5.067209e-06 -1.278170e-05 7.749794e-06
Ga -2.100270e-02 3.690544e+00 7.708337e+00 2.512776e-06 4.978302e-06 5.503072e-06
Ga -3.036032e-02 3.688060e+00 -2.774846e+00 -1.728712e-06 7.368836e-06 -3.429611e-06
Ga 3.202299e+00 -1.902266e+00 2.473941e+00 1.961648e-06 -7.797791e-06 5.488577e-06
Ga 3.202501e+00 -1.909581e+00 7.717932e+00 -2.837774e-06 3.790406e-06 6.359958e-06
Ga 3.203727e+00 -1.912879e+00 -2.772187e+00 -3.045149e-06 2.138289e-06 9.756680e-06
Ga -4.872115e+00 8.918635e-01 2.476727e+00 3.421616e-06 -8.566889e-06 8.153478e-06
Ga -4.865941e+00 8.916835e-01 7.710824e+00 -2.065884e-06 4.175289e-06 6.000577e-06
Ga -4.865220e+00 8.917562e-01 -2.765184e+00 -3.880882e-06 8.448882e-06 9.369375e-06
Ga -6.496491e+00 3.681815e+00 2.485715e+00 6.001433e-06 -5.211611e-06 8.308688e-06
Ga -6.487346e+00 3.687754e+00 7.694501e+00 -6.106089e-06 5.003975e-06 5.551816e-06
Ga -6.477980e+00 3.684846e+00 -2.760225e+00 -4.640885e-06 6.509373e-06 7.642482e-06
Ga -3.256666e+00 -1.916771e+00 2.487295e+00 7.340728e-06 -6.301885e-06 7.545141e-06
Ga -3.250492e+00 -1.913524e+00 7.698720e+00 -4.294954e-06 -1.024815e-06 6.217943e-06
Ga -3.249346e+00 -1.904308e+00 -2.765127e+00 -5.532072e-06 6.179842e-07 1.061319e-05
Ga -1.623327e+00 9.013728e-01 2.475184e+00 8.194526e-06 -1.218730e-05 7.285634e-06
Ga -1.634222e+00 8.918135e-01 7.706302e+00 -1.979060e-06 4.766056e-06 3.363931e-06
Ga -1.632642e+00 8.922056e-01 -2.759812e+00 -3.154362e-06 6.252783e-06 9.238515e-06
Ga -3.241335e+00 3.685672e+00 2.476593e+00 3.625423e-06 -5.044412e-06 7.471202e-06
Ga -3.243951e+00 3.688631e+00 7.721787e+00 -1.713964e-06 2.477139e-06 7.387950e-06
Ga -3.240984e+00 3.691213e+00 -2.775442e+00 3.109830e-07 7.592763e-06 7.508744e-06
Ga -1.777988e-02 -1.895061e+00 2.476214e+00 5.299114e-06 -7.718790e-06 7.229946e-06
Ga -2.231710e-02 -1.902063e+00 7.710754e+00 -2.051799e-06 -4.789835e-07 5.589304e-06
Ga -2.251904e-02 -1.902806e+00 -2.763459e+00 -4.698564e-06 7.503265e-07 1.146308e-05
Ga -1.063641e-02 1.836209e+00 5.070210e+00 4.872240e-06 -1.426748e-06 8.008020e-06
Ga -2.730385e-02 1.832414e+00 -5.391116e+00 5.385148e-06 5.249852e-06 4.955179e-06
Ga -1.788412e-02 1.829476e+00 -1.208773e-01 1.539306e-05 -2.019550e-05 -1.347206e-08
Ga 3.220164e+00 -3.769397e+00 5.079672e+00 8.589384e-06 -3.516887e-06 6.815856e-06
Al 3.205831e+00 -3.765654e+00 -5.391750e+00 6.226185e-06 1.152291e-06 3.822100e-06
Ga 3.210111e+00 -3.770288e+00 -1.288817e-01 8.715614e-06 -1.172928e-05 3.717893e-06
Ga 1.591512e+00 -9.639768e-01 5.083810e+00 1.549672e-06 -1.166300e-06 3.614803e-06
Ga 1.595890e+00 -9.792203e-01 -5.386831e+00 2.772679e-06 3.105618e-06 5.946141e-06
Ga 1.591139e+00 -9.673955e-01 -1.357787e-01 1.078839e-05 -7.668228e-06 9.335366e-06
Ga 3.191945e+00 1.826407e+00 5.079314e+00 5.462544e-06 5.405591e-06 5.306953e-06
Ga 3.202531e+00 1.825317e+00 -5.389300e+00 2.750724e-06 3.967227e-06 1.032936e-05
Ga 3.199692e+00 1.821245e+00 -1.276366e-01 8.471091e-06 -1.340141e-05 1.953374e-06
Al 6.422032e+00 -3.770626e+00 5.080557e+00 -2.991148e-06 1.690890e-06 8.484403e-06
Ga 6.421952e+00 -3.766789e+00 -5.388873e+00 3.564825e-06 -1.287158e-06 1.953422e-06
Ga 6.424443e+00 -3.769039e+00 -1.340556e-01 1.457852e-05 -1.175827e-05 4.097477e-06
Ga 4.820375e+00 -9.799738e-01 5.094515e+00 3.227161e-06 6.916553e-06 7.669916e-06
Ga 4.812949e+00 -9.810540e-01 -5.391766e+00 5.410898e-06 2.954251e-06 8.698159e-06
Ga 4.817995e+00 -9.738279e-01 -1.427060e-01 1.204490e-05 -1.689329e-05 5.603981e-06
Ga -3.250460e+00 1.824731e+00 5.096581e+00 5.656457e-06 6.418758e-07 8.380051e-06
Ga -3.244323e+00 1.830777e+00 -5.387312e+00 2.734211e-06 -7.022735e-07 9.102910e-06
Ga -3.249865e+00 1.824228e+00 -1.456721e-01 9.537446e-06 -1.518175e-05 7.273102e-06
Ga -3.106450e-02 -3.766845e+00 5.094321e+00 3.428594e-06 -3.493964e-06 5.102348e-06
Ga -1.592359e-02 -3.766768e+00 -5.391213e+00 5.400031e-07 -3.920732e-06 6.931540e-06
Ga -2.219565e-02 -3.767210e+00 -1.423233e-01 5.839018e-06 -1.375438e-05 6.165493e-06
Ga -1.641881e+00 -9.796561e-01 5.089078e+00 6.526151e-06 3.011821e-08 7.312395e-06
Ga -1.637170e+00 -9.714869e-01 -5.389702e+00 1.847618e-06 -9.560530e-07 8.550132e-06
Ga -1.637932e+00 -9.729677e-01 -1.379252e-01 8.736474e-06 -1.283965e-05 9.043081e-06
N 1.589789e+00 8.903636e-01 4.394022e+00 -2.969886e-06 -2.988168e-06 -8.181116e-06
N 1.588846e+00 8.911358e-01 -6.029188e+00 -2.711096e-06 -3.734434e-06 -5.681547e-06
N 1.588185e+00 8.942405e-01 -7.802415e-01 -1.415955e-05 1.104622e-05 -1.432744e-05
N 2.078600e-02 3.711317e+00 4.412263e+00 2.584057e-06 6.732048e-06 -7.970167e-06
N -6.405553e-02 3.712516e+00 -6.019989e+00 -9.172946e-06 -5.101536e-07 -2.262372e-06
N -2.613487e-02 3.684555e+00 -7.910484e-01 -1.383588e-05 1.658864e-05 2.233456e-06
N 3.203442e+00 -1.902288e+00 4.451326e+00 1.787535e-06 -3.644740e-06 -6.592383e-06
N 3.203082e+00 -1.953582e+00 -6.012336e+00 -5.326452e-06 -4.936223e-06 -5.202129e-06
N 3.201999e+00 -1.909245e+00 -7.822403e-01 -1.172611e-05 1.709288e-05 -5.682243e-06
N -4.863911e+00 8.906609e-01 4.456748e+00 -1.340044e-06 -6.983581e-06 -7.836345e-06
N -4.862887e+00 8.917088e-01 -6.026874e+00 -4.192101e-06 -1.158859e-06 -7.272286e-06
N -4.866876e+00 8.924412e-01 -7.805102e-01 -1.217519e-05 2.050676e-05 -3.085479e-06
N -6.521429e+00 3.711942e+00 4.473494e+00 -1.563193e-06 -1.569909e-06 -3.670506e-06
N -6.480772e+00 3.688580e+00 -6.039343e+00 -1.019165e-06 -3.530145e-08 -7.145719e-06
N -6.479445e+00 3.684087e+00 -7.750925e-01 -9.478568e-06 1.513332e-05 -4.329041e-06
N -3.251778e+00 -1.953853e+00 4.474175e+00 -1.318619e-06 -1.169650e-05 -7.432567e-06
N -3.249411e+00 -1.906626e+00 -6.037934e+00 -3.370598e-06 4.616362e-06 -9.551153e-06
N -3.249392e+00 -1.906223e+00 -7.820958e-01 -1.587052e-05 1.994664e-05 -5.296983e-06
N -1.635441e+00 8.927611e-01 4.455613e+00 -7.516294e-07 -3.828080e-06 -6.337762e-06
N -1.635419e+00 8.920922e-01 -6.032674e+00 -1.247504e-06 4.147967e-07 -5.305466e-06
N -1.629906e+00 8.937478e-01 -7.731820e-01 -7.649379e-06 1.297980e-05 -5.400264e-06
N -3.250143e+00 3.687223e+00 4.455032e+00 -3.231674e-06 6.050183e-07 -3.293998e-06
N -3.205664e+00 3.711351e+00 -6.009115e+00 -3.260923e-06 3.989372e-06 -7.427878e-06
N -3.244291e+00 3.689840e+00 -7.875581e-01 -9.756513e-06 1.622353e-05 -8.504035e-06
N -2.194431e-02 -1.903213e+00 4.454203e+00 -5.564970e-07 -1.644537e-07 -8.171898e-06
N -2.230746e-02 -1.902052e+00 -6.029119e+00 1.070305e-06 2.530631e-06 -5.727812e-06
N -2.178351e-02 -1.902202e+00 -7.789438e-01 -8.146649e-06 1.337455e-05 -6.971815e-06
N 2.079604e-02 1.852651e+00 1.877960e+00 -1.470267e-05 2.036748e-05 -8.387791e-07
N -1.991704e-02 1.827057e+00 7.058681e+00 -2.523532e-07 -8.002687e-06 -4.542803e-06
N -2.286780e-02 1.823149e+00 -3.409405e+00 -4.710922e-07 -9.589671e-06 -9.390197e-06
N 3.251212e+00 -3.792302e+00 1.861042e+00 1.731197e-06 2.632393e-06 9.707688e-07
N 3.206578e+00 -3.768158e+00 7.060729e+00 -2.558780e-06 -3.646711e-06 -5.150937e-06
N 3.206041e+00 -3.765956e+00 -3.466805e+00 -4.772399e-06 -4.235877e-06 -5.531118e-06
N 1.590756e+00 -9.198237e-01 1.853042e+00 -8.734237e-06 -1.595571e-06 -1.178145e-05
N 1.592707e+00 -9.701078e-01 7.068436e+00 2.568509e-06 -8.995210e-07 -3.434137e-06
N 1.591557e+00 -9.714150e-01 -3.404171e+00 -1.219795e-06 1.380463e-06 -1.378890e-05
N 3.160572e+00 1.800702e+00 1.860520e+00 -3.669953e-06 6.874953e-06 -8.620290e-06
N 3.200339e+00 1.820226e+00 7.062307e+00 3.432733e-06 -5.158116e-06 -3.989581e-06
N 3.202913e+00 1.823950e+00 -3.406861e+00 -4.169748e-07 -8.085667e-06 -1.698233e-05
N 6.386127e+00 -3.790616e+00 1.850549e+00 -9.118494e-06 4.655912e-06 -2.457233e-06
N 6.423971e+00 -3.769772e+00 7.008085e+00 6.983419e-06 -4.793471e-06 -1.123050e-05
N 6.431073e+00 -3.767302e+00 -3.407082e+00 6.874465e-06 -2.272144e-06 -4.670767e-06
N 4.818877e+00 -9.726121e-01 1.837575e+00 -3.098653e-06 9.467467e-06 -7.681783e-06
N 4.814372e+00 -9.735371e-01 7.076603e+00 2.054352e-06 -1.407239e-06 -4.452490e-06
N 4.817083e+00 -9.729116e-01 -3.406758e+00 2.261738e-06 -6.584746e-07 -9.554484e-06
N -3.250560e+00 1.822373e+00 1.834735e+00 -4.016178e-06 4.522226e-06 -1.405135e-05
N -3.250829e+00 1.825445e+00 7.077822e+00 7.398618e-07 -5.667653e-06 -6.379339e-06
N -3.248212e+00 1.822196e+00 -3.403135e+00 2.570391e-06 -5.452710e-06 -9.129598e-06
N -2.640787e-02 -3.768355e+00 1.841739e+00 -1.176442e-06 1.308012e-06 -6.537595e-06
N -2.096377e-02 -3.768101e+00 7.076709e+00 1.950854e-06 -4.855735e-06 -4.946456e-06
N -2.376536e-02 -3.766946e+00 -3.406178e+00 1.411700e-06 -3.110644e-06 -8.929608e-06
N -1.641438e+00 -9.721730e-01 1.843655e+00 -6.182567e-06 7.554652e-06 -6.992382e-06
N -1.636939e+00 -9.727435e-01 7.069348e+00 -4.633165e-07 -1.711410e-06 -3.061364e-06
N -1.636275e+00 -9.708621e-01 -3.405556e+00 1.636341e-06 -5.864730e-07 -1.291464e-05
