108
Energy=-1031744.584215 Lattice="9.478229 0.000000 0.000000 -4.745465 8.201776 0.000000 0.025029 0.002893 15.319688" Stress="0.000020 0.000013 0.000005 0.000013 0.000033 0.000006 0.000005 0.000006 0.000056" Properties=species:S:1:pos:R:3:forces:R:3
Al 1.544412 0.889955 2.419408 0.003600 -0.006316 -0.000828
Al 1.530440 0.869177 7.516350 0.010605 0.001206 -0.008492
Al 1.546266 0.872773 -2.693071 0.002419 -0.000594 0.001343
Al -0.042250 3.609494 2.415519 0.005633 0.002685 -0.000241
Al -0.011931 3.613743 7.499322 -0.000456 0.000553 0.002198
Al -0.036839 3.593392 -2.722566 0.002443 0.002124 0.007304
Al 3.155548 -1.850078 2.416303 0.010190 -0.005822 0.004063
Al 3.147371 -1.849154 7.521937 -0.001718 -0.002835 0.003688
Al 3.165455 -1.875661 -2.725948 0.007156 -0.002607 0.007982
Al -4.777157 0.891674 2.409436 0.002434 -0.001041 -0.013291
Al -4.740745 0.862488 7.531958 -0.011686 0.000945 0.002248
Al -4.757083 0.862522 -2.700766 0.001548 -0.003977 0.004195
Al -6.356721 3.619995 2.420306 0.003340 -0.004070 0.003011
Al -6.348268 3.608763 7.501019 0.001276 -0.000802 0.005085
Ga -6.343041 3.574195 -2.730021 -0.001216 0.003851 0.002320
Al -3.188287 -1.815049 2.450962 0.000762 -0.010065 -0.007128
Ga -3.186118 -1.857606 7.503063 0.002081 -0.001194 0.004213
Al -3.186660 -1.854397 -2.737786 0.000501 -0.003254 0.006306
Al -1.610361 0.893014 2.414215 -0.000036 -0.007533 -0.007690
Al -1.616666 0.933246 7.553269 0.004396 -0.016554 -0.021878
Al -1.620591 0.879346 -2.715008 0.001968 -0.002300 0.007155
Al -3.181129 3.632106 2.418962 0.008792 -0.009336 0.002647
Ga -3.188564 3.602277 7.523819 0.000545 0.003942 -0.000239
Al -3.163794 3.592362 -2.717801 0.003033 -0.000433 0.003931
Ga -0.011083 -1.899852 2.395917 -0.000830 0.005368 0.004035
Ga -0.045276 -1.854110 7.500096 0.004010 -0.001213 0.004109
Ga -0.002699 -1.857345 -2.745748 -0.000511 -0.002301 0.004734
Al -0.033015 1.786851 4.975547 -0.000250 0.004632 0.001578
Ga -0.035842 1.772604 -5.284336 0.000516 0.001786 0.004074
Al -0.011789 1.753869 -0.136737 -0.011731 0.009869 -0.005396
Al 3.152503 -3.666304 4.970357 -0.003804 0.000043 -0.000063
Al 3.146890 -3.678845 -5.260696 -0.002031 -0.000223 0.002186
Al 3.164336 -3.713704 -0.126240 -0.003238 0.004529 -0.012041
Al 1.566565 -0.948461 4.985684 -0.003148 -0.005517 -0.005535
Al 1.585809 -0.955725 -5.207921 -0.011448 -0.003745 -0.022779
Ga 1.597958 -0.953013 -0.155827 -0.000160 -0.001459 0.002618
Ga 3.123318 1.790685 4.967606 0.002383 0.004359 0.002669
Ga 3.144046 1.773283 -5.287298 -0.001165 0.004471 0.000752
Al 3.137105 1.771112 -0.147459 0.004113 -0.000487 0.008227
Al 6.289393 -3.669453 4.960763 0.001547 -0.000458 -0.002455
Al 6.287867 -3.674869 -5.263915 0.005136 -0.001861 0.000965
Ga 6.297878 -3.691408 -0.151939 -0.001554 0.003276 0.004707
Al 4.699702 -0.937224 4.986838 0.000652 -0.000740 -0.005404
Al 4.731465 -0.960247 -5.254698 -0.002899 0.001971 0.002801
Al 4.745003 -0.960293 -0.123502 -0.002432 0.001556 -0.010728
Ga -3.186912 1.793730 4.955419 -0.004061 0.004634 0.000547
Al -3.180539 1.782427 -5.251727 -0.008991 0.003307 0.003884
Al -3.169702 1.768822 -0.123843 -0.003118 0.001922 -0.007831
Al -0.025150 -3.651366 4.969057 -0.000301 -0.022695 -0.000971
Al -0.012226 -3.671511 -5.248951 -0.006055 -0.007081 -0.003253
Ga 0.001043 -3.711443 -0.158320 0.001631 0.000627 0.001471
Al -1.621892 -0.917560 4.996581 0.011102 -0.011158 -0.022532
Al -1.610962 -0.943951 -5.262782 -0.011964 0.002380 0.002504
Al -1.597329 -0.947754 -0.194391 -0.005191 0.000338 0.007379
N 1.510382 0.869502 4.363064 -0.004957 -0.007394 -0.006054
N 1.551741 0.823579 -5.930647 -0.004464 -0.006429 0.010862
N 1.547309 0.924459 -0.756921 0.006474 -0.005732 -0.008290
N -0.033401 3.611521 4.363139 -0.000069 -0.001781 -0.003550
N -0.029711 3.640371 -5.889343 0.000231 0.002800 -0.003776
N -0.046862 3.571374 -0.776147 -0.003237 -0.004430 -0.003322
N 3.141654 -1.852591 4.367110 0.002762 0.001463 -0.004035
N 3.142568 -1.860644 -5.854458 -0.002282 -0.000767 -0.002938
N 3.193226 -1.894965 -0.781939 0.004228 -0.002736 -0.003789
N -4.770395 0.849444 4.280651 -0.000291 -0.006222 0.013936
N -4.725860 0.848201 -5.873954 0.005202 -0.003413 -0.002031
N -4.760533 0.862695 -0.748469 0.000341 0.001025 -0.001957
N -6.350967 3.658162 4.354099 -0.000337 0.002023 -0.005061
N -6.333209 3.662213 -5.879287 -0.006576 -0.003926 -0.003256
N -6.336732 3.560364 -0.758664 -0.000852 -0.004176 -0.000681
N -3.197694 -1.833797 4.389438 0.002175 0.000412 -0.005515
N -3.181887 -1.864453 -5.834626 -0.002818 0.002354 0.001398
N -3.170848 -1.834417 -0.796274 0.000009 0.003292 -0.004518
N -1.586765 0.884244 4.350383 0.009208 -0.009022 -0.009887
N -1.675184 0.873342 -5.920096 0.007201 -0.008075 0.016387
N -1.608257 0.867926 -0.770469 0.004163 0.000103 -0.001266
N -3.188955 3.666395 4.359103 0.004803 -0.001316 -0.005563
N -3.193129 3.613598 -5.819553 0.004053 -0.000621 0.001369
N -3.140253 3.577666 -0.780467 0.006124 -0.003583 -0.004221
N 0.022675 -1.940859 4.375761 -0.014131 0.044398 0.005335
N -0.128004 -1.893144 -5.832454 0.035316 0.013853 0.003225
N -0.037163 -1.849929 -0.769019 -0.000375 0.001972 0.000018
N -0.027758 1.794021 1.773079 -0.000688 -0.004091 0.009332
N -0.030535 1.793187 6.917734 -0.001774 0.000006 -0.003037
N -0.029041 1.770205 -3.298947 0.000097 -0.001914 0.002737
N 3.143538 -3.669592 1.770493 0.001540 -0.002343 0.012892
N 3.179091 -3.664283 6.900186 0.001327 0.003123 -0.002296
N 3.153932 -3.696382 -3.330245 -0.002556 0.001534 -0.002223
N 1.635893 -0.974458 1.823740 -0.013273 0.020337 0.001344
N 1.595690 -0.937977 6.912560 -0.000823 0.002362 -0.006524
N 1.641970 -0.933402 -3.341795 -0.008564 0.003935 0.008563
N 3.127342 1.798312 1.824664 -0.004072 -0.002277 -0.008047
N 3.144507 1.788209 6.958498 -0.001939 -0.005385 0.001307
N 3.130156 1.711685 -3.314345 0.000676 -0.000132 0.003931
N 6.306464 -3.674197 1.848982 -0.007134 0.005068 0.004388
N 6.301929 -3.714650 6.884568 -0.000122 -0.003857 -0.003147
N 6.268074 -3.678602 -3.338610 -0.003453 0.001792 -0.001725
N 4.725653 -0.931261 1.776311 -0.000280 -0.002333 0.009688
N 4.687330 -0.933580 6.908576 -0.004699 0.005632 -0.006368
N 4.729853 -0.953341 -3.326375 -0.001475 0.001816 -0.001966
N -3.192150 1.805646 1.785486 0.004788 -0.003142 0.008609
N -3.197584 1.737917 6.933249 0.003259 0.002867 -0.002845
N -3.184096 1.777987 -3.319875 -0.000785 -0.001172 -0.002325
N 0.009937 -3.763738 1.809752 -0.012857 0.005275 0.001047
N -0.053763 -3.707412 6.857414 -0.001642 0.000305 0.005319
N 0.029550 -3.722574 -3.358455 0.001058 0.001301 0.003584
N -1.628909 -0.964427 1.745040 -0.000059 0.013922 0.009007
N -1.614948 -0.904519 6.836484 0.002010 0.013968 0.019426
N -1.621695 -0.934130 -3.345068 -0.004283 0.006629 -0.001647
