108
Energy=-1123296.389127 Lattice="9.478369 0.000000 0.000000 -4.747686 8.204557 0.000000 -0.003226 -0.001911 15.284052" Stress="0.000003 -0.000003 -0.000001 -0.000003 -0.000003 -0.000001 -0.000001 -0.000001 0.000017" Properties=species:S:1:pos:R:3:forces:R:3
Al 1.564033 0.877205 2.404127 0.003058 0.000292 0.000975
Al 1.561326 0.873700 7.502582 0.000373 -0.000213 0.000132
Al 1.562027 0.880470 -2.710737 0.000095 0.001207 -0.003073
Al -0.038846 3.606304 2.403783 -0.000054 0.000552 -0.000379
Al -0.034014 3.595917 7.503149 -0.000456 -0.000162 0.000255
Al -0.019980 3.593186 -2.707125 0.002501 -0.002579 0.000758
Al 3.140040 -1.868075 2.421343 0.001630 -0.000911 0.005328
Al 3.136967 -1.859165 7.485532 0.000500 0.000107 0.000216
Ga 3.143939 -1.860722 -2.707308 -0.000394 0.000592 0.000251
Al -4.757845 0.863818 2.416078 -0.002571 0.007164 0.004146
Al -4.781181 0.874537 7.477889 0.001078 0.000174 0.000096
Al -4.776294 0.888454 -2.702186 -0.000761 0.000593 -0.002213
Ga -6.355153 3.589949 2.405275 0.001518 -0.000664 0.000431
Al -6.341390 3.586668 7.508815 0.000435 -0.000639 0.000476
Al -6.337434 3.592117 -2.718943 -0.000126 0.000267 0.000276
Al -3.204505 -1.847227 2.417400 0.002960 0.003603 0.002697
Ga -3.191733 -1.858241 7.509176 -0.000217 0.000491 -0.001190
Ga -3.167789 -1.863200 -2.724683 0.000082 -0.000093 0.000335
Al -1.603143 0.878480 2.387653 -0.002259 -0.002459 -0.001437
Al -1.609518 0.879550 7.493467 -0.000381 0.001605 0.003196
Ga -1.594423 0.888807 -2.685912 0.001512 -0.001320 -0.001395
Ga -3.171381 3.603585 2.403924 -0.000418 -0.000518 0.001075
Al -3.190315 3.601018 7.471615 0.000063 -0.000514 0.000672
Al -3.196917 3.613378 -2.685734 -0.000136 0.000001 0.000462
Ga -0.024723 -1.852995 2.424160 0.000260 -0.000647 0.000536
Ga -0.013223 -1.859960 7.492344 -0.000074 0.000130 0.000265
Al -0.008182 -1.868217 -2.706659 -0.002561 0.000981 -0.003312
Ga -0.036362 1.769655 4.949183 0.000831 0.000012 0.001187
Al -0.005454 1.779514 -5.258966 -0.001485 -0.001369 -0.000313
Al -0.023061 1.786554 -0.140494 0.000489 0.000390 -0.000270
Al 3.131953 -3.678033 4.966920 -0.000268 0.001512 0.000434
Ga 3.144040 -3.687414 -5.258475 -0.000068 0.000699 0.000116
Al 3.141770 -3.704391 -0.153791 -0.000319 0.000549 0.000367
Al 1.568935 -0.952593 4.952915 0.003834 0.001386 -0.000441
Al 1.558791 -0.938513 -5.247901 -0.000350 0.000119 0.000374
Ga 1.554973 -0.947147 -0.143770 -0.000755 0.000367 -0.000158
Al 3.140957 1.770738 4.966676 0.000789 -0.002747 0.000987
Al 3.125701 1.779320 -5.254850 0.000501 0.000144 0.000880
Al 3.132998 1.777218 -0.170340 0.002392 0.003023 0.002211
Ga 6.297856 -3.688237 4.958342 0.000174 0.000569 -0.000169
Al 6.312315 -3.697725 -5.251956 -0.000451 -0.001455 0.000746
Ga 6.304061 -3.697823 -0.139230 -0.000148 -0.000152 -0.002104
Al 4.709428 -0.942975 4.941405 -0.001244 -0.000129 -0.001299
Al 4.715431 -0.939568 -5.261613 -0.001940 0.000425 0.000230
Ga 4.734416 -0.924360 -0.111399 -0.002706 -0.000920 0.001806
Al -3.195098 1.777189 4.959365 -0.001834 -0.000424 0.000006
Ga -3.200719 1.783087 -5.258662 0.001237 -0.000609 0.000823
Al -3.185769 1.787844 -0.166989 -0.001493 0.002984 0.004109
Al -0.012548 -3.687067 4.975470 -0.001998 -0.002379 -0.000414
Al -0.026219 -3.681955 -5.239696 -0.001116 0.000265 0.000430
Al -0.017351 -3.692069 -0.181126 -0.000004 -0.000059 -0.000148
Al -1.610234 -0.937240 4.930973 -0.000018 -0.003621 0.005783
Al -1.594283 -0.955749 -5.252921 0.001854 0.002726 0.002481
Al -1.590178 -0.943802 -0.141225 0.000489 -0.000716 0.000727
N 1.594969 0.854704 4.324717 -0.000524 -0.000381 -0.000939
N 1.558864 0.870322 -5.860067 0.000410 -0.000111 -0.000593
N 1.553752 0.922009 -0.794258 -0.001564 -0.001304 0.002321
N -0.080006 3.624755 4.309903 0.000308 -0.000220 0.000403
N 0.014634 3.584997 -5.873773 0.000148 -0.000534 -0.000048
N -0.060900 3.577710 -0.782145 -0.000350 -0.000116 0.000174
N 3.135125 -1.870692 4.347980 -0.000156 -0.001060 0.000422
N 3.138395 -1.815962 -5.875624 -0.000278 0.000076 -0.000508
N 3.153463 -1.900247 -0.738299 0.000251 -0.000626 -0.000038
N -4.769564 0.877223 4.345682 0.001451 0.001310 0.000653
N -4.810324 0.851906 -5.891667 0.000095 0.000084 -0.000757
N -4.765441 0.924042 -0.794374 0.000439 -0.002532 0.002925
N -6.308996 3.562669 4.378893 0.002799 0.006546 -0.000867
N -6.336463 3.602682 -5.849900 -0.000566 0.000417 0.000161
N -6.309231 3.576696 -0.793113 -0.000123 0.000887 0.000253
N -3.183131 -1.821338 4.333711 0.000938 0.000291 0.000213
N -3.183846 -1.864729 -5.793814 0.001428 0.000377 -0.000648
N -3.138737 -1.837000 -0.750599 -0.000310 0.000513 0.001525
N -1.656560 0.846520 4.310690 0.001275 0.003586 -0.002778
N -1.569187 0.853719 -5.865564 0.000298 -0.000390 -0.002275
N -1.601631 0.878308 -0.699194 0.001714 -0.001153 -0.000870
N -3.185529 3.607989 4.399139 -0.000429 -0.000705 -0.000908
N -3.235584 3.637332 -5.900428 0.001621 -0.001175 -0.001471
N -3.184770 3.610532 -0.762152 0.000785 -0.000122 0.000441
N -0.010571 -1.858576 4.414322 -0.005643 -0.002265 -0.002848
N -0.015298 -1.862734 -5.811761 -0.000464 -0.000321 0.000175
N -0.059703 -1.879010 -0.791717 0.000514 -0.000471 0.002139
N -0.013158 1.785388 1.794696 -0.000427 -0.000147 -0.000023
N -0.026060 1.777012 6.932839 -0.000134 0.000346 -0.000548
N 0.020596 1.799045 -3.344286 -0.000366 0.002508 0.001619
N 3.187096 -3.653382 1.769668 -0.002091 -0.003606 -0.001469
N 3.143301 -3.686585 6.894022 0.000374 -0.000110 -0.000202
N 3.145664 -3.741996 -3.281806 -0.001494 0.001285 -0.000538
N 1.612220 -0.934377 1.839788 -0.007072 0.002507 -0.002669
N 1.602297 -0.926195 6.864091 -0.000462 0.001152 0.001244
N 1.528323 -0.926526 -3.326862 -0.000238 0.000049 0.000585
N 3.146748 1.732626 1.758736 -0.003136 -0.000080 -0.001645
N 3.125541 1.782271 6.889152 0.000206 -0.000246 -0.000532
N 3.136312 1.779775 -3.327123 -0.000249 0.000061 -0.000260
N 6.252711 -3.647803 1.843675 0.000755 -0.004653 -0.002262
N 6.300752 -3.738247 6.931874 -0.000566 0.001040 -0.000326
N 6.303209 -3.738090 -3.331237 -0.000079 -0.000186 0.000661
N 4.686894 -0.932093 1.899236 0.009435 -0.005593 -0.011921
N 4.677013 -0.930152 6.861380 -0.000312 -0.000370 -0.001097
N 4.721933 -0.893125 -3.354899 -0.000073 -0.000872 0.000712
N -3.188922 1.740638 1.768185 0.000546 -0.000761 -0.001271
N -3.188699 1.774993 6.887024 0.000175 0.000732 -0.000669
N -3.225716 1.813620 -3.277314 0.000509 -0.000126 0.000291
N -0.020551 -3.684597 1.732760 0.000445 0.000649 -0.000510
N -0.028337 -3.731322 6.880382 0.000039 -0.000418 -0.000907
N -0.014195 -3.686407 -3.310319 0.000144 -0.000187 0.000269
N -1.637493 -0.937988 1.779143 -0.001999 0.002499 0.000653
N -1.606774 -0.898921 6.856511 -0.000160 -0.002145 -0.003308
N -1.549852 -0.958037 -3.345803 0.000111 -0.001558 -0.000093
