108
Energy=-1.260622e+06 Lattice="9.479889e+00 0.000000e+00 0.000000e+00 -4.743934e+00 8.206666e+00 0.000000e+00 9.423392e-04 3.025611e-03 1.530821e+01" Stress="-8.398058e-03 1.906146e-03 3.982444e-04 1.902560e-03 -5.637552e-03 3.430067e-04 4.017418e-04 3.406848e-04 -2.073729e-03" Properties=species:S:1:pos:R:3:forces:R:3 Config_type=AlGaN_super3_18_0_3.xyz
Al 1.544720e+00 9.427519e-01 2.520635e+00 5.112845e-03 -2.257709e-02 -4.599752e-02
Al 1.553276e+00 8.675763e-01 7.521620e+00 -5.614393e-04 2.834479e-03 -7.367206e-03
Al 1.556827e+00 8.741443e-01 -2.737151e+00 1.662350e-03 -1.092701e-04 9.065894e-03
Al 1.367597e-02 3.622589e+00 2.442707e+00 -1.132213e-02 -1.475469e-02 2.179598e-03
Al -1.628002e-02 3.600256e+00 7.499821e+00 -6.354550e-04 1.062113e-03 8.614737e-04
Al -2.047270e-02 3.601062e+00 -2.735253e+00 -2.495103e-04 1.013374e-03 -2.357617e-04
Al 3.175441e+00 -1.884648e+00 2.425320e+00 -2.401122e-02 1.027826e-02 4.691401e-03
Al 3.155613e+00 -1.862657e+00 7.498699e+00 1.928718e-03 -1.906852e-04 3.466425e-03
Ga 3.163850e+00 -1.872365e+00 -2.739215e+00 1.348364e-03 -3.207253e-03 7.420010e-03
Al -4.789226e+00 8.918509e-01 2.421350e+00 -4.074768e-03 -7.882085e-03 -1.345347e-03
Al -4.782415e+00 8.795821e-01 7.511001e+00 3.908416e-03 -2.760449e-03 5.574975e-04
Al -4.773491e+00 8.736942e-01 -2.762017e+00 7.768314e-04 -8.752085e-04 6.665168e-03
Al -6.338882e+00 3.650426e+00 2.486167e+00 2.222329e-03 -1.235216e-02 -2.341161e-02
Al -6.362181e+00 3.602989e+00 7.525003e+00 1.202754e-03 6.422978e-04 2.192024e-03
Ga -6.348860e+00 3.593094e+00 -2.729351e+00 -2.790043e-03 1.314215e-04 6.551983e-03
Al -3.190041e+00 -1.897019e+00 2.447315e+00 2.324360e-03 3.949349e-03 -1.642085e-03
Ga -3.176760e+00 -1.865433e+00 7.516992e+00 -5.398501e-04 -5.099475e-04 8.502060e-04
Al -3.179452e+00 -1.856988e+00 -2.752607e+00 1.351586e-03 -3.073206e-03 7.409935e-03
Ga -1.617860e+00 8.844322e-01 2.409500e+00 8.953824e-03 -5.129737e-05 -7.254889e-04
Al -1.626016e+00 8.825612e-01 7.507423e+00 4.534756e-03 -2.864662e-04 -5.918658e-04
Al -1.637597e+00 8.863554e-01 -2.748215e+00 6.295749e-03 -1.885009e-03 5.943269e-03
Ga -3.197862e+00 3.609926e+00 2.434942e+00 5.381034e-03 3.385199e-03 3.549878e-04
Ga -3.185323e+00 3.616176e+00 7.510167e+00 4.166747e-03 6.291622e-04 -2.477006e-03
Al -3.191568e+00 3.603889e+00 -2.745781e+00 6.488298e-03 4.275762e-04 4.293074e-03
Al -2.572052e-02 -1.868439e+00 2.406807e+00 1.427307e-02 5.568663e-03 -2.386912e-03
Al -3.066845e-02 -1.849137e+00 7.522814e+00 4.238523e-03 -1.063273e-03 -2.701037e-04
Ga -2.858148e-02 -1.851098e+00 -2.731238e+00 1.416256e-03 1.212439e-03 5.854093e-03
Al -1.892126e-02 1.780204e+00 4.987748e+00 -7.156745e-03 1.001299e-02 5.531936e-03
Ga -2.626544e-02 1.785737e+00 -5.281167e+00 -4.618461e-03 -1.427874e-03 3.501117e-03
Al -1.507003e-02 1.780828e+00 -2.101790e-01 1.542843e-03 -4.824468e-03 1.020476e-02
Al 3.172091e+00 -3.698489e+00 4.989966e+00 -3.984524e-03 -1.323867e-03 -8.775979e-03
Al 3.162939e+00 -3.694344e+00 -5.283632e+00 -3.296890e-03 1.298474e-03 5.678732e-03
Ga 3.151292e+00 -3.711991e+00 -1.239836e-01 -2.676042e-03 3.018389e-03 -5.067859e-03
Ga 1.591286e+00 -9.664398e-01 4.985373e+00 -2.896596e-03 -2.807498e-03 -7.465789e-04
Ga 1.587287e+00 -9.532511e-01 -5.290126e+00 -5.067685e-03 1.290846e-04 1.845571e-03
Al 1.578167e+00 -9.652744e-01 -1.797938e-01 -5.222165e-03 9.165241e-03 1.503440e-02
Ga 3.110163e+00 1.793146e+00 4.978056e+00 7.041413e-03 -1.500030e-03 4.983028e-03
Al 3.131392e+00 1.774715e+00 -5.284255e+00 1.664212e-03 2.883999e-03 2.724182e-03
Al 3.138201e+00 1.777195e+00 -1.326208e-01 -7.940294e-03 1.963178e-03 -5.765054e-04
Al 6.303258e+00 -3.697228e+00 4.986869e+00 -9.745759e-03 6.175095e-03 1.879289e-03
Al 6.291402e+00 -3.685889e+00 -5.271809e+00 1.515009e-03 -2.643855e-04 3.356722e-03
Ga 6.301553e+00 -3.703211e+00 -1.257756e-01 2.376245e-03 5.993057e-04 5.210361e-05
Al 4.735047e+00 -9.604694e-01 4.973746e+00 -2.280632e-03 4.101585e-03 -9.738417e-05
Al 4.741584e+00 -9.602025e-01 -5.277423e+00 -3.904615e-03 3.645853e-03 1.529687e-03
Ga 4.726137e+00 -9.315238e-01 -1.243075e-01 -1.187289e-03 3.703714e-04 -4.660915e-03
Al -3.200497e+00 1.793405e+00 4.972427e+00 1.041329e-03 -8.916927e-03 5.629837e-03
Al -3.199667e+00 1.777190e+00 -5.282240e+00 -1.970541e-03 1.707169e-03 4.868488e-03
Al -3.206384e+00 1.805797e+00 -2.068781e-01 1.102267e-03 -2.804720e-03 8.463965e-03
Ga -3.951662e-02 -3.690716e+00 4.981795e+00 4.151258e-03 2.446249e-04 3.126681e-03
Ga -2.889716e-02 -3.688349e+00 -5.278513e+00 -1.486971e-03 1.281439e-03 1.210320e-03
Al -2.163645e-02 -3.691056e+00 -1.753599e-01 -1.870816e-03 1.054832e-03 8.941400e-03
Ga -1.595991e+00 -9.380925e-01 4.979987e+00 -2.688243e-03 4.132943e-03 -8.417003e-04
Al -1.611049e+00 -9.308736e-01 -5.273488e+00 -1.973154e-03 -6.261121e-03 3.670917e-03
Ga -1.595125e+00 -9.425957e-01 -1.209614e-01 -1.099557e-03 2.910794e-03 -1.564538e-02
N 1.509411e+00 8.873553e-01 4.356328e+00 -9.819811e-04 6.372144e-04 1.007962e-02
N 1.578162e+00 8.988748e-01 -5.922925e+00 4.729315e-03 -1.154718e-03 6.807848e-03
N 1.560850e+00 8.717349e-01 -7.956496e-01 2.691006e-03 -2.978472e-03 -1.910936e-04
N -4.890852e-03 3.602844e+00 4.385325e+00 -9.611504e-04 -3.194056e-03 -3.605869e-03
N -2.303014e-02 3.634665e+00 -5.886432e+00 1.256669e-03 5.432146e-03 -7.224599e-03
N -1.553659e-02 3.576883e+00 -8.230392e-01 -6.356620e-04 -4.387181e-03 1.401180e-03
N 3.190961e+00 -1.889129e+00 4.366965e+00 1.725233e-03 -3.429406e-03 -4.573826e-03
N 3.181916e+00 -1.886712e+00 -5.887268e+00 6.954156e-03 -3.645355e-03 -4.175064e-03
N 3.134696e+00 -1.861424e+00 -7.622377e-01 -4.817538e-03 1.656621e-03 -6.360938e-04
N -4.759876e+00 8.706200e-01 4.362228e+00 6.625615e-03 -6.311043e-03 -6.667789e-03
N -4.773118e+00 8.720011e-01 -5.874980e+00 6.458035e-04 -2.014959e-03 -9.776331e-04
N -4.780347e+00 9.269393e-01 -8.169405e-01 1.614979e-03 -2.497530e-03 2.915109e-03
N -6.399936e+00 3.631342e+00 4.347165e+00 4.298745e-03 3.415489e-04 3.909969e-03
N -6.379445e+00 3.590544e+00 -5.874716e+00 -5.648530e-03 -3.771304e-03 -2.488477e-03
N -6.319341e+00 3.581855e+00 -7.505976e-01 4.569934e-03 -6.753157e-04 3.564574e-03
N -3.196873e+00 -1.880814e+00 4.379752e+00 -3.487718e-03 -3.295405e-03 -6.407140e-03
N -3.175007e+00 -1.866418e+00 -5.837561e+00 6.106243e-04 -1.214993e-03 6.159113e-03
N -3.178284e+00 -1.862816e+00 -8.035086e-01 -5.421167e-04 -1.436852e-03 -7.692707e-03
N -1.601997e+00 9.435731e-01 4.395422e+00 -2.763238e-03 -4.420895e-03 -1.263635e-03
N -1.665943e+00 8.490887e-01 -5.884445e+00 3.435681e-03 4.237248e-03 -3.558925e-03
N -1.627710e+00 9.165658e-01 -8.054049e-01 2.863819e-03 3.541749e-03 -6.487929e-04
N -3.172822e+00 3.564605e+00 4.418035e+00 8.763399e-03 1.311698e-02 -2.616895e-03
N -3.155177e+00 3.598728e+00 -5.847617e+00 6.702913e-03 -4.694226e-03 2.391314e-03
N -3.217125e+00 3.605173e+00 -8.005027e-01 -1.369262e-03 -1.185466e-03 -1.581044e-03
N -2.128015e-02 -1.862008e+00 4.342340e+00 3.036358e-03 4.915075e-04 -1.209246e-02
N -6.351670e-02 -1.837246e+00 -5.889178e+00 2.786869e-04 3.459491e-03 -2.240425e-03
N -5.331601e-03 -1.871437e+00 -7.596399e-01 8.995587e-03 -5.210008e-03 4.473533e-03
N 2.551592e-02 1.791296e+00 1.767050e+00 -6.367946e-03 1.144539e-02 -6.091713e-05
N -1.829759e-02 1.779484e+00 6.921559e+00 -3.882625e-03 -1.223083e-03 -3.390043e-03
N -1.969363e-02 1.778424e+00 -3.310774e+00 -3.785064e-03 -1.813072e-03 5.027710e-03
N 3.196707e+00 -3.655116e+00 1.849541e+00 -2.667572e-05 -1.504338e-02 9.812073e-04
N 3.185000e+00 -3.657498e+00 6.874658e+00 1.461944e-03 -2.666143e-03 5.745856e-03
N 3.152359e+00 -3.726545e+00 -3.362775e+00 -3.624436e-03 -6.459230e-03 -2.890763e-04
N 1.575019e+00 -9.618184e-01 1.803515e+00 2.217570e-04 7.158788e-03 3.918309e-03
N 1.576650e+00 -9.537061e-01 6.965122e+00 -4.342400e-03 -1.005734e-03 -1.518353e-03
N 1.583505e+00 -9.304514e-01 -3.333358e+00 -5.193374e-03 8.706689e-03 2.251441e-04
N 3.108863e+00 1.836859e+00 1.813062e+00 8.351438e-03 -9.803863e-03 6.756314e-03
N 3.126248e+00 1.790550e+00 6.949473e+00 -2.033965e-04 -1.119511e-03 -1.400480e-04
N 3.129204e+00 1.752093e+00 -3.361266e+00 -6.835252e-04 -7.970543e-03 -6.063143e-03
N 6.309020e+00 -3.731250e+00 1.883049e+00 1.014376e-03 1.873580e-02 -5.870866e-03
N 6.302127e+00 -3.718647e+00 6.906127e+00 5.931496e-04 -6.208576e-03 -6.400151e-03
N 6.276548e+00 -3.677697e+00 -3.351108e+00 -5.902870e-03 3.980168e-03 -2.519991e-03
N 4.695330e+00 -1.011606e+00 1.854883e+00 1.959448e-02 2.436974e-02 2.207214e-03
N 4.706643e+00 -9.387330e-01 6.899819e+00 -7.199183e-03 7.712871e-03 -5.722526e-03
N 4.757729e+00 -9.430993e-01 -3.359851e+00 3.482859e-03 7.393180e-03 -2.770502e-03
N -3.225121e+00 1.775859e+00 1.779025e+00 -6.693319e-03 -5.151690e-03 -1.465422e-02
N -3.199595e+00 1.763876e+00 6.897094e+00 -9.340344e-04 -8.191957e-03 -3.469058e-03
N -3.201592e+00 1.791239e+00 -3.352376e+00 -6.531718e-05 -6.406555e-04 -5.003669e-04
N -5.162605e-02 -3.672729e+00 1.809095e+00 -3.774464e-03 3.290634e-03 -8.576433e-03
N -5.936234e-02 -3.668704e+00 6.944364e+00 -6.286370e-03 4.425753e-03 2.497254e-03
N -2.314632e-03 -3.699082e+00 -3.330312e+00 6.206785e-03 -2.448069e-03 2.968623e-03
N -1.595985e+00 -9.977405e-01 1.799287e+00 -1.071515e-02 -2.468973e-03 2.167695e-02
N -1.571992e+00 -9.348535e-01 6.934797e+00 3.793016e-03 6.222525e-03 1.524926e-03
N -1.624517e+00 -9.349147e-01 -3.354557e+00 -6.400984e-03 7.254889e-03 -2.370555e-03
