108
Energy=-6.655416e+05 Lattice="9.423986e+00 0.000000e+00 0.000000e+00 -4.725386e+00 8.152348e+00 0.000000e+00 3.579671e-02 -4.118655e-03 1.514466e+01" Stress="-1.526082e-05 -5.931181e-04 1.577946e-03 -5.903872e-04 -1.454316e-03 -2.021288e-04 1.574900e-03 -2.021123e-04 1.998206e-03" Properties=species:S:1:pos:R:3:forces:R:3 Config_type=AlGaN_super3_5_1_9.xyz
Al 1.556173e+00 8.638601e-01 2.368668e+00 1.003821e-03 -2.758411e-04 7.204829e-04
Al 1.564371e+00 8.675573e-01 7.391378e+00 -5.151199e-04 3.426331e-03 1.637015e-03
Al 1.526812e+00 8.713524e-01 -2.640276e+00 4.112830e-04 2.136125e-04 -1.162833e-03
Al -1.523677e-02 3.578639e+00 2.377942e+00 2.122979e-04 5.252833e-04 8.073997e-05
Al -6.335506e-03 3.575170e+00 7.408890e+00 3.805861e-04 -9.266221e-05 -1.095642e-04
Al -3.027112e-02 3.587184e+00 -2.670284e+00 6.463558e-05 -5.881487e-04 9.834974e-04
Al 3.141701e+00 -1.857729e+00 2.379922e+00 6.066198e-05 -1.601615e-04 -9.203737e-04
Al 3.158032e+00 -1.857998e+00 7.403410e+00 -1.541850e-03 1.337319e-03 -8.955825e-04
Al 3.125942e+00 -1.846032e+00 -2.654694e+00 3.856014e-04 -4.635701e-04 -1.075125e-04
Al -4.727223e+00 8.619839e-01 2.382866e+00 4.227895e-04 2.360367e-04 -1.021450e-03
Al -4.716624e+00 8.603791e-01 7.402507e+00 4.085300e-04 1.607538e-04 -6.860020e-04
Al -4.751699e+00 8.586524e-01 -2.658078e+00 1.091029e-03 2.033224e-04 -4.665730e-04
Al -6.300588e+00 3.579379e+00 2.379845e+00 -2.735112e-04 -8.078839e-05 -9.028202e-04
Al -6.295118e+00 3.580884e+00 7.402642e+00 -3.203470e-04 1.753534e-04 -1.113692e-04
Al -6.333854e+00 3.593641e+00 -2.652857e+00 -1.291474e-04 -3.809854e-05 -6.507512e-04
Al -3.145109e+00 -1.854237e+00 2.376847e+00 1.475520e-04 -1.723394e-04 -7.541222e-04
Al -3.153297e+00 -1.854252e+00 7.402661e+00 1.007407e-03 -3.580495e-04 6.567603e-04
Al -3.178077e+00 -1.849317e+00 -2.652790e+00 2.369043e-04 -3.547960e-04 -8.622551e-04
Al -1.587162e+00 8.679439e-01 2.377839e+00 2.182335e-04 -9.780116e-04 -6.369785e-04
Al -1.583084e+00 8.801333e-01 7.400472e+00 1.460588e-03 -7.783195e-04 5.132462e-05
Al -1.610582e+00 8.734130e-01 -2.651599e+00 1.460154e-03 2.144139e-04 3.977279e-04
Al -3.155989e+00 3.582586e+00 2.376915e+00 1.981172e-04 -5.946198e-04 -8.752300e-04
Al -3.150935e+00 3.576092e+00 7.415570e+00 5.756651e-04 -8.379183e-05 -3.951105e-04
Ga -3.184128e+00 3.587565e+00 -2.653669e+00 1.288398e-03 -2.890939e-04 -1.314623e-03
Al -5.655679e-03 -1.848427e+00 2.384066e+00 3.911451e-04 -5.596109e-04 -1.234780e-03
Ga 1.499172e-03 -1.851981e+00 7.397290e+00 2.417303e-04 -1.253000e-04 2.339659e-04
Al -3.623146e-02 -1.843538e+00 -2.638748e+00 9.097349e-04 -7.520664e-04 -1.457273e-03
Al -9.330944e-03 1.767212e+00 4.882358e+00 -4.737316e-04 4.036205e-04 2.951533e-04
Al -4.819803e-02 1.788151e+00 -5.195994e+00 -1.701139e-03 -7.640301e-04 -1.128074e-04
Al -3.466110e-02 1.775734e+00 -1.416127e-01 -1.513532e-03 8.944371e-04 1.300428e-03
Al 3.144398e+00 -3.670413e+00 4.892689e+00 -8.399674e-04 2.388132e-04 -6.744602e-04
Al 3.123381e+00 -3.668895e+00 -5.209581e+00 -1.445999e-03 5.656707e-04 -2.627531e-04
Al 3.117650e+00 -3.662027e+00 -1.368763e-01 5.812860e-03 2.022140e-03 3.673328e-03
Al 1.578110e+00 -9.485178e-01 4.881423e+00 -1.312846e-03 1.138759e-03 -2.476322e-03
Ga 1.552315e+00 -9.500719e-01 -5.178838e+00 -1.038855e-03 9.740374e-04 -3.091533e-04
Al 1.547585e+00 -9.466254e-01 -1.396735e-01 -1.573127e-04 4.052132e-05 6.099130e-04
Al 3.129218e+00 1.768730e+00 4.892530e+00 -2.245622e-04 1.095604e-04 -5.101776e-04
Ga 3.098293e+00 1.780792e+00 -5.198574e+00 3.460777e-04 -3.806409e-04 1.859192e-04
Al 3.105168e+00 1.777643e+00 -1.434425e-01 8.019987e-04 -4.167446e-04 2.936942e-04
Al 6.281666e+00 -3.666027e+00 4.889248e+00 1.614669e-04 -3.135309e-05 -6.194791e-04
Al 6.244690e+00 -3.659220e+00 -5.203151e+00 3.912585e-04 -1.386024e-04 8.501159e-04
Al 6.253176e+00 -3.657751e+00 -1.391444e-01 5.330887e-04 -2.567236e-04 3.679084e-04
Al 4.711107e+00 -9.496843e-01 4.888081e+00 -5.205997e-04 1.796981e-04 -5.225263e-04
Al 4.685508e+00 -9.521501e-01 -5.201090e+00 -1.000602e-03 8.678887e-04 1.087556e-03
Al 4.685209e+00 -9.404175e-01 -1.350114e-01 2.674898e-04 -2.499858e-04 -3.161791e-04
Al -3.153418e+00 1.772689e+00 4.889238e+00 -7.269416e-04 4.261549e-04 4.815107e-05
Al -3.181489e+00 1.776904e+00 -5.208970e+00 3.051681e-04 -1.017253e-04 -2.441675e-04
Al -3.182807e+00 1.779966e+00 -1.317222e-01 1.653904e-03 -5.946762e-03 3.212818e-03
Al 8.484803e-04 -3.671316e+00 4.878773e+00 -2.238381e-04 4.403809e-04 -8.690343e-04
Al -3.316246e-02 -3.672485e+00 -5.191150e+00 3.383585e-04 1.492382e-04 -7.088251e-06
Al -3.380597e-02 -3.654731e+00 -1.252302e-01 2.105810e-03 -5.506516e-04 1.104883e-03
Al -1.579114e+00 -9.410920e-01 4.884073e+00 -4.182442e-04 -3.694753e-04 -5.255162e-04
Ga -1.617821e+00 -9.391540e-01 -5.182662e+00 -4.636649e-04 1.478906e-03 -4.501473e-04
Al -1.601812e+00 -9.379427e-01 -1.388925e-01 6.677218e-05 4.077489e-04 -1.356775e-04
N 1.559964e+00 8.648436e-01 4.285584e+00 7.717286e-04 1.048206e-04 -4.946827e-05
N 1.481542e+00 8.898273e-01 -5.838123e+00 1.572787e-03 -4.072592e-04 -1.125111e-03
N 1.529604e+00 8.704822e-01 -7.301409e-01 1.523774e-03 -2.686318e-04 7.852867e-04
N -1.290522e-02 3.580510e+00 4.292767e+00 3.733425e-04 -5.071571e-05 2.073421e-04
N -3.830486e-02 3.584094e+00 -5.809137e+00 -2.342939e-04 -1.423532e-04 -3.169796e-04
N -3.858324e-02 3.587210e+00 -7.452431e-01 5.844402e-04 -3.690214e-05 -1.156774e-03
N 3.142908e+00 -1.858162e+00 4.290606e+00 4.303638e-04 -3.726197e-04 9.326652e-04
N 3.148837e+00 -1.870209e+00 -5.824175e+00 1.125606e-03 -1.102842e-03 -1.094205e-03
N 3.118891e+00 -1.850082e+00 -7.393167e-01 1.883538e-05 -6.944469e-04 6.430867e-04
N -4.725917e+00 8.637184e-01 4.296068e+00 6.302948e-04 1.290609e-04 7.216276e-04
N -4.719498e+00 8.436533e-01 -5.824509e+00 1.334761e-03 -3.852284e-04 -3.208203e-04
N -4.747988e+00 8.707714e-01 -7.417982e-01 6.931676e-04 1.118525e-04 4.870017e-04
N -6.298806e+00 3.578826e+00 4.290151e+00 -3.337268e-04 1.342878e-04 8.154517e-04
N -6.328560e+00 3.632099e+00 -5.824781e+00 -2.694374e-04 1.293708e-03 -6.795854e-04
N -6.323432e+00 3.593141e+00 -7.380109e-01 7.810557e-04 -2.025833e-04 6.209090e-04
N -3.145171e+00 -1.853944e+00 4.288199e+00 1.894931e-04 -3.840103e-04 6.207287e-04
N -3.212467e+00 -1.869901e+00 -5.822508e+00 -7.434302e-04 -1.185847e-03 -1.049817e-03
N -3.174263e+00 -1.846433e+00 -7.385449e-01 6.218533e-04 -4.380738e-04 9.121956e-04
N -1.586920e+00 8.697931e-01 4.290678e+00 1.232363e-03 -3.689765e-04 -1.221026e-04
N -1.611639e+00 9.140792e-01 -5.830182e+00 3.482501e-04 1.747260e-03 1.520132e-03
N -1.613054e+00 8.803137e-01 -7.333774e-01 1.190329e-03 -1.148591e-03 -8.347194e-04
N -3.153013e+00 3.583157e+00 4.288155e+00 6.110778e-04 -4.533793e-04 5.678299e-04
N -3.188697e+00 3.589603e+00 -5.800440e+00 7.612862e-04 -3.786634e-04 2.854152e-04
N -3.166215e+00 3.581422e+00 -6.762126e-01 -7.598158e-03 4.398857e-03 -2.481842e-03
N -4.600897e-03 -1.848750e+00 4.297555e+00 4.200618e-04 -6.474322e-04 8.925363e-04
N -3.574720e-02 -1.889526e+00 -5.785868e+00 9.258010e-04 -1.490163e-03 2.386034e-04
N -3.127627e-02 -1.846100e+00 -7.294396e-01 1.190401e-03 -1.453916e-03 1.059643e-03
N -1.677580e-02 1.767843e+00 1.778761e+00 2.096951e-04 6.523845e-04 -3.801493e-04
N -5.944364e-03 1.767534e+00 6.796567e+00 -6.978089e-04 1.185972e-03 4.621985e-04
N -3.701557e-02 1.771877e+00 -3.266299e+00 -6.609759e-04 3.269769e-04 -7.706657e-04
N 3.144467e+00 -3.667834e+00 1.785110e+00 -1.255225e-03 6.228143e-04 -1.338620e-03
N 3.146359e+00 -3.672461e+00 6.812839e+00 -6.766910e-04 6.722289e-04 7.892080e-04
N 3.154852e+00 -3.640848e+00 -3.289987e+00 2.979940e-04 1.233715e-03 -4.169241e-04
N 1.571782e+00 -9.545439e-01 1.782698e+00 -1.928801e-03 1.279376e-03 -9.966746e-04
N 1.612019e+00 -9.150296e-01 6.781456e+00 3.390963e-03 -5.255182e-03 2.568760e-03
N 1.546989e+00 -9.448256e-01 -3.205032e+00 -1.129887e-03 3.504387e-04 2.028484e-03
N 3.130591e+00 1.767857e+00 1.776149e+00 -1.458781e-03 6.572810e-04 -4.196144e-04
N 3.135850e+00 1.771171e+00 6.811171e+00 2.018984e-04 -2.174925e-04 3.488348e-04
N 3.100871e+00 1.774863e+00 -3.217849e+00 -2.937302e-04 1.769115e-04 1.962828e-03
N 6.279500e+00 -3.666970e+00 1.779527e+00 -7.789772e-04 1.147651e-04 -4.076253e-04
N 6.284429e+00 -3.665461e+00 6.805360e+00 -6.799555e-05 -2.382855e-04 4.472495e-04
N 6.255368e+00 -3.657829e+00 -3.273282e+00 2.796131e-04 2.671756e-04 -4.483055e-04
N 4.709930e+00 -9.489853e-01 1.780154e+00 -1.599655e-03 4.067642e-04 3.353042e-04
N 4.714931e+00 -9.488290e-01 6.799920e+00 -1.001854e-03 2.556914e-04 1.796771e-04
N 4.684199e+00 -9.432489e-01 -3.272024e+00 -5.190883e-04 -8.257129e-05 -7.443415e-04
N -3.157536e+00 1.764252e+00 1.786384e+00 -1.625609e-03 1.476366e-03 -2.689584e-04
N -3.150387e+00 1.772996e+00 6.806669e+00 -8.464324e-04 3.910785e-04 6.176752e-05
N -3.180809e+00 1.731753e+00 -3.289040e+00 -8.935410e-04 -1.314950e-03 -6.185002e-04
N -6.259918e-03 -3.662023e+00 1.792181e+00 -9.102612e-04 -4.921497e-05 -7.608400e-04
N 6.178827e-03 -3.710502e+00 6.784308e+00 -5.066928e-05 -1.621036e-03 1.465809e-04
N -6.762188e-02 -3.638540e+00 -3.275122e+00 -1.243090e-03 6.981454e-04 -3.431629e-04
N -1.573749e+00 -9.469194e-01 1.781461e+00 -1.791275e-03 4.786585e-04 -3.597525e-04
N -1.610413e+00 -9.223649e-01 6.794512e+00 -2.524951e-03 7.578258e-04 -3.740562e-04
N -1.602576e+00 -9.382873e-01 -3.208822e+00 -1.096197e-03 -4.110828e-04 2.047579e-03
