108
Energy=-802868.098187 Lattice="9.439745 0.000000 0.000000 -4.721706 8.171827 0.000000 0.001392 -0.000039 15.174438" Stress="0.000002 -0.000001 0.000001 -0.000001 -0.000002 0.000000 0.000001 -0.000000 0.000004" Properties=species:S:1:pos:R:3:forces:R:3
Al 1.554966 0.877238 2.373391 -0.000119 0.000120 0.000100
Al 1.556651 0.877852 7.443015 0.000000 0.000172 0.000162
Al 1.550898 0.871868 -2.684117 0.000127 -0.000034 0.000197
Al -0.008873 3.584089 2.384147 0.000104 0.000083 0.000090
Al -0.014098 3.586510 7.446302 0.000035 0.000107 -0.000068
Al -0.011344 3.590550 -2.692647 0.000073 0.000001 0.000083
Al 3.129581 -1.844864 2.395500 -0.000039 0.000253 0.000256
Al 3.130763 -1.849398 7.442608 0.000128 0.000001 -0.000039
Al 3.120030 -1.852031 -2.689187 0.000090 -0.000027 -0.000085
Al -4.741871 0.875056 2.393438 -0.000064 0.000052 -0.000180
Al -4.744060 0.873473 7.422084 0.000088 0.000126 -0.000072
Al -4.749893 0.875328 -2.678015 0.000195 0.000069 0.000023
Al -6.321878 3.586281 2.378725 -0.000183 0.000010 -0.000092
Al -6.321776 3.583307 7.439552 0.000075 0.000015 0.000031
Al -6.328865 3.589737 -2.680471 0.000020 0.000040 0.000083
Al -3.175978 -1.863155 2.378028 0.000159 -0.000027 -0.000019
Al -3.178367 -1.862280 7.445687 -0.000168 -0.000077 -0.000049
Al -3.159303 -1.862747 -2.680015 -0.000028 0.000009 -0.000116
Al -1.597843 0.883986 2.367771 0.000029 -0.000072 -0.000113
Al -1.598173 0.885505 7.451810 0.000055 -0.000091 0.000123
Al -1.595404 0.864324 -2.682190 0.000183 -0.000216 0.000004
Al -3.176395 3.578645 2.378711 -0.000344 -0.000108 -0.000242
Al -3.170735 3.580120 7.454733 -0.000281 0.000014 0.000096
Ga -3.172075 3.588377 -2.686280 0.000169 -0.000071 -0.000229
Ga -0.015040 -1.856452 2.374949 -0.000086 0.000014 -0.000061
Ga -0.013565 -1.856659 7.454825 0.000080 -0.000063 0.000003
Al -0.028122 -1.846011 -2.682761 0.000109 -0.000195 -0.000135
Al -0.012317 1.773771 4.912538 0.000007 -0.000057 0.000037
Al -0.023308 1.775222 -5.206439 -0.000017 0.000223 0.000148
Al -0.019259 1.769434 -0.160136 0.000132 0.000064 -0.000027
Ga 3.124963 -3.675346 4.912996 -0.000104 0.000046 -0.000127
Al 3.125254 -3.677558 -5.223505 0.000013 0.000073 0.000147
Ga 3.128792 -3.676617 -0.130040 -0.000042 -0.000009 0.000030
Al 1.564727 -0.928970 4.916733 0.000046 0.000114 0.000253
Al 1.546524 -0.940492 -5.194278 -0.000030 -0.000023 0.000080
Al 1.542294 -0.935510 -0.163952 -0.000161 0.000156 0.000035
Al 3.120414 1.778702 4.905398 -0.000088 -0.000026 -0.000080
Al 3.117559 1.784497 -5.212236 0.000072 0.000086 0.000044
Al 3.116854 1.786124 -0.148280 0.000181 0.000128 0.000000
Al 6.279866 -3.679840 4.913560 -0.000042 -0.000026 -0.000030
Al 6.276629 -3.681506 -5.207462 0.000038 0.000003 0.000051
Al 6.284422 -3.680839 -0.153362 0.000130 0.000030 0.000056
Al 4.696457 -0.941083 4.912441 0.000180 0.000211 0.000141
Ga 4.697544 -0.943441 -5.200835 -0.000100 0.000161 0.000040
Ga 4.701637 -0.937332 -0.150428 0.000006 -0.000012 -0.000094
Al -3.174362 1.777185 4.912802 -0.000248 0.000254 -0.000080
Al -3.168701 1.777519 -5.217507 -0.000067 0.000002 0.000146
Al -3.172142 1.769988 -0.139898 0.000156 -0.000061 0.000041
Al -0.026697 -3.691503 4.915574 0.000020 0.000005 0.000066
Al -0.030682 -3.676101 -5.202657 0.000074 0.000105 0.000005
Al -0.038796 -3.671233 -0.155316 -0.000156 -0.000099 -0.000334
Ga -1.603265 -0.938929 4.913936 -0.000271 0.000144 -0.000011
Al -1.593777 -0.941295 -5.197660 -0.000062 -0.000023 0.000133
Al -1.591159 -0.943713 -0.158749 -0.000198 0.000215 -0.000077
N 1.549602 0.871675 4.297314 0.000151 0.000001 -0.000044
N 1.548903 0.869906 -5.808618 0.000056 -0.000004 -0.000120
N 1.551732 0.873687 -0.762388 0.000115 -0.000042 0.000032
N 0.025111 3.565224 4.297150 -0.000300 -0.000080 -0.000222
N -0.017623 3.588158 -5.810068 -0.000023 -0.000101 0.000042
N 0.018092 3.569508 -0.774184 -0.000015 0.000037 -0.000295
N 3.124749 -1.805583 4.303385 -0.000272 -0.000253 -0.000506
N 3.080448 -1.871718 -5.822696 0.000147 -0.000034 0.000055
N 3.082652 -1.836442 -0.788162 0.000013 -0.000025 0.000136
N -4.742890 0.871863 4.316737 0.000234 0.000064 0.000137
N -4.747947 0.917725 -5.839113 0.000108 -0.000117 -0.000005
N -4.746619 0.924407 -0.768531 -0.000053 -0.000081 0.000155
N -6.317922 3.592624 4.300923 0.000121 -0.000055 -0.000001
N -6.319128 3.591074 -5.817073 -0.000066 0.000019 -0.000046
N -6.319701 3.590359 -0.761601 -0.000068 -0.000188 -0.000093
N -3.209413 -1.884067 4.291097 0.000064 0.000065 0.000134
N -3.129831 -1.881515 -5.818389 0.000030 0.000065 0.000061
N -3.126526 -1.882591 -0.768819 0.000234 -0.000135 0.000085
N -1.594483 0.922976 4.283057 0.000329 -0.000048 -0.000027
N -1.595628 0.872926 -5.806323 0.000259 -0.000162 -0.000112
N -1.599550 0.872648 -0.757725 0.000147 -0.000061 0.000058
N -3.213377 3.566154 4.287836 0.000018 -0.000105 0.000476
N -3.176342 3.591805 -5.800945 0.000015 -0.000121 0.000108
N -3.209193 3.569135 -0.717847 0.000003 0.000018 0.000107
N 0.023014 -1.878829 4.350702 -0.000060 -0.000250 0.000086
N -0.020988 -1.853821 -5.746391 0.000025 -0.000131 -0.000098
N -0.023631 -1.852994 -0.754520 0.000182 -0.000191 0.000127
N -0.019181 1.776088 1.762188 -0.000165 -0.000009 -0.000002
N -0.020404 1.773788 6.837571 -0.000128 0.000136 -0.000021
N -0.024154 1.773857 -3.285294 -0.000106 0.000078 -0.000033
N 3.129174 -3.670303 1.850281 0.000169 -0.000110 0.000161
N 3.125017 -3.675555 6.896133 0.000331 0.000076 -0.000059
N 3.168196 -3.650683 -3.308260 -0.000149 0.000012 -0.000025
N 1.596288 -0.920016 1.749408 -0.000062 -0.000126 -0.000127
N 1.596017 -0.917087 6.825502 -0.000330 -0.000067 -0.000348
N 1.550250 -0.942966 -3.279104 -0.000182 0.000195 -0.000046
N 3.126038 1.777278 1.777178 -0.000093 -0.000164 0.000101
N 3.120194 1.778467 6.826756 -0.000060 -0.000136 -0.000052
N 3.120987 1.777997 -3.290551 0.000017 -0.000070 -0.000112
N 6.273912 -3.673856 1.767642 -0.000095 -0.000007 -0.000042
N 6.273636 -3.673546 6.834676 -0.000029 0.000029 -0.000017
N 6.273046 -3.672776 -3.291352 0.000004 -0.000040 0.000002
N 4.699251 -0.943001 1.826835 -0.000312 0.000095 0.000028
N 4.700609 -0.948325 6.837699 -0.000054 -0.000072 0.000009
N 4.700490 -0.945336 -3.224117 0.000000 -0.000028 -0.000079
N -3.172520 1.771380 1.774671 -0.000064 0.000037 0.000060
N -3.165410 1.777788 6.833849 0.000081 0.000027 -0.000112
N -3.170566 1.724443 -3.309011 -0.000115 0.000142 -0.000220
N -0.027496 -3.719349 1.753866 0.000215 0.000128 0.000279
N -0.020605 -3.723311 6.828640 -0.000053 -0.000045 -0.000089
N -0.068151 -3.649669 -3.293527 -0.000164 0.000076 0.000161
N -1.637038 -0.921754 1.760911 0.000115 -0.000160 -0.000020
N -1.637417 -0.919191 6.880706 0.000095 0.000030 -0.000056
N -1.597813 -0.943564 -3.279140 -0.000134 0.000095 0.000083
