108
Energy=-711317.125364 Lattice="9.431668 0.000000 0.000000 -4.723959 8.164628 0.000000 -0.005845 -0.006870 15.139545" Stress="0.000004 -0.000002 -0.000002 -0.000002 0.000003 -0.000001 -0.000002 -0.000001 -0.000004" Properties=species:S:1:pos:R:3:forces:R:3
Al 1.543925 0.867335 2.365338 0.000804 -0.000048 0.000233
Al 1.550505 0.875358 7.406464 -0.000335 -0.000204 -0.000343
Al 1.551115 0.880288 -2.652639 0.000097 -0.000154 -0.000076
Al -0.018974 3.580758 2.366806 0.002754 -0.000863 0.000880
Al -0.022638 3.579182 7.428135 -0.000133 -0.000039 -0.000205
Al -0.025350 3.584261 -2.672652 -0.000084 -0.000161 0.000260
Al 3.125490 -1.846684 2.357204 0.001075 0.001452 0.001536
Al 3.132312 -1.852964 7.421698 -0.000198 -0.000206 -0.000875
Al 3.128261 -1.853989 -2.654622 0.000095 -0.000257 -0.000421
Al -4.744932 0.858512 2.375164 0.000424 0.000387 -0.000196
Al -4.746461 0.863751 7.416102 0.000113 -0.000025 -0.000397
Al -4.746216 0.878510 -2.673852 0.000472 -0.000144 -0.000044
Al -6.328994 3.586749 2.372381 0.001824 -0.000291 -0.000115
Al -6.326776 3.575057 7.407343 -0.000382 -0.000138 0.000038
Al -6.317096 3.579496 -2.654869 -0.000287 0.000134 -0.000249
Al -3.170070 -1.859689 2.367701 -0.000043 0.000383 -0.000391
Al -3.176394 -1.856893 7.415206 0.000306 -0.000118 -0.000161
Ga -3.161525 -1.850700 -2.658729 0.000145 -0.000087 -0.000117
Al -1.595597 0.862300 2.371256 0.000786 -0.000074 0.000576
Al -1.605292 0.872384 7.416704 0.000986 -0.000478 0.000073
Al -1.591399 0.880177 -2.669240 0.000733 -0.000317 0.000055
Ga -3.165496 3.579971 2.358332 -0.000911 0.000135 0.000921
Al -3.173791 3.572251 7.422899 0.000690 0.000260 -0.000651
Al -3.161884 3.590895 -2.654632 0.000507 -0.000330 -0.000955
Al -0.024877 -1.846011 2.372675 0.000471 -0.003321 -0.000337
Ga -0.029323 -1.853248 7.401879 0.000661 0.000456 -0.000168
Al -0.017761 -1.842530 -2.641393 0.000200 -0.000049 -0.001108
Al -0.023616 1.763017 4.889898 -0.000550 0.000224 0.000109
Al -0.025245 1.781958 -5.193974 -0.000350 0.000196 0.000018
Al -0.024999 1.777330 -0.150091 -0.000235 0.000447 -0.000473
Ga 3.133495 -3.669358 4.905081 -0.000904 0.000165 -0.000131
Al 3.141711 -3.674250 -5.194233 -0.000326 0.000474 -0.000650
Al 3.135577 -3.664459 -0.152759 0.000784 0.000134 -0.000452
Al 1.552890 -0.940997 4.881202 -0.000483 0.000187 -0.001268
Ga 1.568152 -0.932526 -5.171987 -0.000619 0.000643 -0.000132
Al 1.555627 -0.943378 -0.148352 -0.000716 0.000498 -0.001253
Al 3.115560 1.771034 4.887073 -0.000047 -0.000073 -0.000647
Al 3.119007 1.779855 -5.196547 0.000072 -0.000208 0.000221
Al 3.122562 1.778521 -0.142414 -0.000420 -0.000203 -0.000527
Al 6.272000 -3.671510 4.890913 -0.000106 0.000496 -0.000068
Al 6.264973 -3.670031 -5.204019 -0.000114 0.000256 -0.000250
Al 6.269704 -3.672294 -0.132884 -0.000508 -0.000459 -0.001210
Al 4.696577 -0.943851 4.891407 -0.000414 -0.000155 -0.000243
Al 4.703772 -0.940247 -5.202838 -0.000367 0.000100 -0.000252
Al 4.694239 -0.936240 -0.133584 -0.000336 -0.000228 -0.001718
Al -3.178023 1.752647 4.908842 0.000611 0.001812 -0.001307
Al -3.164286 1.771054 -5.194154 -0.000209 0.000069 -0.000357
Al -3.169080 1.772455 -0.161443 -0.000033 -0.000751 -0.000563
Al -0.042916 -3.671082 4.897941 0.004377 -0.001973 -0.002716
Ga -0.023842 -3.677348 -5.173535 0.000010 -0.000089 -0.000504
Al -0.025751 -3.660333 -0.158352 0.000027 -0.000680 -0.000420
Al -1.604341 -0.944327 4.877214 -0.000089 0.000098 -0.000516
Al -1.607200 -0.928604 -5.190406 -0.000092 0.000335 -0.000334
Al -1.586049 -0.935182 -0.127307 -0.000717 -0.000015 -0.000963
N 1.543593 0.867067 4.283565 0.000305 0.000075 0.000059
N 1.548382 0.919309 -5.817099 0.000431 -0.000322 -0.000282
N 1.549318 0.876425 -0.736909 0.000532 -0.000264 -0.000160
N 0.013292 3.561300 4.275994 0.000637 -0.000874 0.000205
N -0.021920 3.587999 -5.795006 0.000083 -0.000279 0.000352
N -0.021353 3.591278 -0.752213 -0.000060 -0.000285 -0.000815
N 3.124076 -1.811930 4.267210 0.000161 0.000376 0.000445
N 3.165764 -1.872435 -5.808905 0.000263 -0.000263 0.000230
N 3.131441 -1.849649 -0.741602 -0.000050 -0.000347 0.000430
N -4.744180 0.863927 4.293339 0.000232 0.000176 0.000221
N -4.741369 0.873961 -5.799887 0.000413 0.000094 0.000256
N -4.743630 0.870857 -0.756361 0.000165 0.000072 -0.000061
N -6.322095 3.585950 4.289204 0.000287 -0.000254 0.000326
N -6.352096 3.568426 -5.820618 -0.000083 0.000057 0.000015
N -6.320351 3.588674 -0.743611 0.000003 0.000032 0.000106
N -3.172378 -1.859082 4.285850 0.000255 -0.000193 0.000361
N -3.161629 -1.850793 -5.797615 0.000126 -0.000048 0.000129
N -3.161365 -1.849761 -0.683103 0.000153 0.000008 -0.000144
N -1.603090 0.871563 4.288932 0.000811 -0.000720 0.000137
N -1.595631 0.875255 -5.800016 0.000264 -0.000208 0.000202
N -1.595263 0.871630 -0.752349 0.000541 -0.000428 -0.000365
N -3.203092 3.556406 4.320543 -0.004574 0.001239 0.003335
N -3.131994 3.569758 -5.803750 0.000276 -0.000437 0.000432
N -3.166148 3.594793 -0.739044 0.000351 -0.000399 0.000500
N -0.024057 -1.855033 4.296926 0.000078 -0.000490 0.000100
N -0.057591 -1.823442 -5.777174 0.000258 -0.000750 0.000163
N -0.024527 -1.841362 -0.734500 0.000307 -0.000527 0.000662
N -0.026980 1.770283 1.766844 -0.000619 0.000069 0.000568
N -0.028150 1.769066 6.811639 -0.000499 0.000526 0.000290
N -0.019491 1.775174 -3.270616 -0.000298 0.000181 -0.000257
N 3.183381 -3.645250 1.761420 -0.004592 -0.000401 -0.002472
N 3.126628 -3.673555 6.875580 -0.000323 0.000127 0.000825
N 3.129694 -3.666041 -3.268762 -0.000360 0.000357 0.000323
N 1.549444 -0.947877 1.768903 -0.000460 -0.000293 0.000556
N 1.592113 -0.926004 6.788445 0.000920 0.000094 0.002297
N 1.558856 -0.941639 -3.199326 -0.000458 0.000314 0.000592
N 3.120005 1.773147 1.775491 -0.000104 -0.000318 0.000773
N 3.118702 1.770470 6.803778 0.000018 -0.000380 0.000237
N 3.118879 1.778766 -3.273536 -0.000121 -0.000040 -0.000186
N 6.263982 -3.675426 1.775224 0.001576 0.000639 0.000966
N 6.263590 -3.670450 6.813519 -0.000089 -0.000049 0.000236
N 6.272813 -3.711978 -3.290704 0.000232 -0.000025 0.000142
N 4.693722 -0.946099 1.770998 -0.000017 0.000962 0.002016
N 4.694190 -0.949648 6.812585 -0.000574 0.000309 0.000317
N 4.658824 -0.920638 -3.290260 -0.000467 0.000260 0.000159
N -3.166496 1.717547 1.744659 -0.001322 0.000104 0.000430
N -3.173785 1.764925 6.822366 -0.000457 0.000322 0.000309
N -3.166956 1.778905 -3.269916 -0.000416 0.000194 0.000371
N -0.058144 -3.657576 1.751081 -0.001591 0.004745 0.001034
N -0.025675 -3.720676 6.804738 0.000295 -0.000451 -0.000063
N -0.018770 -3.665857 -3.198741 0.000059 0.000114 0.001057
N -1.593181 -0.946689 1.785039 0.000070 -0.000305 0.001072
N -1.642335 -0.923701 6.787965 -0.000951 0.000468 0.000160
N -1.550283 -0.917637 -3.281963 -0.000631 0.000232 0.000256
