108
Energy=-1397949.159830 Lattice="9.494964 0.000000 0.000000 -4.753831 8.217254 0.000000 -0.003817 0.000630 15.324006" Stress="-0.000039 -0.000000 0.000000 -0.000000 -0.000044 -0.000001 0.000000 -0.000001 -0.000029" Properties=species:S:1:pos:R:3:forces:R:3
Al 1.574226 0.862177 2.409670 -0.000783 0.001499 0.000081
Al 1.567647 0.871283 7.518332 -0.000239 0.001188 0.000305
Al 1.559830 0.864561 -2.722246 0.001325 -0.000406 0.002455
Al -0.026739 3.614420 2.445337 0.007733 -0.001494 -0.006490
Al -0.018432 3.610996 7.503077 -0.000019 0.000439 0.001959
Al -0.022474 3.599878 -2.715125 -0.001061 0.000010 0.001767
Al 3.148628 -1.860212 2.392237 -0.006643 -0.000606 0.008647
Al 3.141494 -1.874673 7.539799 0.001999 0.002243 -0.000752
Ga 3.139419 -1.862159 -2.723279 -0.000546 -0.000308 0.000907
Al -4.787028 0.856556 2.406618 0.000615 0.008315 0.000870
Al -4.795596 0.872088 7.526276 0.001801 0.005860 0.001393
Al -4.777437 0.883631 -2.722064 0.000529 0.001424 0.002654
Ga -6.372155 3.605535 2.404077 0.000266 0.000316 -0.000244
Al -6.357690 3.605189 7.513996 -0.000642 -0.000439 0.000325
Ga -6.356413 3.601948 -2.710478 0.001479 -0.000140 0.002663
Al -3.198415 -1.873254 2.396162 0.003973 -0.001601 0.002646
Al -3.185415 -1.875176 7.507145 -0.000528 -0.000284 0.000135
Ga -3.170630 -1.860934 -2.693396 -0.000563 0.000162 0.001619
Ga -1.609724 0.870954 2.403465 -0.000005 -0.000961 -0.000968
Ga -1.613009 0.885479 7.516212 0.000866 -0.000011 0.000557
Al -1.612524 0.878964 -2.708528 0.000133 0.000745 0.002196
Ga -3.198764 3.627102 2.397000 -0.001706 -0.002428 0.000063
Al -3.200068 3.626987 7.547901 -0.000012 -0.001582 0.001664
Ga -3.193205 3.611664 -2.726711 0.000001 -0.000165 0.002067
Al -0.012733 -1.850348 2.393996 -0.002044 -0.001148 -0.004491
Al -0.012842 -1.867840 7.538955 0.000684 -0.000577 0.000735
Al -0.013757 -1.843706 -2.710011 0.002474 -0.002615 0.002024
Al -0.004054 1.794065 4.968670 0.000901 -0.001063 0.001352
Ga -0.016717 1.784983 -5.251192 -0.000087 0.000430 0.002093
Ga -0.009217 1.779089 -0.151389 -0.001276 0.000265 -0.008999
Ga 3.163071 -3.703759 4.990712 -0.001186 0.003198 0.000447
Al 3.139174 -3.702266 -5.280655 -0.000485 0.000565 0.001064
Ga 3.157508 -3.697867 -0.130430 -0.000567 -0.001365 -0.005500
Ga 1.566028 -0.942939 4.975568 -0.000703 0.000314 0.000689
Al 1.568792 -0.963019 -5.277616 -0.000995 0.001176 0.002807
Al 1.559886 -0.951142 -0.149542 -0.002933 0.001347 0.001317
Al 3.121905 1.788632 4.981387 0.000418 -0.001476 0.000541
Al 3.145333 1.782390 -5.279842 -0.000519 0.000098 0.002946
Al 3.145337 1.781429 -0.158400 -0.000723 0.000408 -0.000449
Al 6.308387 -3.710554 4.983385 -0.000091 0.002927 0.000641
Ga 6.311590 -3.705100 -5.284305 0.000197 -0.000177 0.002309
Al 6.318371 -3.695491 -0.145806 -0.000350 -0.001083 -0.000144
Ga 4.731741 -0.946408 4.971418 -0.000762 -0.000385 -0.000397
Ga 4.723980 -0.940924 -5.277554 -0.000915 0.000125 0.001974
Ga 4.735279 -0.935837 -0.116901 -0.000125 0.000932 -0.004273
Ga -3.212411 1.796205 4.982983 -0.000765 -0.001408 0.001494
Al -3.211295 1.803382 -5.264891 -0.000466 0.000496 0.001367
Al -3.209179 1.785683 -0.168892 0.000908 -0.000279 -0.000445
Ga -0.040845 -3.685758 4.991398 -0.000071 0.000926 0.001184
Al -0.012739 -3.693041 -5.289412 0.000062 0.000803 0.003701
Al -0.030273 -3.675977 -0.153021 -0.000278 0.000281 -0.002166
Ga -1.598235 -0.960052 4.969310 -0.001602 -0.000774 0.000147
Ga -1.584598 -0.953362 -5.260428 -0.000322 -0.000131 0.002627
Al -1.590671 -0.955360 -0.154516 0.000049 0.000666 0.000115
N 1.559281 0.915302 4.342941 0.000063 0.000992 -0.003985
N 1.595616 0.849594 -5.887160 0.000969 -0.000245 -0.002014
N 1.601627 0.844724 -0.795544 0.002323 -0.000878 -0.000385
N 0.016906 3.589081 4.361082 0.000036 -0.000922 -0.003835
N -0.062870 3.625310 -5.916043 -0.000042 -0.000387 -0.001976
N 0.017060 3.633976 -0.810306 0.000363 0.000724 0.000955
N 3.145804 -1.869042 4.325922 -0.000147 -0.000926 -0.006691
N 3.111674 -1.893426 -5.875873 -0.000519 -0.000136 -0.001030
N 3.113838 -1.845412 -0.751724 -0.000713 0.000880 0.003422
N -4.823381 0.905056 4.320892 0.000128 -0.000142 -0.000667
N -4.778947 0.922371 -5.891221 0.000854 0.000747 -0.001438
N -4.777850 0.918975 -0.799913 0.000348 0.000072 0.000510
N -6.400335 3.586092 4.398292 0.000282 0.000229 -0.002793
N -6.319121 3.585276 -5.892928 0.001433 -0.000747 -0.001540
N -6.355256 3.611231 -0.719646 0.000538 -0.000590 0.001351
N -3.183862 -1.920250 4.331778 -0.000098 -0.000329 -0.004282
N -3.177672 -1.866710 -5.918394 0.000100 0.000393 -0.002171
N -3.145203 -1.887930 -0.723504 0.000042 0.000598 0.003088
N -1.578668 0.906430 4.387375 0.001823 0.000023 -0.002492
N -1.653430 0.906286 -5.847670 0.001276 -0.000660 -0.000225
N -1.653341 0.858125 -0.780588 0.000221 -0.001133 0.000092
N -3.200140 3.625714 4.363204 0.000603 -0.000320 -0.003474
N -3.191860 3.616871 -5.858788 -0.000462 -0.000943 -0.000625
N -3.230391 3.601265 -0.741940 -0.000405 -0.000649 0.001157
N -0.017800 -1.861150 4.288505 0.000838 -0.001005 0.002322
N 0.022050 -1.882966 -5.884451 0.000599 -0.001038 -0.001139
N -0.013937 -1.856547 -0.776348 0.000783 -0.000491 0.000585
N 0.019089 1.797453 1.796502 0.001333 0.005126 0.013242
N 0.018814 1.807277 6.887255 0.001395 -0.001045 -0.000978
N -0.020005 1.780201 -3.268212 -0.000803 0.000495 0.000910
N 3.192404 -3.677871 1.832575 0.001088 0.001712 0.003493
N 3.143523 -3.697552 6.969074 0.000177 0.001159 -0.001102
N 3.189360 -3.720881 -3.366780 0.000894 0.000602 -0.000870
N 1.561739 -0.948745 1.798123 0.001657 -0.001072 -0.004155
N 1.565310 -0.957717 6.960978 -0.000435 0.000327 -0.001547
N 1.525791 -0.932605 -3.355740 -0.000685 0.000830 -0.001303
N 3.144072 1.733992 1.765249 -0.001447 -0.000316 0.000049
N 3.135359 1.782373 6.906902 -0.000362 -0.000149 -0.002214
N 3.138533 1.743284 -3.353861 -0.000641 -0.001388 -0.001354
N 6.269697 -3.672243 1.766338 -0.005804 -0.001647 0.004527
N 6.310262 -3.694088 6.907179 -0.000038 0.000114 -0.001233
N 6.274620 -3.714634 -3.317992 -0.000525 0.000413 -0.001020
N 4.708040 -0.947404 1.875621 0.007782 -0.002187 -0.006657
N 4.732070 -0.935013 6.958005 -0.003045 -0.007152 0.000439
N 4.737337 -0.905419 -3.309552 -0.000589 -0.000617 -0.000272
N -3.232984 1.766879 1.748266 -0.002447 -0.002592 0.001882
N -3.243076 1.820163 6.951286 -0.001312 -0.000490 -0.000780
N -3.198140 1.746752 -3.346874 0.000978 -0.001836 -0.000331
N -0.030382 -3.639550 1.757613 0.000189 0.000479 -0.000010
N -0.023167 -3.684666 6.972566 0.000168 0.000028 -0.000859
N -0.025454 -3.637412 -3.363313 -0.000447 0.000928 -0.001647
N -1.604108 -0.996381 1.775866 -0.001984 -0.000096 -0.000962
N -1.594009 -0.999836 6.942519 -0.000689 0.000039 -0.001172
N -1.554369 -0.927391 -3.287494 -0.002043 0.000965 -0.000024
