108
Energy=-4.824398e+05 Lattice="9.402934e+00 0.000000e+00 0.000000e+00 -4.702303e+00 8.141216e+00 0.000000e+00 -1.065257e-03 1.965363e-03 1.507030e+01" Stress="1.752989e-04 -4.295737e-05 -6.949329e-05 -4.345743e-05 -1.138766e-04 5.919826e-05 -7.028818e-05 5.856292e-05 2.455268e-04" Properties=species:S:1:pos:R:3:forces:R:3 Config_type=AlGaN_super3_1_0_14.xyz
Al 1.543630e+00 8.671347e-01 2.364289e+00 7.661646e-05 4.317937e-05 -1.391093e-04
Al 1.545115e+00 8.674858e-01 7.385727e+00 6.122939e-05 -6.590740e-05 -1.491946e-04
Al 1.544869e+00 8.641466e-01 -2.664598e+00 2.853821e-05 -7.669966e-07 -9.365031e-05
Al -2.339643e-02 3.581652e+00 2.364320e+00 1.184517e-04 -1.683682e-04 -4.900514e-05
Al -2.379761e-02 3.580835e+00 7.385861e+00 -7.451415e-06 -1.496980e-05 -1.484942e-04
Al -2.139707e-02 3.577983e+00 -2.664802e+00 6.802767e-05 -4.561985e-05 -1.383478e-04
Al 3.111647e+00 -1.846380e+00 2.364382e+00 1.326743e-04 1.518050e-05 -1.130204e-04
Al 3.112015e+00 -1.847986e+00 7.385938e+00 5.826055e-06 -2.056823e-05 -1.634619e-04
Al 3.112960e+00 -1.848933e+00 -2.664490e+00 6.973891e-05 4.167658e-05 -7.978573e-05
Al -4.724718e+00 8.675448e-01 2.364390e+00 7.224767e-05 -9.275323e-05 -4.424732e-05
Al -4.726005e+00 8.675629e-01 7.385796e+00 6.352919e-05 -3.233921e-05 -1.412481e-04
Al -4.723291e+00 8.642011e-01 -2.665035e+00 1.278150e-04 -1.353698e-05 -9.750927e-05
Al -6.292416e+00 3.581468e+00 2.364452e+00 5.500967e-05 -3.888647e-05 -5.925639e-05
Al -6.292098e+00 3.579316e+00 7.385940e+00 3.328204e-05 -2.443431e-05 -1.591654e-04
Al -6.290937e+00 3.578690e+00 -2.665089e+00 7.701573e-05 5.343308e-06 -1.151605e-04
Al -3.163757e+00 -1.850579e+00 2.379886e+00 -6.097788e-04 -2.411754e-04 -1.516494e-04
Al -3.156813e+00 -1.846997e+00 7.385278e+00 2.396680e-05 3.764073e-06 -2.115136e-04
Al -3.160700e+00 -1.852356e+00 -2.675456e+00 4.047283e-05 2.425874e-05 -1.132452e-04
Al -1.590655e+00 8.758257e-01 2.378777e+00 -5.846817e-05 -1.495267e-04 -2.269496e-04
Al -1.590713e+00 8.669700e-01 7.385131e+00 6.459667e-05 -4.921285e-05 -1.676919e-04
Al -1.589190e+00 8.702676e-01 -2.675908e+00 2.696328e-05 -3.957158e-05 3.230442e-04
Al -3.158086e+00 3.581612e+00 2.364489e+00 4.794222e-05 -7.587695e-05 -7.703351e-05
Al -3.157333e+00 3.581083e+00 7.385883e+00 7.959445e-05 -3.229497e-05 -1.454797e-04
Al -3.157343e+00 3.577829e+00 -2.664602e+00 8.280626e-05 -2.678600e-05 -2.585078e-05
Al -1.666776e-02 -1.850480e+00 2.378822e+00 4.540406e-05 1.528481e-05 -9.739679e-05
Al -2.293283e-02 -1.846831e+00 7.385172e+00 7.418263e-05 -1.318560e-05 -1.910250e-04
Al -1.669763e-02 -1.852134e+00 -2.675135e+00 9.986933e-05 -1.662584e-05 -1.445824e-04
Al -2.216256e-02 1.772999e+00 4.878614e+00 2.701689e-05 1.077741e-04 -1.515985e-04
Al -2.077245e-02 1.769971e+00 -5.177568e+00 8.589437e-06 4.896573e-05 -1.665978e-04
Al -1.790648e-02 1.777330e+00 -1.496113e-01 -2.898857e-04 -3.725438e-04 -3.516337e-04
Al 3.111510e+00 -3.656091e+00 4.874669e+00 6.048905e-05 1.192407e-04 -9.201014e-05
Al 3.112867e+00 -3.658534e+00 -5.174034e+00 4.062624e-06 8.440527e-05 -9.528568e-05
Al 3.113091e+00 -3.659086e+00 -1.519819e-01 -1.211957e-04 2.635831e-04 -4.219906e-04
Al 1.546178e+00 -9.418847e-01 4.878703e+00 2.744294e-05 6.222129e-05 -8.958065e-05
Al 1.547034e+00 -9.439042e-01 -5.177544e+00 -2.424984e-05 8.530577e-05 -1.116460e-04
Al 1.553767e+00 -9.451618e-01 -1.492479e-01 -2.254977e-05 2.338156e-04 -4.172142e-04
Al 3.110705e+00 1.771853e+00 4.874201e+00 4.203376e-05 3.500962e-05 -1.465052e-04
Al 3.111939e+00 1.769406e+00 -5.172947e+00 2.711523e-05 2.739204e-05 -1.227763e-04
Al 3.112076e+00 1.768841e+00 -1.519997e-01 -5.475306e-05 1.944594e-04 -1.890216e-04
Al 6.245360e+00 -3.657735e+00 4.879097e+00 2.298028e-05 6.107696e-05 -1.536453e-04
Al 6.247149e+00 -3.659869e+00 -5.177615e+00 3.387167e-05 6.143920e-05 -1.469802e-04
Al 6.243176e+00 -3.665821e+00 -1.502212e-01 -2.539387e-05 3.069235e-04 -1.516963e-06
Al 4.676714e+00 -9.416889e-01 4.879006e+00 -2.458795e-06 8.068750e-05 -2.044272e-04
Al 4.678537e+00 -9.437566e-01 -5.177580e+00 3.504619e-07 7.056643e-05 -1.412034e-04
Al 4.671755e+00 -9.452090e-01 -1.505354e-01 -2.826413e-05 1.458937e-04 2.572893e-04
Al -3.159549e+00 1.773245e+00 4.878709e+00 1.690316e-05 9.821239e-05 -1.891303e-04
Al -3.158401e+00 1.770182e+00 -5.177343e+00 4.957283e-05 5.341085e-05 -2.075207e-04
Al -3.161482e+00 1.775642e+00 -1.494433e-01 2.845781e-04 1.840673e-04 -2.100889e-04
Al -2.270853e-02 -3.657633e+00 4.878991e+00 7.542616e-05 7.742228e-05 -1.963635e-04
Al -2.189494e-02 -3.659799e+00 -5.177471e+00 5.543077e-05 8.462054e-05 -1.708986e-04
Al -1.760314e-02 -3.665871e+00 -1.502893e-01 8.812555e-05 2.118124e-04 6.189051e-05
Al -1.590394e+00 -9.419544e-01 4.875339e+00 3.736308e-05 5.884012e-05 -1.645624e-04
Al -1.589032e+00 -9.445702e-01 -5.175429e+00 3.195122e-05 7.580791e-05 -2.287966e-04
Ga -1.589092e+00 -9.462078e-01 -1.456501e-01 -9.675232e-05 2.679098e-04 1.488271e-04
N 1.543584e+00 8.674464e-01 4.280182e+00 -1.213214e-05 -1.119743e-04 1.299451e-04
N 1.546288e+00 8.659221e-01 -5.770749e+00 3.959951e-06 -1.181613e-04 1.475816e-04
N 1.544470e+00 8.646441e-01 -7.459705e-01 -2.186194e-05 -8.626346e-05 -3.802685e-05
N -2.310370e-02 3.581350e+00 4.280146e+00 -4.766455e-05 -1.665866e-04 1.064950e-04
N -2.298186e-02 3.579317e+00 -5.770931e+00 -4.112526e-05 -1.146616e-04 1.508370e-04
N -2.192539e-02 3.578976e+00 -7.483674e-01 -9.028866e-05 -1.126941e-04 1.533627e-04
N 3.111655e+00 -1.846282e+00 4.280267e+00 -3.889948e-05 -9.966700e-05 8.948524e-05
N 3.112926e+00 -1.850008e+00 -5.770787e+00 3.187300e-06 -1.023075e-04 1.246673e-04
N 3.112879e+00 -1.849716e+00 -7.476469e-01 -3.720583e-05 -2.660347e-05 1.916251e-05
N -4.724940e+00 8.675578e-01 4.280346e+00 1.108032e-05 -1.061684e-04 1.722176e-04
N -4.725117e+00 8.659500e-01 -5.770677e+00 9.106700e-06 -1.031267e-04 1.547063e-04
N -4.723362e+00 8.642020e-01 -7.465048e-01 -6.005131e-05 -5.057599e-05 5.387068e-05
N -6.292298e+00 3.581529e+00 4.280307e+00 -4.531334e-05 -8.521281e-05 1.523524e-04
N -6.290992e+00 3.577391e+00 -5.770684e+00 -2.799299e-05 -7.886842e-05 1.600595e-04
N -6.290845e+00 3.579097e+00 -7.466399e-01 -4.289197e-05 -1.039729e-04 4.500503e-05
N -3.161168e+00 -1.848815e+00 4.290937e+00 3.339475e-07 -7.388654e-05 2.061181e-04
N -3.156034e+00 -1.848980e+00 -5.769547e+00 -1.347849e-05 -6.229717e-05 1.830060e-04
N -3.198387e+00 -1.873955e+00 -7.667829e-01 1.376232e-04 -4.213828e-06 1.239782e-04
N -1.591068e+00 8.724139e-01 4.290193e+00 6.414357e-05 -1.173932e-04 1.727456e-04
N -1.589859e+00 8.654566e-01 -5.769522e+00 4.517030e-05 -9.799000e-05 2.058944e-04
N -1.589946e+00 9.128189e-01 -7.657649e-01 1.864697e-04 1.488068e-04 -2.466867e-05
N -3.158370e+00 3.581498e+00 4.280311e+00 -2.624266e-05 -1.409986e-04 1.119742e-04
N -3.156097e+00 3.579433e+00 -5.770860e+00 1.547251e-05 -9.573432e-05 1.561690e-04
N -3.156506e+00 3.578231e+00 -7.477007e-01 -6.058260e-05 -4.938029e-05 5.036780e-05
N -1.936853e-02 -1.848563e+00 4.290564e+00 1.940794e-05 -7.732262e-05 7.652824e-05
N -2.183010e-02 -1.848849e+00 -5.769554e+00 3.522261e-05 -9.364498e-05 1.852520e-04
N 2.062445e-02 -1.873685e+00 -7.663135e-01 -1.399876e-04 -1.595202e-05 1.989738e-04
N -2.332004e-02 1.771538e+00 1.768615e+00 -1.337249e-04 1.379206e-04 3.716204e-04
N -2.206506e-02 1.771714e+00 6.792531e+00 -9.321084e-05 4.916746e-05 1.687643e-04
N -1.868673e-02 1.770408e+00 -3.264294e+00 -9.881575e-05 3.138932e-05 1.710474e-04
N 3.111922e+00 -3.655624e+00 1.766746e+00 -6.721117e-06 -1.003032e-04 4.784758e-04
N 3.112137e+00 -3.656550e+00 6.789410e+00 -6.420486e-05 5.381374e-05 1.282877e-04
N 3.113307e+00 -3.658879e+00 -3.257719e+00 -8.996244e-05 4.768617e-05 1.048866e-04
N 1.543941e+00 -9.422275e-01 1.768566e+00 -8.587207e-05 -2.697631e-04 4.507873e-04
N 1.545935e+00 -9.424708e-01 6.792765e+00 -1.302177e-04 8.975197e-05 1.475927e-04
N 1.548779e+00 -9.434158e-01 -3.263998e+00 -1.161907e-04 3.857411e-05 1.189814e-04
N 3.110936e+00 1.772237e+00 1.767258e+00 2.027499e-05 -1.653610e-04 1.967867e-04
N 3.111169e+00 1.771428e+00 6.788784e+00 -7.983131e-05 4.004832e-05 1.391619e-04
N 3.112485e+00 1.768990e+00 -3.257010e+00 -1.047205e-04 2.133264e-05 1.450323e-04
N 6.246335e+00 -3.654996e+00 1.769109e+00 -1.451679e-04 -1.474525e-04 5.481479e-05
N 6.246192e+00 -3.657275e+00 6.792863e+00 -1.930716e-05 2.891546e-05 1.647861e-04
N 6.247769e+00 -3.661736e+00 -3.264410e+00 -8.708290e-05 2.006087e-05 1.407578e-04
N 4.679695e+00 -9.421022e-01 1.769914e+00 -1.739752e-04 -2.211696e-04 -2.022972e-04
N 4.678251e+00 -9.422368e-01 6.792866e+00 -6.248866e-05 5.374113e-05 1.600990e-04
N 4.677748e+00 -9.433283e-01 -3.264254e+00 -1.244338e-04 3.851314e-06 1.652869e-04
N -3.157328e+00 1.771999e+00 1.769554e+00 -2.403562e-05 -1.108925e-06 4.579876e-05
N -3.158591e+00 1.771832e+00 6.792545e+00 -4.843476e-05 6.227401e-05 1.692676e-04
N -3.159083e+00 1.770274e+00 -3.264114e+00 -1.333356e-04 5.770464e-05 8.646345e-05
N -2.309987e-02 -3.655248e+00 1.769575e+00 8.068049e-05 -2.427951e-05 -1.259205e-04
N -2.275243e-02 -3.657277e+00 6.792759e+00 -4.954755e-05 7.365799e-05 1.591481e-04
N -2.152492e-02 -3.661782e+00 -3.264237e+00 -8.264003e-05 6.592254e-05 1.710056e-04
N -1.592836e+00 -9.431358e-01 1.833543e+00 1.051074e-03 3.368829e-04 -3.901922e-04
N -1.589877e+00 -9.426697e-01 6.791106e+00 -6.264139e-05 8.737827e-05 2.114679e-04
N -1.588522e+00 -9.451894e-01 -3.258618e+00 -8.882823e-05 6.161527e-05 1.230469e-04
