108
Energy=-848642.500270 Lattice="9.465027 0.000000 0.000000 -4.746781 8.187812 0.000000 -0.033290 -0.023753 15.236251" Stress="0.000040 0.000011 -0.000007 0.000011 0.000021 -0.000011 -0.000007 -0.000011 0.000039" Properties=species:S:1:pos:R:3:forces:R:3
Al 1.505915 0.853378 2.421746 0.012954 0.015180 0.005126
Al 1.535878 0.865341 7.475175 0.000242 -0.005005 0.000884
Al 1.564389 0.885680 -2.708113 0.002533 -0.004415 -0.017542
Al -0.036127 3.577804 2.408510 0.001886 0.044847 0.016448
Al -0.041402 3.581459 7.471133 -0.000357 -0.000063 0.000523
Al -0.009677 3.597028 -2.719700 -0.000181 0.001761 -0.008288
Al 3.124776 -1.858566 2.411371 0.005938 0.007044 0.006494
Al 3.140748 -1.881523 7.471121 -0.000262 -0.001409 0.001793
Al 3.160621 -1.858481 -2.719622 0.001576 -0.000798 -0.005584
Al -4.774010 0.874528 2.425235 0.003529 -0.006469 -0.005369
Al -4.794816 0.866314 7.473803 0.002132 -0.004569 0.000247
Al -4.756921 0.893447 -2.698047 0.001716 -0.003953 -0.000219
Al -6.372487 3.579200 2.406635 -0.001019 0.010446 0.002594
Al -6.367992 3.583159 7.478467 -0.001400 -0.001268 0.002764
Al -6.323162 3.611129 -2.705822 0.001356 -0.000098 0.002355
Al -3.183864 -1.874233 2.409522 -0.002323 -0.002464 -0.000938
Al -3.191849 -1.876274 7.473050 0.000491 -0.001088 0.002023
Ga -3.148728 -1.851617 -2.700777 0.000280 0.000261 0.001999
Al -1.607045 0.876631 2.406566 0.003791 -0.000882 0.004271
Al -1.648231 0.871836 7.473469 0.006806 -0.002987 0.000163
Al -1.606628 0.894051 -2.699369 0.002724 -0.003783 -0.024895
Ga -3.200756 3.592086 2.383955 0.005930 0.004041 0.001422
Al -3.212444 3.592465 7.482487 0.006199 -0.000520 0.001949
Al -3.187865 3.618765 -2.699036 0.003089 0.000021 -0.021400
Al -0.027869 -1.859997 2.392768 -0.005922 -0.006213 0.003698
Ga -0.045933 -1.875030 7.487243 0.006166 0.003503 -0.000236
Al -0.007939 -1.843830 -2.716170 0.002575 -0.002446 0.004507
Al -0.037633 1.764002 4.952538 -0.004418 0.001939 -0.000796
Al 0.000482 1.786217 -5.241285 -0.005681 -0.000426 0.001313
Ga -0.032484 1.767710 -0.205179 -0.004876 0.004416 0.010748
Al 3.119647 -3.703791 4.946369 0.010754 0.003857 0.002673
Al 3.171530 -3.671153 -5.238675 -0.004309 -0.001924 0.001416
Ga 3.155597 -3.686092 -0.192783 -0.005831 -0.000757 0.005103
Al 1.572154 -0.971283 4.949481 -0.005857 0.002643 -0.000105
Al 1.601434 -0.954180 -5.230219 -0.005662 0.003881 -0.000879
Ga 1.592909 -0.965382 -0.166507 -0.010494 0.000948 0.000511
Al 3.101612 1.765791 4.947078 -0.000130 0.000501 0.000986
Al 3.131951 1.792771 -5.235445 0.000569 0.001192 0.002922
Ga 3.127703 1.790070 -0.149442 0.004712 0.003698 0.003047
Al 6.272838 -3.697628 4.944941 -0.001649 -0.000310 -0.000399
Al 6.312107 -3.675166 -5.241061 -0.000020 0.001254 0.001314
Al 6.302398 -3.673027 -0.183353 0.003311 0.000357 0.014237
Al 4.710413 -0.977681 4.947592 -0.001948 0.003276 -0.000779
Al 4.733478 -0.951773 -5.239949 0.000655 0.004487 0.001145
Al 4.738078 -0.957487 -0.179024 -0.000012 0.006663 0.012124
Al -3.213097 1.768944 4.953446 0.002006 -0.000407 0.003311
Ga -3.183731 1.799522 -5.232273 -0.000168 -0.000215 0.003648
Al -3.175167 1.790560 -0.145599 -0.007355 -0.000221 -0.021154
Ga -0.030231 -3.698642 4.951546 -0.002967 0.001302 0.000560
Al -0.010038 -3.661051 -5.228951 -0.000917 -0.001880 0.002295
Al -0.011810 -3.659760 -0.120550 -0.005360 -0.006679 -0.022799
Al -1.615449 -0.964545 4.942114 -0.001730 0.003256 0.001670
Al -1.574412 -0.944418 -5.233696 -0.004395 0.004799 0.000871
Al -1.583167 -0.914932 -0.114649 -0.007658 -0.011471 -0.018519
N 1.531843 0.861940 4.352709 -0.000256 -0.005783 -0.002519
N 1.565471 0.886172 -5.833626 0.001071 -0.006148 -0.001068
N 1.557892 0.878017 -0.847512 -0.001227 -0.006168 0.015287
N -0.049044 3.580193 4.347340 0.000242 0.001447 0.000684
N -0.007107 3.605149 -5.839074 -0.000803 -0.000507 -0.001032
N 0.005066 3.610051 -0.827209 0.006926 0.001800 0.003955
N 3.132416 -1.882533 4.346872 -0.001355 0.001046 -0.002191
N 3.167752 -1.859043 -5.836828 -0.001345 0.000295 -0.002070
N 3.182859 -1.851228 -0.817976 0.006182 0.006088 0.002289
N -4.784735 0.867454 4.354588 0.003424 -0.002469 -0.002759
N -4.779387 0.879485 -5.842755 -0.007292 -0.010098 -0.005034
N -4.739790 0.877182 -0.770259 0.007499 -0.011076 -0.000266
N -6.377016 3.570855 4.338329 -0.006410 -0.003064 -0.005962
N -6.328434 3.610180 -5.834283 0.000795 -0.000343 -0.000965
N -6.328702 3.633603 -0.770745 -0.002112 0.007653 -0.003708
N -3.182984 -1.878155 4.346189 0.001375 0.001017 -0.003334
N -3.153989 -1.854156 -5.834265 0.000463 0.000676 -0.001763
N -3.155406 -1.856648 -0.735379 0.000200 0.001920 0.011677
N -1.645695 0.870350 4.346474 0.005887 -0.004306 -0.004509
N -1.594015 0.884235 -5.843426 0.015247 -0.008672 -0.004356
N -1.669138 0.847975 -0.871354 0.007592 0.001755 0.040289
N -3.163873 3.584036 4.354241 -0.001210 -0.009865 0.000093
N -3.185109 3.641619 -5.836772 0.005302 0.011521 -0.004491
N -3.228563 3.594470 -0.868841 0.001114 -0.001682 0.041626
N -0.041132 -1.851344 4.336687 0.004924 0.010195 -0.008929
N -0.010623 -1.846819 -5.802901 0.006290 0.001703 0.010120
N -0.061884 -1.877010 -0.757419 0.004705 0.006285 -0.005100
N -0.014589 1.896909 1.878100 -0.009327 -0.066146 -0.025832
N -0.036198 1.764596 6.876780 -0.004931 -0.002317 -0.000940
N -0.003707 1.786306 -3.312842 -0.004878 -0.002035 -0.000252
N 3.173357 -3.623169 1.808962 -0.003165 -0.013193 -0.004801
N 3.136290 -3.698875 6.875047 -0.005984 -0.000889 -0.000429
N 3.169143 -3.677207 -3.313541 -0.004541 -0.000707 0.000216
N 1.534452 -0.944139 1.840986 0.003917 -0.000107 -0.003514
N 1.588903 -0.967416 6.872073 0.000550 0.008018 -0.003842
N 1.600541 -0.953788 -3.311175 -0.007462 0.003624 0.002350
N 3.136185 1.807675 1.840228 -0.009738 -0.019974 0.001624
N 3.102758 1.772288 6.875735 0.000181 -0.000724 -0.003115
N 3.139495 1.795920 -3.303062 -0.000195 -0.000687 -0.001724
N 6.277688 -3.694824 1.824694 0.001622 0.004091 -0.014077
N 6.276637 -3.695644 6.875706 0.000803 0.000803 -0.001694
N 6.313656 -3.694174 -3.317007 -0.000539 -0.009722 -0.004385
N 4.707981 -0.962032 1.830539 -0.002108 0.007632 -0.012699
N 4.708137 -0.975210 6.875608 -0.001363 0.005968 -0.001986
N 4.721504 -0.938170 -3.315291 -0.010024 0.010112 -0.003868
N -3.159807 1.742497 1.732599 -0.006031 -0.004629 0.010770
N -3.216301 1.776047 6.882506 -0.000070 -0.000251 -0.003473
N -3.181836 1.798357 -3.277487 0.000451 -0.000634 0.006421
N -0.070297 -3.688338 1.743435 0.001377 0.008658 0.016133
N -0.043572 -3.722911 6.905421 0.000937 -0.007254 0.001922
N -0.009112 -3.665379 -3.307442 -0.000242 0.001643 -0.002156
N -1.605773 -0.967133 1.764707 0.004168 0.013304 0.014171
N -1.632628 -0.960015 6.868261 -0.009624 0.009977 -0.006080
N -1.559795 -0.931327 -3.318424 0.007965 0.009368 -0.003955
