108
Energy=-1535275.691272 Lattice="9.530029 0.000000 0.000000 -4.766950 8.251249 0.000000 0.004337 -0.005852 15.385550" Stress="0.000000 0.000001 0.000002 0.000001 -0.000000 -0.000002 0.000002 -0.000002 -0.000000" Properties=species:S:1:pos:R:3:forces:R:3
Al 1.551618 0.874158 2.460090 0.000520 -0.000180 0.000337
Al 1.572861 0.889038 7.531487 0.000206 -0.000227 -0.000162
Al 1.566841 0.895079 -2.746662 0.000307 -0.000215 0.000320
Al -0.031652 3.600897 2.458272 0.000799 0.002907 -0.002516
Al -0.015493 3.618748 7.550116 0.000169 0.000035 0.000321
Ga -0.016601 3.620731 -2.757153 -0.000029 0.000015 0.000599
Ga 3.145850 -1.878124 2.414564 0.000257 -0.000267 0.000757
Al 3.161895 -1.875831 7.555568 0.000211 -0.000245 -0.000221
Ga 3.160122 -1.872999 -2.718110 0.000146 -0.000195 0.000387
Ga -4.785928 0.883734 2.456252 0.000155 -0.000349 -0.000345
Al -4.792866 0.879916 7.540602 0.000484 0.000694 0.000085
Ga -4.812519 0.881525 -2.743661 0.000427 -0.000043 0.000152
Ga -6.385052 3.615815 2.474864 -0.000254 0.000471 -0.000035
Al -6.376377 3.615132 7.536948 0.000165 0.000084 0.000150
Al -6.383845 3.620612 -2.769620 0.000085 0.000101 0.000196
Ga -3.205645 -1.883638 2.447530 -0.000136 -0.000404 -0.000212
Al -3.205240 -1.884068 7.564985 0.000133 -0.000169 0.000305
Ga -3.198303 -1.874971 -2.757265 0.000166 0.000040 0.000242
Al -1.605323 0.897651 2.465930 0.000546 -0.000529 -0.000278
Al -1.602679 0.890333 7.536600 -0.000891 0.000278 0.000265
Ga -1.595744 0.881579 -2.746664 0.000426 -0.000455 0.000274
Al -3.186027 3.616427 2.452899 0.000094 0.000358 -0.000164
Al -3.198944 3.620617 7.542529 -0.000137 -0.000497 0.000046
Ga -3.204987 3.642222 -2.739271 0.000310 -0.000282 0.000267
Ga -0.005027 -1.866547 2.452999 0.000394 -0.000114 0.000036
Ga -0.013738 -1.883706 7.545345 0.000072 -0.000355 0.000179
Ga -0.028018 -1.871655 -2.741493 0.000248 -0.000280 0.000044
Al -0.010610 1.794491 4.996964 -0.000719 -0.000928 0.000343
Al -0.013355 1.802452 -5.320412 -0.000335 0.000116 -0.001050
Ga -0.013789 1.793590 -0.119613 -0.000002 0.000015 -0.000832
Ga 3.153262 -3.722007 5.008611 -0.000233 0.000044 0.000575
Al 3.161941 -3.702812 -5.333009 -0.000167 -0.000038 -0.000330
Al 3.156029 -3.699908 -0.124516 0.000256 -0.000007 0.001009
Al 1.571406 -0.945126 5.014631 -0.000608 0.000119 0.000358
Ga 1.576499 -0.943457 -5.300565 -0.000444 0.000042 0.000229
Al 1.578465 -0.946319 -0.158450 -0.000349 0.000419 0.000456
Al 3.144795 1.792359 5.018651 -0.001143 0.000901 0.000778
Al 3.139822 1.808915 -5.316039 0.000318 0.000123 -0.000000
Ga 3.138711 1.785662 -0.151505 -0.000161 -0.000199 -0.000123
Al 6.334534 -3.726505 5.028927 0.000390 -0.001639 0.000907
Al 6.335374 -3.707919 -5.321287 0.000114 -0.000046 -0.001073
Ga 6.320995 -3.704864 -0.158481 0.000065 -0.000547 0.001036
Ga 4.737706 -0.955663 5.034864 -0.000076 -0.000083 0.000373
Al 4.743175 -0.959645 -5.330216 -0.000120 0.000107 -0.000925
Al 4.732002 -0.962464 -0.146444 -0.000166 0.000263 0.000692
Al -3.196535 1.800656 5.009260 -0.001767 0.001626 0.002347
Ga -3.203383 1.800046 -5.327876 -0.000231 0.000117 0.000048
Ga -3.197844 1.800472 -0.130637 -0.000367 -0.000217 -0.000154
Al -0.016908 -3.727870 5.007832 -0.001224 0.000134 0.001108
Al -0.036081 -3.712765 -5.306997 0.000086 -0.000409 -0.000597
Ga -0.016904 -3.704019 -0.145525 -0.000210 -0.000242 0.000631
Ga -1.606629 -0.954046 5.013596 0.000207 0.000227 0.000133
Al -1.618885 -0.954498 -5.323916 -0.000331 0.000004 -0.000327
Ga -1.611538 -0.950452 -0.127112 -0.000312 -0.000064 -0.000035
N 1.566727 0.870883 4.393083 -0.000135 0.000241 -0.000613
N 1.564343 0.930948 -5.943838 0.000242 -0.000373 -0.000387
N 1.557240 0.840653 -0.824000 0.000288 -0.000214 -0.000286
N 0.020765 3.604168 4.379816 -0.000295 -0.000592 -0.000691
N -0.020561 3.627961 -5.914845 0.000047 -0.000156 -0.000298
N -0.070636 3.647361 -0.768759 -0.000145 -0.000209 -0.000529
N 3.115122 -1.853765 4.394243 0.000254 -0.000179 -0.000659
N 3.189489 -1.891711 -5.927708 -0.000021 0.000049 -0.000266
N 3.156106 -1.879210 -0.713107 0.000111 -0.000003 -0.000470
N -4.793130 0.921268 4.439549 0.001804 -0.000269 -0.000885
N -4.839531 0.863570 -5.930141 0.000223 -0.000054 -0.000229
N -4.792334 0.833917 -0.758457 0.000478 -0.000054 -0.000085
N -6.379515 3.622630 4.457453 -0.000221 -0.000108 -0.000118
N -6.377131 3.629860 -5.925112 -0.000158 -0.000076 -0.000239
N -6.377944 3.627939 -0.843783 0.000133 0.000015 -0.000001
N -3.203830 -1.932687 4.418603 -0.000015 0.001816 -0.000776
N -3.199908 -1.875349 -5.906698 0.000072 -0.000026 -0.000159
N -3.237755 -1.845838 -0.770253 0.000057 0.000112 -0.000115
N -1.616594 0.927663 4.387583 0.002380 0.000035 -0.001139
N -1.568846 0.864709 -5.936378 0.000680 -0.000100 -0.000156
N -1.607068 0.883804 -0.776537 0.000231 -0.000193 -0.000032
N -3.240131 3.604593 4.374856 0.001582 -0.002016 -0.001490
N -3.207834 3.683246 -5.933118 0.000164 -0.000304 -0.000064
N -3.157251 3.658319 -0.760337 0.000140 -0.000362 -0.000179
N 0.025525 -1.902764 4.438487 0.000136 0.001041 -0.000487
N -0.056799 -1.896223 -5.871032 0.000088 0.000363 -0.000179
N 0.013719 -1.846369 -0.756232 0.000162 -0.000235 0.000080
N -0.018313 1.783218 1.874539 -0.000633 0.000979 0.001935
N -0.016694 1.794560 6.922528 -0.000088 0.000153 -0.000593
N 0.021254 1.771808 -3.409099 -0.000232 0.000275 0.001031
N 3.156816 -3.762179 1.809941 0.000785 -0.001121 0.000620
N 3.160031 -3.713380 6.989976 0.000323 0.000077 -0.000301
N 3.156377 -3.702003 -3.420830 -0.000107 0.000336 -0.000091
N 1.565524 -0.899435 1.768532 -0.000489 -0.000231 -0.000698
N 1.615215 -0.932863 6.926980 -0.000318 0.000626 0.000909
N 1.575081 -0.907006 -3.328876 -0.000382 0.000315 -0.000037
N 3.105241 1.767353 1.833881 -0.000094 0.000353 0.000347
N 3.154287 1.791397 6.934564 -0.000396 -0.000165 -0.000175
N 3.108391 1.819494 -3.386350 -0.000339 -0.000069 -0.000197
N 6.293332 -3.741852 1.825615 -0.001376 -0.000743 0.000249
N 6.331936 -3.711058 6.952085 -0.000316 -0.000208 -0.000126
N 6.370223 -3.728053 -3.406011 -0.000057 -0.000042 0.001084
N 4.746533 -0.953491 1.768541 -0.000165 0.000024 -0.000856
N 4.746185 -0.960804 7.006875 0.000115 -0.000105 -0.000341
N 4.738110 -0.955430 -3.421090 -0.000303 0.000026 0.001058
N -3.157945 1.812635 1.857294 -0.000192 0.000673 0.000129
N -3.194965 1.793051 6.941122 -0.000037 0.000038 -0.000066
N -3.203219 1.797428 -3.360611 -0.000276 0.000054 0.000047
N 0.015025 -3.738467 1.842916 -0.000203 0.000196 -0.000638
N -0.016489 -3.761888 6.918356 -0.000340 -0.000000 0.000068
N -0.064189 -3.730444 -3.391970 -0.000077 0.000183 0.000524
N -1.609488 -0.907535 1.858911 -0.000192 0.000266 0.000029
N -1.652145 -0.934020 6.981933 0.000115 -0.000137 -0.000235
N -1.611396 -0.951359 -3.416383 -0.000357 0.000084 0.000169
