108
Energy=-1123296.357884 Lattice="9.478251 0.000000 0.000000 -4.740905 8.205893 0.000000 -0.000800 -0.001553 15.264778" Stress="-0.000000 -0.000000 -0.000000 -0.000000 -0.000002 -0.000000 0.000000 -0.000000 -0.000003" Properties=species:S:1:pos:R:3:forces:R:3
Al 1.558045 0.870644 2.389171 0.000212 0.000072 0.000141
Al 1.564431 0.878216 7.448292 -0.000164 0.000563 0.000046
Al 1.556664 0.871862 -2.658444 0.000032 -0.000798 0.000129
Al -0.019049 3.602423 2.402462 -0.000488 -0.000280 0.000589
Al -0.011748 3.606321 7.481224 0.000057 -0.000082 0.000014
Al -0.032447 3.604884 -2.702957 0.000346 0.000377 0.000156
Al 3.138160 -1.858184 2.393231 -0.000427 0.000183 0.000873
Al 3.145547 -1.861204 7.469365 -0.000417 0.000350 0.000134
Al 3.127269 -1.874293 -2.678469 -0.000643 0.000784 -0.000304
Al -4.774914 0.869698 2.403133 0.000543 0.000858 0.000125
Al -4.774593 0.868588 7.461719 0.000316 0.000191 -0.000374
Al -4.769373 0.880964 -2.674816 0.000194 -0.000155 0.000229
Al -6.353161 3.598030 2.397268 0.001362 0.000151 -0.000215
Al -6.353292 3.600641 7.476537 0.000342 0.000211 -0.000177
Ga -6.337451 3.603765 -2.684763 -0.000281 0.000277 -0.000320
Al -3.177335 -1.859487 2.417613 0.000179 0.000070 0.000094
Al -3.194761 -1.875894 7.447354 0.000211 0.000412 -0.000466
Ga -3.189617 -1.868763 -2.672439 0.000004 -0.000120 -0.000157
Al -1.594986 0.866491 2.381508 0.000131 0.000152 -0.000249
Ga -1.600378 0.885682 7.486663 0.000542 -0.000379 0.000208
Ga -1.598249 0.890527 -2.673098 0.000317 -0.000322 0.000071
Ga -3.178621 3.611211 2.364296 -0.000384 -0.000104 -0.000022
Al -3.183144 3.608586 7.513057 -0.000084 -0.000333 -0.000151
Al -3.179354 3.617373 -2.689643 0.000123 -0.000255 0.000212
Al -0.021842 -1.850167 2.387047 0.000133 -0.001134 0.000034
Ga -0.013946 -1.862489 7.467344 0.000091 -0.000130 0.000252
Al -0.005122 -1.868659 -2.663846 -0.000056 0.000067 0.000162
Al -0.007378 1.776982 4.917458 -0.000126 0.000284 -0.000216
Al -0.012890 1.802250 -5.233982 -0.001544 0.000208 0.000258
Al -0.022447 1.784473 -0.133311 0.000082 -0.000244 0.000127
Ga 3.156884 -3.680107 4.954528 -0.000059 0.000309 0.000132
Al 3.140739 -3.702277 -5.244259 -0.000020 0.000229 0.000179
Al 3.134444 -3.693076 -0.157764 0.000041 0.000116 -0.000014
Al 1.565037 -0.935420 4.915933 -0.000288 0.000221 -0.000430
Ga 1.559418 -0.948471 -5.216768 -0.000272 -0.000086 0.000537
Al 1.551078 -0.953563 -0.145515 -0.000246 0.000338 -0.000199
Al 3.120273 1.777072 4.933843 0.000126 -0.000018 -0.000065
Ga 3.130007 1.790692 -5.249092 0.000155 -0.000188 0.000344
Al 3.134403 1.777112 -0.131308 0.000388 0.000538 -0.000617
Al 6.296631 -3.691598 4.926318 -0.000021 0.000037 0.000002
Al 6.290043 -3.694096 -5.262439 -0.000123 -0.000146 0.000702
Ga 6.292133 -3.701051 -0.110011 -0.000150 -0.000057 -0.001031
Al 4.714720 -0.951799 4.926422 -0.000115 0.000004 -0.000028
Ga 4.718303 -0.955905 -5.242823 -0.000220 0.000080 0.000231
Ga 4.705954 -0.940393 -0.120598 -0.000020 0.000027 -0.000997
Ga -3.184652 1.767565 4.937910 -0.000062 0.000010 0.000028
Al -3.188130 1.804398 -5.232979 -0.000111 -0.000400 -0.000338
Al -3.186661 1.792763 -0.141432 0.000178 -0.000847 -0.000670
Ga -0.039838 -3.681836 4.936760 -0.000004 0.000047 -0.000098
Al -0.014646 -3.696362 -5.234855 -0.000119 0.000631 -0.000040
Al -0.016087 -3.678944 -0.145039 0.000704 0.000221 0.001222
Al -1.601129 -0.947585 4.912390 -0.000423 -0.000130 -0.000138
Ga -1.604385 -0.955844 -5.232205 -0.000184 0.000091 0.000062
Al -1.583009 -0.947373 -0.118063 -0.000052 0.000175 -0.000174
N 1.558383 0.872722 4.311972 0.000222 -0.000052 -0.000093
N 1.510649 0.893013 -5.901414 0.000727 -0.000379 -0.000095
N 1.553071 0.874783 -0.735702 0.000338 0.000082 -0.000003
N 0.012791 3.582551 4.312397 0.000042 -0.000097 0.000077
N -0.021239 3.604491 -5.857151 -0.000238 -0.000106 0.000044
N -0.060581 3.581670 -0.781288 -0.000228 -0.000028 -0.000030
N 3.136947 -1.822765 4.308586 -0.000068 -0.000067 0.000008
N 3.132411 -1.908123 -5.879371 0.000238 0.000086 -0.000893
N 3.098040 -1.888233 -0.763961 -0.000072 -0.000098 -0.000164
N -4.809075 0.851970 4.316599 0.000121 0.000143 -0.000046
N -4.725498 0.894210 -5.893803 0.000486 0.000429 0.000671
N -4.764243 0.920635 -0.762442 0.000135 0.000354 -0.000283
N -6.383198 3.577450 4.310420 -0.000084 0.000020 0.000029
N -6.341755 3.654566 -5.865942 0.000009 0.000124 -0.000019
N -6.302535 3.586814 -0.712187 -0.000917 -0.001018 -0.000416
N -3.181451 -1.863574 4.337167 0.000059 -0.000061 -0.000110
N -3.182981 -1.908302 -5.901327 0.000153 0.000083 -0.000111
N -3.141444 -1.843566 -0.711415 0.000045 0.000090 0.000123
N -1.562083 0.855051 4.300215 0.000353 -0.000319 -0.000020
N -1.602127 0.924898 -5.799140 0.000690 0.000375 0.000379
N -1.602028 0.874740 -0.688866 -0.000231 0.000618 -0.000534
N -3.179196 3.611344 4.316761 0.000127 -0.000248 0.000139
N -3.182411 3.610375 -5.832436 -0.000003 -0.000181 -0.000084
N -3.184544 3.610890 -0.753936 0.000259 -0.000338 -0.000327
N -0.017329 -1.814885 4.305629 0.000143 -0.000173 -0.000035
N -0.017574 -1.904668 -5.835382 0.000119 -0.000678 -0.000165
N -0.022958 -1.862169 -0.742159 0.000073 -0.000285 -0.000007
N -0.017320 1.786834 1.788357 -0.000270 0.000382 0.000147
N 0.017466 1.808015 6.834674 -0.000282 0.000535 0.000009
N 0.028294 1.805629 -3.311662 -0.000436 -0.000011 -0.000922
N 3.190093 -3.659023 1.760102 -0.000035 -0.000563 -0.000733
N 3.139837 -3.693295 6.933865 -0.000103 0.000432 0.000087
N 3.138075 -3.689100 -3.307528 -0.000068 0.000334 -0.000341
N 1.561754 -0.951711 1.780819 -0.000403 0.000028 0.000144
N 1.602351 -0.924826 6.831831 0.000748 -0.001272 0.000665
N 1.555995 -0.945020 -3.232072 0.001220 -0.000290 0.000079
N 3.134567 1.779415 1.786979 -0.000119 0.000076 0.000631
N 3.135320 1.786694 6.860260 -0.000048 -0.000030 0.000025
N 3.130218 1.733804 -3.271650 -0.000114 0.000016 -0.000251
N 6.290579 -3.686091 1.859004 0.000768 0.000310 0.000606
N 6.295908 -3.693869 6.854311 0.000074 0.000023 0.000124
N 6.257097 -3.709332 -3.344136 -0.000088 -0.000258 -0.000277
N 4.717241 -0.949218 1.852498 0.000432 -0.000495 0.000552
N 4.715001 -0.952107 6.854419 -0.000289 -0.000138 -0.000013
N 4.672874 -0.925970 -3.261287 -0.000270 -0.000269 -0.000127
N -3.187230 1.732655 1.769846 -0.000584 -0.000253 0.001022
N -3.222240 1.810584 6.905496 -0.000339 0.000120 -0.000020
N -3.227513 1.810657 -3.308852 -0.000438 0.000136 -0.000130
N -0.067544 -3.661893 1.771097 -0.000443 0.001216 0.000157
N -0.020903 -3.737432 6.904904 -0.000345 -0.000131 -0.000016
N 0.019063 -3.661319 -3.311831 0.000266 -0.000042 0.000072
N -1.600505 -0.953992 1.799102 -0.000343 -0.000178 0.000582
N -1.640579 -0.967452 6.824729 -0.000443 -0.000143 0.000223
N -1.559593 -0.974363 -3.267734 -0.000253 0.000109 -0.000134
