108
Energy=-528214.359677 Lattice="9.459146 0.000000 0.000000 -4.738149 8.186716 0.000000 0.036437 -0.015605 15.192235" Stress="0.000103 0.000012 0.000006 0.000012 0.000108 -0.000005 0.000006 -0.000005 0.000107" Properties=species:S:1:pos:R:3:forces:R:3
Al 1.567420 0.870024 2.418973 -0.000637 -0.005404 -0.004995
Al 1.570733 0.869394 7.454371 0.000675 -0.005870 -0.001262
Al 1.540373 0.887542 -2.711408 -0.001590 -0.004986 -0.000022
Al -0.006002 3.585599 2.412697 -0.001651 -0.001781 -0.003690
Al 0.002058 3.587498 7.455405 -0.000739 -0.000532 -0.000176
Al -0.031429 3.602570 -2.709034 -0.000760 -0.002325 -0.000247
Al 3.166614 -1.879109 2.416241 -0.001885 -0.000345 -0.002541
Al 3.172484 -1.880260 7.453035 -0.000871 0.000218 -0.000595
Al 3.146485 -1.864118 -2.713509 -0.000632 -0.000826 0.000960
Al -4.755956 0.872992 2.413966 0.000619 -0.004877 -0.004063
Al -4.749662 0.873910 7.456036 0.001446 -0.005324 -0.001068
Al -4.783417 0.889929 -2.705944 0.002185 -0.005340 -0.001387
Al -6.325038 3.596280 2.414324 0.001701 0.000053 -0.003393
Al -6.318053 3.592147 7.455194 0.000320 -0.000204 -0.000474
Al -6.353016 3.602586 -2.707534 -0.000772 0.000076 0.000739
Al -3.169853 -1.881539 2.423358 0.010274 0.007639 -0.007013
Al -3.148367 -1.875313 7.454630 0.000161 0.000660 -0.000201
Al -3.190099 -1.860044 -2.713435 0.001610 0.000521 -0.000821
Al -1.613532 0.870205 2.425959 0.007904 0.009328 -0.000715
Al -1.611202 0.878912 7.456169 0.006628 -0.003760 -0.001971
Al -1.646354 0.898089 -2.716832 0.008307 -0.003534 -0.039263
Al -3.185028 3.598311 2.412305 0.004311 0.002616 -0.004255
Al -3.178677 3.596819 7.455029 0.005436 0.001438 -0.001202
Al -3.211472 3.606819 -2.707766 0.006911 0.000874 -0.000478
Al -0.002114 -1.856130 2.421921 0.004916 0.000503 -0.004791
Al -0.009078 -1.870301 7.455631 0.005476 0.002271 -0.001173
Ga -0.039352 -1.864430 -2.705342 0.004959 0.005270 -0.002213
Al -0.000232 1.774298 4.943199 -0.005303 -0.002488 -0.001946
Al -0.032321 1.788527 -5.226813 -0.005026 -0.002046 0.000273
Al -0.044973 1.785479 -0.186693 0.004488 -0.000653 0.005963
Al 3.169963 -3.694791 4.941964 -0.005687 -0.001409 -0.001827
Al 3.136964 -3.679474 -5.225623 -0.005475 -0.001556 -0.000960
Al 3.142260 -3.678727 -0.167931 -0.004668 -0.001818 0.005511
Al 1.603049 -0.974382 4.942876 -0.006842 0.004180 -0.002975
Al 1.573186 -0.958277 -5.228844 -0.007624 0.003732 -0.002128
Al 1.583113 -0.965110 -0.187815 -0.005810 0.006189 0.014765
Al 3.139564 1.779276 4.940794 -0.000607 -0.000523 -0.001063
Al 3.105834 1.793009 -5.225665 -0.000301 -0.000733 0.000000
Al 3.107071 1.795072 -0.167641 -0.000561 -0.001429 0.006543
Al 6.307125 -3.690109 4.942798 -0.000244 -0.001001 -0.000742
Al 6.275477 -3.674804 -5.225365 -0.000345 0.000125 -0.000177
Al 6.278294 -3.674549 -0.170279 0.000152 -0.001131 0.006830
Al 4.739759 -0.971044 4.944434 -0.002568 0.006132 -0.001360
Al 4.707421 -0.954987 -5.226589 -0.001445 0.005592 -0.001007
Al 4.709880 -0.954922 -0.165094 -0.001446 0.005172 0.005059
Al -3.181734 1.783345 4.939518 0.000714 -0.000100 -0.000682
Al -3.214869 1.798173 -5.226937 0.000441 -0.000283 0.000406
Al -3.209918 1.803261 -0.175426 0.007844 -0.003344 -0.000257
Al -0.011419 -3.683831 4.940518 0.000411 0.000798 -0.001266
Al -0.044006 -3.674521 -5.230159 0.000455 0.001348 -0.000943
Al -0.041885 -3.663271 -0.173327 0.001607 -0.008688 0.012316
Al -1.581195 -0.965203 4.942727 0.000070 0.006043 -0.001605
Al -1.615672 -0.949342 -5.228803 0.000011 0.005245 -0.000500
Ga -1.599759 -0.922910 -0.193848 0.000487 0.005587 0.009900
N 1.568586 0.872067 4.346200 0.000614 -0.005520 -0.000270
N 1.536175 0.884908 -5.822004 0.000862 -0.005753 0.000708
N 1.535281 0.883379 -0.784120 0.002926 -0.006446 0.004633
N -0.000900 3.587875 4.340760 -0.000238 -0.000055 -0.001393
N -0.032596 3.604028 -5.821413 -0.000487 -0.000136 -0.000149
N -0.029471 3.604069 -0.783157 -0.000128 0.000801 0.003754
N 3.171207 -1.880406 4.345005 -0.000235 0.000279 -0.001382
N 3.138168 -1.864742 -5.823383 -0.000437 0.000068 0.000169
N 3.146212 -1.865310 -0.783979 -0.000335 -0.000079 0.002410
N -4.752599 0.873204 4.341472 0.001752 -0.005831 -0.000905
N -4.785621 0.888354 -5.820402 0.001382 -0.005663 0.001232
N -4.782443 0.890434 -0.779368 0.003950 -0.006368 0.004580
N -6.320504 3.594360 4.340601 0.000037 -0.000144 -0.001019
N -6.353743 3.606744 -5.822924 0.000041 -0.000264 0.000498
N -6.349965 3.610222 -0.781395 0.000388 -0.000147 0.002947
N -3.155354 -1.877278 4.346051 0.001369 0.001233 -0.002612
N -3.184742 -1.860665 -5.822725 -0.000188 0.000285 0.000113
N -3.194767 -1.863741 -0.792101 -0.007907 -0.004267 0.001384
N -1.613634 0.880317 4.348153 0.006105 -0.004011 0.001630
N -1.646819 0.894351 -5.819855 0.006691 -0.003766 0.001479
N -1.579562 0.918817 -0.945068 -0.013581 0.007175 0.067668
N -3.182069 3.598568 4.340050 0.005542 0.001117 -0.000499
N -3.213221 3.612299 -5.822889 0.005925 0.001546 0.001049
N -3.212351 3.617938 -0.782613 0.006641 -0.000070 0.004738
N -0.011075 -1.868149 4.347296 0.004334 0.001862 0.000015
N -0.044212 -1.855411 -5.818910 0.005503 0.002161 0.000842
N -0.016322 -1.884579 -0.750594 0.014387 0.005105 0.005474
N -0.005350 1.770238 1.802474 -0.007375 0.000344 -0.008920
N 0.001672 1.773578 6.861251 -0.005337 -0.002268 0.000583
N -0.030053 1.788859 -3.310906 -0.002777 -0.000913 -0.001975
N 3.164785 -3.694217 1.800215 -0.006006 -0.000841 -0.005072
N 3.171163 -3.695813 6.859848 -0.005488 -0.001465 0.000483
N 3.137919 -3.680415 -3.307755 -0.005948 -0.000974 0.002624
N 1.603412 -0.971586 1.834852 -0.005119 0.004479 -0.014123
N 1.603698 -0.975264 6.861611 -0.006633 0.003834 0.001532
N 1.594422 -0.949222 -3.313904 0.001004 0.008258 -0.000027
N 3.135311 1.782037 1.801657 -0.000351 -0.000173 -0.006039
N 3.141456 1.778921 6.858914 0.000067 -0.000610 -0.000484
N 3.107543 1.793941 -3.306195 0.000725 -0.000922 0.000993
N 6.299593 -3.689789 1.803101 0.000747 0.003214 -0.006942
N 6.309940 -3.690249 6.859530 -0.000300 0.000449 -0.000410
N 6.276157 -3.675311 -3.308494 0.000235 0.000440 0.001809
N 4.732266 -0.971834 1.800236 0.000147 0.006604 -0.004765
N 4.742498 -0.969795 6.860930 -0.001217 0.005655 0.000431
N 4.708720 -0.953893 -3.309236 -0.001649 0.006377 0.002036
N -3.182256 1.778596 1.800167 0.001986 -0.000297 -0.010062
N -3.179910 1.782887 6.858606 0.000616 -0.000473 -0.000491
N -3.214616 1.798421 -3.308745 -0.001294 -0.000265 -0.001017
N -0.018005 -3.676685 1.799276 -0.000605 0.000631 -0.004691
N -0.009946 -3.685793 6.859214 0.000463 0.000416 -0.000278
N -0.042841 -3.698566 -3.317961 0.000305 -0.010125 -0.002253
N -1.534626 -0.894409 1.819769 -0.018311 -0.017871 0.001455
N -1.578158 -0.965841 6.861265 -0.000889 0.005596 0.000446
N -1.631784 -0.942020 -3.313908 -0.008936 0.008481 -0.003753
