108
Energy=-1.214847e+06 Lattice="9.486459e+00 0.000000e+00 0.000000e+00 -4.745023e+00 8.211854e+00 0.000000e+00 8.004122e-04 -1.916273e-03 1.530205e+01" Stress="-4.517383e-04 1.157009e-04 -7.607608e-05 1.212763e-04 -1.124242e-03 -6.927691e-05 -8.284357e-05 -6.984331e-05 5.345755e-04" Properties=species:S:1:pos:R:3:forces:R:3 Config_type=AlGaN_super3_17_1_13.xyz
Al 1.555496e+00 8.574562e-01 2.408743e+00 2.032939e-03 5.282137e-03 -3.264571e-03
Al 1.550058e+00 8.789275e-01 7.532062e+00 3.939219e-03 9.350337e-04 -3.813077e-04
Al 1.556095e+00 8.779562e-01 -2.726459e+00 3.464254e-04 -2.348070e-04 1.053375e-03
Al -1.852691e-02 3.601143e+00 2.416976e+00 1.531781e-03 1.433878e-03 2.257763e-04
Al -3.002299e-02 3.609092e+00 7.488427e+00 3.461979e-05 -2.921264e-04 -3.465693e-05
Al -2.232082e-02 3.596347e+00 -2.702535e+00 -6.942332e-05 7.178244e-04 -3.216930e-04
Al 3.134712e+00 -1.863398e+00 2.409097e+00 4.528116e-03 -6.222963e-05 3.867309e-04
Al 3.156670e+00 -1.868285e+00 7.516688e+00 4.515407e-04 -4.839384e-05 3.861703e-04
Ga 3.138422e+00 -1.862899e+00 -2.722810e+00 -1.151608e-04 7.871665e-05 4.306866e-04
Al -4.771135e+00 8.728207e-01 2.436359e+00 -3.860561e-06 -2.946556e-04 -3.414123e-04
Al -4.768887e+00 8.638366e-01 7.512162e+00 3.501959e-04 -1.608659e-04 5.521673e-05
Al -4.772617e+00 8.812870e-01 -2.738985e+00 2.194263e-04 9.947508e-05 -1.031791e-04
Al -6.356837e+00 3.603209e+00 2.406513e+00 -8.437051e-04 1.268153e-03 3.533113e-04
Ga -6.347123e+00 3.605869e+00 7.514772e+00 -9.909600e-05 -2.676924e-04 3.325330e-04
Al -6.345763e+00 3.601168e+00 -2.712804e+00 -5.036029e-05 1.188638e-04 9.275845e-05
Ga -3.191692e+00 -1.873939e+00 2.402792e+00 -3.612035e-04 -2.609720e-04 -2.537061e-04
Al -3.208014e+00 -1.865644e+00 7.509554e+00 1.442803e-04 3.582038e-04 1.035032e-05
Ga -3.171154e+00 -1.858944e+00 -2.696275e+00 -8.049866e-05 2.382926e-04 5.294163e-04
Al -1.603889e+00 8.813337e-01 2.427887e+00 2.537094e-04 -1.953061e-04 -5.036952e-04
Ga -1.605999e+00 8.955487e-01 7.518817e+00 -4.481291e-06 -1.297661e-04 5.817884e-04
Al -1.598342e+00 8.745972e-01 -2.736598e+00 1.464612e-04 -1.686194e-04 -7.202256e-05
Ga -3.179937e+00 3.611418e+00 2.410905e+00 -5.455970e-04 -4.076452e-04 -5.238699e-05
Al -3.181151e+00 3.612932e+00 7.504725e+00 4.492152e-04 -5.218354e-04 2.851240e-04
Ga -3.183637e+00 3.610171e+00 -2.708927e+00 5.451204e-05 -1.471153e-04 4.450816e-04
Ga -1.670880e-02 -1.859735e+00 2.390299e+00 -7.370483e-04 -5.652149e-04 1.177817e-04
Ga -1.074460e-02 -1.871589e+00 7.531019e+00 -4.436166e-04 -2.101744e-04 8.089187e-04
Al -2.258548e-02 -1.850484e+00 -2.711983e+00 6.762601e-05 -2.636112e-04 4.273413e-04
Al -2.753440e-02 1.802917e+00 4.945085e+00 -6.963120e-04 -1.138719e-03 -1.535441e-03
Al -2.430744e-02 1.789979e+00 -5.236882e+00 6.329507e-04 -1.120013e-05 2.557911e-04
Ga -2.904792e-02 1.782260e+00 -1.524074e-01 6.577874e-04 -2.329917e-04 6.792848e-04
Al 3.150156e+00 -3.693242e+00 4.966034e+00 -2.208523e-04 3.196581e-04 2.936987e-04
Al 3.138460e+00 -3.694691e+00 -5.282636e+00 -2.033895e-04 1.610108e-04 2.693795e-04
Al 3.150486e+00 -3.685043e+00 -1.381523e-01 -4.263563e-05 1.189367e-04 4.354071e-05
Ga 1.574824e+00 -9.548402e-01 4.974940e+00 -3.872761e-04 -4.418145e-04 4.820389e-04
Al 1.562459e+00 -9.467690e-01 -5.256407e+00 -3.016907e-04 2.141206e-04 4.443256e-04
Al 1.555683e+00 -9.667276e-01 -1.626620e-01 -6.518990e-04 7.368138e-04 2.898223e-05
Ga 3.134871e+00 1.785365e+00 4.953610e+00 1.044922e-03 4.091591e-04 4.925389e-04
Al 3.141322e+00 1.775449e+00 -5.248215e+00 -4.649203e-05 -2.374696e-04 -1.045305e-04
Ga 3.138071e+00 1.792556e+00 -1.449822e-01 -5.213213e-04 -3.297657e-04 -2.516261e-04
Al 6.291907e+00 -3.694192e+00 4.964626e+00 1.692549e-04 8.027039e-05 -3.539836e-04
Ga 6.292904e+00 -3.690750e+00 -5.249857e+00 -4.386080e-05 -3.363298e-05 7.274240e-04
Al 6.306566e+00 -3.698973e+00 -1.590207e-01 2.175240e-04 -8.770213e-05 3.691466e-04
Al 4.718207e+00 -9.602503e-01 4.970582e+00 1.415112e-04 4.114520e-04 -1.295357e-04
Al 4.720300e+00 -9.407608e-01 -5.273908e+00 -3.919378e-04 -5.744007e-05 8.652737e-04
Ga 4.715547e+00 -9.549759e-01 -1.361766e-01 3.519623e-05 -2.010784e-04 -1.280601e-03
Al -3.187831e+00 1.793286e+00 4.966384e+00 -9.743692e-04 -8.093691e-05 2.561489e-04
Al -3.195491e+00 1.792071e+00 -5.258270e+00 7.115455e-04 -2.338720e-04 -1.769075e-04
Ga -3.184117e+00 1.779224e+00 -1.508688e-01 1.221996e-04 1.299017e-05 -1.171083e-04
Al -1.841094e-02 -3.700892e+00 4.961329e+00 -2.270741e-04 -3.833622e-04 1.900833e-04
Al -1.080869e-02 -3.685796e+00 -5.234207e+00 4.489549e-04 1.004541e-04 4.024093e-04
Al -3.221597e-02 -3.673618e+00 -1.704956e-01 -1.099931e-04 -1.505093e-04 -3.402501e-04
Ga -1.616865e+00 -9.494632e-01 4.967559e+00 -8.975786e-05 2.109223e-04 2.016199e-04
Al -1.601906e+00 -9.441765e-01 -5.245653e+00 3.318255e-04 4.070040e-04 7.187940e-05
Al -1.586796e+00 -9.519346e-01 -1.608508e-01 -3.235052e-04 -9.366061e-05 -2.551534e-04
N 1.512012e+00 8.879297e-01 4.306924e+00 1.969495e-04 -5.992616e-05 9.056278e-04
N 1.550300e+00 8.818974e-01 -5.848406e+00 2.556884e-04 -4.424177e-05 -2.630645e-04
N 1.559004e+00 8.249743e-01 -8.024418e-01 1.368210e-04 2.657436e-04 -1.090268e-03
N -2.255935e-02 3.615626e+00 4.345891e+00 -4.652085e-04 -4.043593e-04 2.135005e-04
N -6.178204e-02 3.580991e+00 -5.899103e+00 -1.559214e-04 -1.626095e-04 -6.359755e-04
N -2.688132e-02 3.652268e+00 -7.843125e-01 -4.319040e-04 1.350811e-04 2.199346e-04
N 3.179851e+00 -1.891823e+00 4.333775e+00 -2.623673e-04 -4.714332e-05 -4.333126e-04
N 3.143551e+00 -1.864582e+00 -5.863109e+00 -9.209996e-05 1.107408e-04 -1.443477e-04
N 3.104736e+00 -1.892690e+00 -7.459350e-01 -6.861759e-04 -1.575663e-04 2.148799e-04
N -4.725975e+00 8.461640e-01 4.349103e+00 -8.299810e-05 -1.187757e-04 -1.835963e-04
N -4.768839e+00 8.769602e-01 -5.869632e+00 3.991687e-04 1.347874e-05 2.473747e-04
N -4.771074e+00 8.722404e-01 -8.345180e-01 3.586347e-04 3.475208e-04 -1.563884e-06
N -6.350161e+00 3.660067e+00 4.332773e+00 -3.741751e-04 2.691100e-04 -3.254630e-04
N -6.303192e+00 3.590717e+00 -5.818406e+00 -4.652482e-04 -2.040827e-04 -1.769920e-04
N -6.346695e+00 3.649992e+00 -7.944626e-01 2.638202e-05 3.349549e-04 -4.529139e-05
N -3.227548e+00 -1.893135e+00 4.378847e+00 -1.993323e-05 -1.956191e-05 -2.444577e-04
N -3.183928e+00 -1.819400e+00 -5.876155e+00 -1.732224e-05 3.466338e-04 -3.909265e-04
N -3.143137e+00 -1.885756e+00 -7.176280e-01 1.332894e-04 -8.840752e-05 -1.445931e-04
N -1.614674e+00 9.215534e-01 4.345821e+00 2.372762e-03 4.576638e-04 -4.274940e-04
N -1.600191e+00 8.866768e-01 -5.805356e+00 -1.377722e-03 -1.032045e-03 6.219155e-04
N -1.607670e+00 8.298195e-01 -8.227978e-01 4.761232e-04 -1.990982e-04 2.165674e-04
N -3.180996e+00 3.615442e+00 4.396315e+00 2.998356e-05 -1.279799e-04 -2.522289e-04
N -3.191314e+00 3.614461e+00 -5.867868e+00 -2.956860e-05 -3.633907e-05 -2.137721e-04
N -3.180603e+00 3.659376e+00 -7.265990e-01 1.093973e-04 -1.007707e-04 1.117365e-04
N -2.083207e-02 -1.908053e+00 4.362705e+00 3.665602e-04 -8.905198e-05 -6.665164e-04
N -2.181512e-02 -1.864744e+00 -5.799541e+00 1.095237e-04 -2.787623e-04 -2.016400e-04
N -2.095050e-02 -1.859758e+00 -7.757690e-01 6.377569e-04 -1.237925e-04 5.889490e-05
N -2.320048e-02 1.780829e+00 1.847165e+00 -1.170416e-03 -2.144749e-04 -2.079229e-03
N 2.330301e-02 1.801904e+00 6.859317e+00 -1.033021e-03 1.580907e-03 2.264141e-03
N -1.871900e-02 1.791113e+00 -3.316260e+00 -1.667026e-04 3.983790e-04 2.437536e-04
N 3.190971e+00 -3.668851e+00 1.785325e+00 -7.386014e-04 1.148003e-04 -4.629621e-04
N 3.139962e+00 -3.686895e+00 6.897255e+00 3.172792e-04 -1.571745e-04 -2.116819e-04
N 3.185337e+00 -3.716125e+00 -3.372958e+00 5.819709e-04 -3.359308e-04 2.608163e-04
N 1.604643e+00 -9.324468e-01 1.765718e+00 -8.493708e-04 -6.708020e-04 -6.497294e-04
N 1.607696e+00 -9.259841e-01 6.950644e+00 -6.060802e-04 1.277041e-04 -7.141338e-04
N 1.523892e+00 -9.277379e-01 -3.341834e+00 -4.739421e-04 2.285243e-04 -1.154285e-04
N 3.144800e+00 1.787899e+00 1.847496e+00 -1.873238e-03 -3.030801e-03 1.492409e-03
N 3.139468e+00 1.736520e+00 6.929118e+00 -2.951218e-03 -9.061068e-04 2.422181e-04
N 3.136899e+00 1.785883e+00 -3.326102e+00 -2.658842e-04 -9.834237e-05 1.506256e-05
N 6.299775e+00 -3.746789e+00 1.765888e+00 9.661119e-05 -4.309982e-04 4.809792e-04
N 6.262731e+00 -3.668489e+00 6.886043e+00 -9.534593e-05 -2.617510e-04 -3.555878e-04
N 6.299628e+00 -3.734449e+00 -3.279923e+00 -5.474535e-04 -4.271808e-04 -5.480518e-05
N 4.680768e+00 -9.204370e-01 1.828985e+00 -2.103154e-03 -8.960425e-04 2.014455e-03
N 4.717594e+00 -9.505492e-01 6.899574e+00 -2.209559e-04 -3.770672e-04 -3.837279e-04
N 4.727419e+00 -9.089762e-01 -3.362080e+00 -2.987881e-04 -1.612728e-04 -6.753038e-04
N -3.189032e+00 1.735512e+00 1.829599e+00 4.244435e-04 1.040969e-04 2.672989e-04
N -3.231330e+00 1.810035e+00 6.886710e+00 5.921087e-04 -8.421433e-05 -1.642369e-04
N -3.188225e+00 1.746924e+00 -3.343957e+00 5.313341e-05 -2.139508e-05 -1.633998e-04
N -6.593101e-02 -3.716071e+00 1.746027e+00 1.734450e-04 4.085918e-04 -5.380850e-06
N 1.743506e-02 -3.712517e+00 6.866835e+00 -2.358875e-04 3.888870e-04 -7.572382e-04
N -5.867068e-02 -3.662207e+00 -3.321128e+00 6.239659e-05 8.022476e-05 2.216293e-04
N -1.603319e+00 -8.971948e-01 1.758725e+00 1.919204e-04 8.945713e-05 2.255696e-04
N -1.641711e+00 -9.712048e-01 6.931757e+00 -2.481195e-04 -9.171144e-05 -4.754289e-04
N -1.562554e+00 -9.297621e-01 -3.335700e+00 -2.408479e-04 -1.109046e-04 -1.511452e-04
