108
Energy=-1260622.869816 Lattice="9.492762 0.000000 0.000000 -4.748841 8.218119 0.000000 -0.002809 0.006390 15.309355" Stress="-0.000003 -0.000002 -0.000000 -0.000002 -0.000005 0.000001 -0.000000 0.000001 0.000000" Properties=species:S:1:pos:R:3:forces:R:3
Al 1.561180 0.873109 2.417495 -0.000660 -0.000003 0.000191
Al 1.558344 0.885079 7.513667 -0.000160 0.000046 0.000378
Al 1.552393 0.866870 -2.732341 -0.000216 0.000512 0.000439
Al -0.018938 3.607647 2.426453 -0.001692 -0.001426 0.000722
Al -0.024778 3.606813 7.496041 0.000184 0.000333 0.000452
Al -0.015095 3.598667 -2.717317 0.000591 0.000099 -0.000214
Al 3.142123 -1.864036 2.386181 -0.001634 0.000923 0.001641
Al 3.138786 -1.862863 7.531433 -0.000383 0.000261 0.000070
Ga 3.138121 -1.854032 -2.716354 -0.000096 -0.000019 0.000866
Al -4.772459 0.877714 2.419641 -0.002595 0.000378 -0.000421
Al -4.787475 0.882456 7.500936 0.000084 0.000407 0.000236
Al -4.782189 0.865957 -2.705520 0.000220 0.000292 0.000621
Ga -6.364652 3.597160 2.437794 0.000494 0.000024 -0.000617
Al -6.357390 3.606072 7.502623 -0.000124 -0.000150 0.000312
Ga -6.361690 3.603527 -2.726341 0.000074 0.000054 -0.000031
Ga -3.200112 -1.869563 2.409843 0.000689 0.000386 0.000626
Ga -3.187962 -1.866056 7.507893 0.000037 -0.000118 0.000421
Ga -3.194613 -1.872355 -2.700611 -0.000209 -0.000018 0.000342
Ga -1.603911 0.891572 2.408316 0.000621 0.000149 0.000166
Al -1.593026 0.884807 7.485482 0.000295 -0.000451 -0.000066
Ga -1.592401 0.885798 -2.679825 0.000781 -0.000117 0.000623
Al -3.176754 3.606365 2.442645 -0.000598 0.000050 -0.000470
Ga -3.186684 3.627367 7.495911 -0.000049 -0.000053 0.000113
Ga -3.187134 3.616938 -2.718022 0.000113 -0.000172 -0.000337
Ga -0.006532 -1.857352 2.425927 0.000087 0.000141 0.000186
Al -0.017374 -1.857715 7.501512 -0.000614 -0.000882 0.000152
Al -0.006684 -1.855742 -2.705568 0.000410 0.000060 0.000163
Al -0.021905 1.798827 4.969521 0.000738 -0.000029 -0.000104
Al -0.008718 1.797339 -5.275404 -0.000251 0.000076 -0.000018
Al -0.012297 1.784273 -0.146718 0.000075 0.000336 -0.000080
Al 3.150589 -3.698645 4.945482 -0.000064 0.000702 -0.000174
Al 3.163337 -3.688176 -5.266506 0.000109 0.000164 0.000163
Ga 3.162018 -3.704646 -0.127019 0.000044 0.000552 -0.000374
Ga 1.565250 -0.947169 4.980110 -0.000922 0.000573 0.000549
Al 1.563622 -0.952935 -5.280627 -0.000219 -0.000079 0.000254
Al 1.554461 -0.938194 -0.151349 -0.000400 0.000254 0.000573
Al 3.136281 1.796399 4.973310 0.000074 0.000056 -0.000065
Al 3.131997 1.777832 -5.273595 0.000110 0.000391 0.000641
Ga 3.131957 1.762542 -0.147353 -0.000060 0.000009 -0.000198
Al 6.304514 -3.706389 4.981440 0.000063 -0.000288 -0.000103
Al 6.298598 -3.712469 -5.279016 -0.000034 0.000059 0.000164
Al 6.290775 -3.694405 -0.144298 0.000094 -0.000089 -0.000468
Ga 4.720447 -0.946441 4.961052 -0.000354 0.000294 0.000572
Al 4.708280 -0.951445 -5.269662 0.000048 -0.000022 0.000143
Al 4.730876 -0.943751 -0.134649 -0.000214 -0.000129 0.000180
Al -3.190163 1.794051 4.967145 -0.000034 -0.000193 -0.000234
Ga -3.196926 1.782304 -5.274352 0.000242 -0.000176 0.000787
Al -3.192637 1.773793 -0.131286 0.000019 -0.000184 -0.000272
Al -0.029361 -3.697863 4.971596 0.000466 0.000237 0.000427
Al -0.027684 -3.683269 -5.273181 0.000157 0.000402 0.000105
Ga -0.022353 -3.681519 -0.140920 0.000108 0.000257 0.001756
Al -1.600910 -0.944671 4.986823 0.000210 0.000050 0.000062
Ga -1.587388 -0.956763 -5.262558 -0.000218 -0.000096 0.000750
Al -1.600537 -0.948722 -0.158253 -0.000307 -0.000208 -0.000792
N 1.556363 0.922188 4.339005 -0.000258 0.000099 0.000064
N 1.556642 0.875607 -5.874275 0.000334 0.000085 -0.000472
N 1.514421 0.846991 -0.805537 -0.000212 0.000174 -0.000405
N -0.018645 3.611121 4.350515 0.000149 -0.000001 -0.000168
N -0.025089 3.608751 -5.894291 -0.000151 -0.000161 -0.000126
N 0.018163 3.584282 -0.795966 -0.000208 -0.000423 0.000138
N 3.138187 -1.904472 4.300510 0.000381 -0.001008 -0.000729
N 3.142819 -1.871614 -5.858177 0.000099 -0.000014 -0.000806
N 3.143330 -1.821764 -0.724658 0.000187 -0.000025 -0.000310
N -4.772465 0.926792 4.335965 0.000412 0.000217 -0.000088
N -4.816462 0.851838 -5.900512 0.000224 -0.000239 -0.000493
N -4.730517 0.847017 -0.783770 0.000378 0.000074 0.000096
N -6.357162 3.614515 4.414368 -0.000474 -0.000307 -0.000095
N -6.349150 3.606491 -5.873740 -0.000330 -0.000096 -0.000256
N -6.393742 3.630365 -0.750978 -0.000459 0.000390 0.000369
N -3.142298 -1.890111 4.396390 -0.000318 -0.000202 -0.000807
N -3.224280 -1.891848 -5.830022 -0.000178 0.000275 -0.000285
N -3.191300 -1.870502 -0.707361 -0.000014 0.000369 0.000042
N -1.603586 0.878961 4.402295 -0.000465 -0.000026 -0.000594
N -1.562066 0.899173 -5.913063 0.000435 0.000155 -0.000287
N -1.603601 0.883766 -0.691814 0.000229 -0.000082 -0.000188
N -3.188903 3.613715 4.370352 0.000167 -0.000135 -0.000078
N -3.183024 3.664082 -5.837768 -0.000190 -0.000085 -0.000362
N -3.184609 3.567687 -0.748141 0.000055 -0.000533 0.000370
N -0.061138 -1.881178 4.398287 0.000271 -0.000335 -0.000854
N 0.019991 -1.889218 -5.901754 0.000017 -0.000532 0.000107
N -0.014385 -1.818942 -0.784074 0.000043 -0.000172 0.000023
N 0.025226 1.812961 1.777412 -0.000109 0.000347 0.000525
N -0.016349 1.792063 6.889599 -0.000145 0.000185 -0.000375
N 0.014565 1.808651 -3.353403 0.000127 0.000039 0.000067
N 3.150866 -3.701759 1.859763 -0.001089 -0.000381 0.000122
N 3.188411 -3.656770 6.867693 0.000027 -0.000462 -0.000015
N 3.192189 -3.714783 -3.352812 0.000183 0.000094 0.000114
N 1.594900 -0.921233 1.773572 0.000657 -0.000801 -0.000058
N 1.565314 -0.946146 6.960944 0.001117 0.000351 -0.000423
N 1.520529 -0.931305 -3.357983 -0.000561 -0.000141 -0.000278
N 3.131636 1.736470 1.828147 0.003006 -0.000615 0.000106
N 3.134760 1.788095 6.897232 0.000038 -0.000141 -0.000540
N 3.140543 1.732515 -3.345666 0.000099 -0.000052 -0.000246
N 6.259771 -3.721120 1.767679 0.001232 0.000381 -0.000363
N 6.302999 -3.741248 6.889908 0.000062 0.000024 0.000145
N 6.263582 -3.717856 -3.369523 -0.000296 -0.000130 0.000010
N 4.683146 -0.923128 1.787857 0.001262 0.001030 -0.000672
N 4.675199 -0.924520 6.931370 -0.000039 -0.000419 -0.000278
N 4.725571 -0.904124 -3.358756 -0.000239 -0.000556 -0.000560
N -3.235503 1.813245 1.791657 0.000459 0.000119 -0.000189
N -3.192786 1.745098 6.883256 -0.000480 -0.000120 -0.000100
N -3.228187 1.755445 -3.306434 -0.000180 0.000165 -0.000198
N 0.016989 -3.717177 1.836291 0.000835 -0.000123 -0.001348
N -0.067874 -3.666784 6.883212 0.000361 0.000267 0.000071
N -0.025842 -3.638784 -3.357466 -0.000091 -0.000151 -0.000227
N -1.600605 -0.952541 1.746152 -0.000611 -0.000138 0.000098
N -1.563280 -0.924995 6.894245 -0.000428 0.000266 0.000001
N -1.561618 -0.969798 -3.289761 -0.000450 -0.000122 -0.000003
