108
Energy=-9.401945e+05 Lattice="9.455393e+00 0.000000e+00 0.000000e+00 -4.730331e+00 8.185556e+00 0.000000e+00 -1.158844e-03 6.202671e-04 1.522166e+01" Stress="4.212747e-04 -1.358549e-04 3.817094e-05 -1.434837e-04 -2.787049e-04 1.171593e-04 3.644415e-05 1.094115e-04 1.186486e-03" Properties=species:S:1:pos:R:3:forces:R:3 Config_type=AlGaN_super3_11_1_54.xyz
Al 1.550886e+00 8.738512e-01 2.397373e+00 -1.063921e-04 5.893793e-06 7.840596e-05
Al 1.550239e+00 8.767351e-01 7.447748e+00 2.583281e-05 1.132325e-04 -1.292358e-04
Al 1.542931e+00 8.673001e-01 -2.684561e+00 1.670506e-05 -3.529037e-05 -1.420735e-04
Al -1.153139e-02 3.594590e+00 2.376885e+00 1.645186e-04 -1.952286e-05 4.436227e-05
Al -1.060907e-02 3.587742e+00 7.447760e+00 1.711856e-06 -3.742236e-05 -8.753713e-06
Al -2.420612e-02 3.582618e+00 -2.658818e+00 -1.289236e-05 1.221163e-05 -2.825042e-05
Al 3.140934e+00 -1.845332e+00 2.374243e+00 4.242340e-05 1.671678e-04 -1.224568e-04
Al 3.142947e+00 -1.835965e+00 7.464164e+00 5.808446e-05 -7.223777e-05 -1.688980e-05
Al 3.125317e+00 -1.847334e+00 -2.673073e+00 -4.156147e-05 -5.215051e-05 -9.039661e-06
Al -4.748870e+00 8.607051e-01 2.400589e+00 6.108919e-06 -1.308560e-05 5.555874e-05
Al -4.751625e+00 8.590913e-01 7.443513e+00 -2.605038e-04 -5.710263e-05 6.797222e-05
Al -4.746140e+00 8.689799e-01 -2.683056e+00 3.102916e-05 -1.292357e-04 4.508853e-05
Al -6.348489e+00 3.592390e+00 2.412892e+00 -9.936041e-05 2.989617e-04 1.340887e-04
Al -6.338527e+00 3.592805e+00 7.439985e+00 7.553428e-05 -2.425479e-05 -1.199522e-05
Al -6.325874e+00 3.593869e+00 -2.677661e+00 7.104954e-05 8.432831e-05 -2.047501e-04
Al -3.181788e+00 -1.858233e+00 2.382622e+00 5.976969e-05 -3.740244e-05 -5.156531e-05
Al -3.186829e+00 -1.852127e+00 7.446267e+00 5.316360e-05 -5.033149e-06 -2.160290e-05
Ga -3.176456e+00 -1.851409e+00 -2.667901e+00 -1.940795e-05 2.721689e-05 -2.011404e-05
Al -1.598755e+00 8.718508e-01 2.385406e+00 1.429144e-05 -1.726711e-04 -3.681157e-05
Al -1.599538e+00 8.726629e-01 7.460405e+00 2.630532e-04 -2.462980e-05 1.315029e-04
Al -1.592488e+00 8.780487e-01 -2.685283e+00 -1.799185e-05 -1.169355e-04 -3.881348e-05
Ga -3.164948e+00 3.583554e+00 2.390439e+00 -1.198881e-04 5.251851e-05 -7.537163e-05
Ga -3.183457e+00 3.584151e+00 7.471955e+00 3.589051e-05 6.321002e-06 5.554871e-05
Al -3.175133e+00 3.589269e+00 -2.685155e+00 1.513759e-05 7.456377e-05 8.208624e-05
Ga -2.301169e-02 -1.838193e+00 2.404747e+00 -7.391327e-05 3.297187e-05 7.917270e-05
Ga -2.565715e-02 -1.849801e+00 7.464020e+00 -3.474304e-05 -3.219197e-05 -5.969738e-05
Al -1.459337e-02 -1.848865e+00 -2.697098e+00 5.329895e-05 -4.524814e-05 -8.746353e-06
Al -2.277093e-02 1.770422e+00 4.914907e+00 2.641806e-05 -7.604681e-05 3.077825e-05
Al -3.230505e-02 1.764404e+00 -5.221868e+00 5.212465e-05 3.654613e-05 2.619390e-06
Al -3.244352e-02 1.775568e+00 -1.451400e-01 1.787553e-05 -2.138615e-05 -1.115431e-04
Ga 3.140410e+00 -3.668166e+00 4.930215e+00 4.802975e-05 3.052237e-05 2.950391e-05
Ga 3.132911e+00 -3.671602e+00 -5.206990e+00 8.038195e-05 1.369171e-05 4.573028e-05
Al 3.143496e+00 -3.674112e+00 -1.617999e-01 1.347998e-05 7.068595e-05 -3.812319e-05
Al 1.560491e+00 -9.352193e-01 4.927130e+00 -1.689307e-04 -1.723910e-05 -5.543144e-05
Al 1.553104e+00 -9.442982e-01 -5.213433e+00 -1.012565e-04 2.050675e-04 1.270788e-04
Al 1.555462e+00 -9.435974e-01 -1.592600e-01 1.597588e-05 -2.951488e-05 -8.881680e-05
Al 3.126887e+00 1.777361e+00 4.919169e+00 -3.864536e-05 1.623161e-05 9.079710e-06
Ga 3.134240e+00 1.769639e+00 -5.224103e+00 4.136100e-05 -9.322008e-07 -3.368507e-05
Ga 3.124983e+00 1.769302e+00 -1.399533e-01 3.839967e-05 -7.402318e-05 -1.267329e-04
Al 6.287299e+00 -3.674120e+00 4.920846e+00 -4.360169e-05 -4.069785e-05 -8.316955e-05
Ga 6.285435e+00 -3.673110e+00 -5.230785e+00 1.582545e-05 -2.031050e-05 1.284578e-07
Al 6.271565e+00 -3.676903e+00 -1.310831e-01 -1.759722e-04 7.445104e-05 4.490940e-05
Al 4.708148e+00 -9.432324e-01 4.914673e+00 1.042158e-04 2.437944e-05 2.438841e-05
Al 4.706767e+00 -9.378059e-01 -5.231937e+00 2.907482e-04 -1.920612e-05 1.130668e-04
Al 4.705609e+00 -9.506265e-01 -1.306188e-01 -1.021551e-04 1.318806e-04 -6.257917e-05
Al -3.175462e+00 1.759132e+00 4.927158e+00 -1.877927e-05 -1.600151e-04 -1.919992e-04
Al -3.169478e+00 1.761057e+00 -5.213727e+00 -1.099328e-04 -1.303622e-04 3.523083e-05
Al -3.160503e+00 1.763846e+00 -1.576393e-01 -1.058372e-04 -1.880631e-04 1.524993e-05
Al -3.809893e-02 -3.679809e+00 4.922840e+00 -8.352498e-05 6.237736e-05 -1.541940e-04
Al -2.460774e-02 -3.672953e+00 -5.195946e+00 -3.404941e-05 -1.168903e-04 2.093462e-04
Ga -2.137579e-02 -3.668522e+00 -1.592701e-01 2.716730e-05 3.408481e-05 -7.532965e-05
Al -1.610149e+00 -9.388747e-01 4.924562e+00 1.972489e-04 -1.796381e-04 -1.526654e-04
Al -1.597588e+00 -9.348861e-01 -5.226836e+00 -5.319885e-05 3.084994e-05 9.507720e-05
Al -1.598848e+00 -9.336569e-01 -1.455171e-01 -1.910872e-04 5.987846e-05 -5.527899e-05
N 1.549325e+00 8.704465e-01 4.317024e+00 4.234708e-05 -5.380162e-05 -8.969427e-06
N 1.509653e+00 8.467981e-01 -5.852522e+00 -5.715334e-05 -3.722204e-05 2.222795e-04
N 1.507513e+00 8.498317e-01 -7.732229e-01 -1.146037e-04 6.171616e-05 2.284297e-04
N 1.847744e-02 3.572917e+00 4.294823e+00 4.938504e-05 2.369296e-04 -6.071795e-05
N -2.329671e-02 3.545772e+00 -5.867419e+00 4.505471e-06 2.926583e-06 1.975589e-05
N -1.873869e-02 3.591839e+00 -7.401626e-01 -1.967687e-05 -1.823199e-05 6.429217e-05
N 3.128855e+00 -1.807608e+00 4.287407e+00 -9.642352e-05 -7.876671e-05 -8.964381e-05
N 3.129475e+00 -1.805544e+00 -5.843069e+00 -2.340308e-05 -1.632214e-04 -1.445542e-04
N 3.133298e+00 -1.850408e+00 -7.518169e-01 -8.163715e-05 -4.039007e-05 3.732939e-05
N -4.749849e+00 8.698207e-01 4.319840e+00 5.845716e-05 -3.030079e-05 2.917116e-05
N -4.707473e+00 8.482731e-01 -5.860452e+00 1.738128e-04 9.278800e-05 1.073457e-04
N -4.708374e+00 8.413135e-01 -7.702932e-01 3.447474e-06 1.822156e-04 9.091440e-05
N -6.335111e+00 3.597644e+00 4.326044e+00 1.961500e-05 -2.913718e-05 5.529713e-05
N -6.282237e+00 3.620735e+00 -5.871149e+00 -6.693543e-05 8.314374e-06 -1.208620e-04
N -6.372854e+00 3.620337e+00 -7.804096e-01 1.706808e-04 -6.023847e-05 5.428204e-05
N -3.175499e+00 -1.858192e+00 4.310309e+00 3.619288e-05 -3.170595e-05 5.832087e-05
N -3.174383e+00 -1.808609e+00 -5.853562e+00 -6.830511e-05 6.426479e-05 4.758102e-05
N -3.175304e+00 -1.856875e+00 -6.885661e-01 2.177687e-04 -2.792898e-05 -1.234550e-04
N -1.598803e+00 8.722262e-01 4.305262e+00 4.546856e-05 -9.412801e-05 5.205613e-05
N -1.598408e+00 8.729302e-01 -5.836572e+00 -8.195816e-06 3.184586e-05 3.087416e-06
N -1.594365e+00 8.708102e-01 -7.651157e-01 -1.986238e-05 4.536666e-06 4.238347e-05
N -3.211820e+00 3.571079e+00 4.361390e+00 1.740092e-05 1.395029e-04 -1.092425e-06
N -3.219118e+00 3.572097e+00 -5.773586e+00 7.826882e-05 -5.777538e-05 -1.136530e-04
N -3.133659e+00 3.570302e+00 -7.663350e-01 -8.041143e-05 6.928872e-06 -2.554297e-04
N -2.161398e-02 -1.849801e+00 4.382264e+00 -1.047504e-04 1.601467e-04 1.171715e-04
N -2.037160e-02 -1.859368e+00 -5.770748e+00 -2.951791e-05 -1.378426e-05 -1.918932e-04
N -2.398648e-02 -1.803937e+00 -7.783617e-01 1.378393e-04 -9.179533e-05 -1.147726e-04
N -2.327955e-02 1.775379e+00 1.779175e+00 -1.253421e-05 2.864869e-05 7.610242e-06
N -2.773229e-02 1.775121e+00 6.837215e+00 -2.541976e-06 2.518377e-05 4.299294e-05
N -2.396637e-02 1.781575e+00 -3.296906e+00 -1.629332e-05 -1.076954e-05 -2.741120e-05
N 3.174715e+00 -3.652247e+00 1.761285e+00 -1.400660e-04 -1.773473e-05 5.389123e-05
N 3.170763e+00 -3.649185e+00 6.903051e+00 -1.310416e-05 1.521620e-04 -4.565446e-05
N 3.138316e+00 -3.674144e+00 -3.223403e+00 6.891231e-06 3.966237e-05 1.028848e-05
N 1.593827e+00 -9.209345e-01 1.756458e+00 8.509963e-05 -2.488585e-05 1.537602e-04
N 1.597227e+00 -9.236801e-01 6.837207e+00 1.008861e-05 -1.243478e-04 6.673118e-05
N 1.560422e+00 -9.463518e-01 -3.293355e+00 -2.567236e-05 6.320872e-05 3.522562e-05
N 3.130031e+00 1.778810e+00 1.843967e+00 2.912465e-05 -2.196466e-04 -6.922156e-05
N 3.127070e+00 1.776159e+00 6.848152e+00 3.243124e-05 -1.159893e-05 -1.526672e-05
N 3.128722e+00 1.775786e+00 -3.239428e+00 4.810867e-05 -5.499786e-05 -4.772299e-05
N 6.285395e+00 -3.679005e+00 1.787481e+00 -4.640694e-05 -1.234624e-05 1.757336e-04
N 6.279299e+00 -3.673545e+00 6.846079e+00 3.094003e-05 3.601484e-05 2.033237e-05
N 6.277961e+00 -3.723621e+00 -3.260072e+00 -1.202699e-04 5.076418e-05 -2.279470e-05
N 4.706298e+00 -9.440802e-01 1.785063e+00 -4.371821e-05 1.233523e-05 1.347769e-04
N 4.703423e+00 -9.498073e-01 6.834819e+00 2.655336e-05 -3.089701e-05 3.379228e-06
N 4.664592e+00 -9.264947e-01 -3.315497e+00 2.775576e-05 6.300360e-05 -1.785110e-04
N -3.176208e+00 1.726224e+00 1.757362e+00 8.527470e-05 2.021001e-05 -4.884706e-05
N -3.173126e+00 1.726613e+00 6.835348e+00 3.649824e-05 1.612801e-04 -5.106497e-05
N -3.173181e+00 1.771724e+00 -3.291914e+00 -1.945249e-05 -2.988383e-07 1.972509e-05
N -6.516431e-02 -3.698048e+00 1.806159e+00 1.494908e-04 -1.157923e-04 8.750459e-05
N -6.274967e-02 -3.698401e+00 6.820021e+00 -6.014459e-05 -3.094610e-05 1.833833e-04
N -2.359828e-02 -3.678434e+00 -3.273813e+00 -5.141224e-06 -5.440002e-07 9.813921e-05
N -1.636697e+00 -9.229173e-01 1.768282e+00 -7.677357e-05 1.614610e-04 1.487582e-04
N -1.642515e+00 -9.206868e-01 6.838488e+00 -1.630873e-04 -1.150470e-04 -5.082217e-05
N -1.562928e+00 -9.212098e-01 -3.310816e+00 -5.059434e-05 7.493592e-05 -2.982802e-05
