108
Energy=-1.443725e+06 Lattice="9.516636e+00 0.000000e+00 0.000000e+00 -4.758876e+00 8.240834e+00 0.000000e+00 7.024548e-05 -3.345910e-03 1.536171e+01" Stress="1.464331e-04 -3.485132e-05 1.716394e-05 -4.562339e-05 1.147851e-04 -5.966358e-05 7.176492e-06 -5.684365e-05 -3.137293e-04" Properties=species:S:1:pos:R:3:forces:R:3 Config_type=AlGaN_super3_22_2_23.xyz
Al 1.580890e+00 8.695570e-01 2.429228e+00 -5.214889e-04 -4.937916e-04 -3.384922e-04
Al 1.565850e+00 8.816984e-01 7.534227e+00 -3.524828e-04 6.266962e-04 -3.821128e-04
Al 1.563221e+00 8.959416e-01 -2.727319e+00 -7.122132e-05 -9.479876e-05 -8.124306e-05
Al -3.572987e-02 3.624229e+00 2.407866e+00 -1.066388e-04 6.307027e-05 1.383197e-04
Al -1.585784e-02 3.620988e+00 7.575610e+00 4.372236e-04 -4.876549e-05 -2.039793e-04
Al -2.012521e-02 3.624537e+00 -2.750909e+00 8.874926e-05 -1.054196e-04 -2.293590e-05
Al 3.135212e+00 -1.880535e+00 2.403793e+00 -1.612714e-04 -1.009606e-04 3.646714e-04
Al 3.155451e+00 -1.871263e+00 7.550879e+00 1.377692e-04 -1.933957e-05 -2.486981e-04
Ga 3.152832e+00 -1.886222e+00 -2.714744e+00 -3.830372e-05 -1.237567e-04 2.884493e-04
Al -4.795476e+00 8.910635e-01 2.414665e+00 2.890467e-04 -4.372897e-05 -5.149607e-04
Ga -4.786988e+00 8.756524e-01 7.552361e+00 5.822616e-06 -1.044585e-04 1.294148e-04
Ga -4.788468e+00 8.888448e-01 -2.730523e+00 2.791082e-04 5.461723e-05 5.350190e-05
Ga -6.368999e+00 3.601222e+00 2.406984e+00 9.093351e-05 2.101988e-04 1.280069e-04
Al -6.382686e+00 3.613059e+00 7.564422e+00 1.091959e-05 2.838592e-04 -9.060680e-05
Al -6.372645e+00 3.626182e+00 -2.738976e+00 1.408576e-04 -1.983694e-05 -6.588990e-05
Ga -3.195645e+00 -1.875519e+00 2.434617e+00 -1.280223e-04 3.227053e-05 5.219603e-05
Al -3.199105e+00 -1.880021e+00 7.548291e+00 8.362053e-05 2.309953e-05 -4.364171e-04
Al -3.194159e+00 -1.886796e+00 -2.739973e+00 8.220503e-06 -7.339343e-05 2.929665e-04
Ga -1.615756e+00 8.840062e-01 2.419642e+00 1.625960e-04 -1.094725e-04 -1.448576e-04
Al -1.606808e+00 8.801028e-01 7.538168e+00 -2.083468e-04 1.363870e-05 -4.518039e-05
Ga -1.601213e+00 8.894888e-01 -2.716075e+00 1.378896e-04 -7.999743e-05 -1.828009e-05
Al -3.184632e+00 3.621518e+00 2.403241e+00 1.091948e-04 -6.622539e-05 -9.926486e-05
Ga -3.187491e+00 3.617618e+00 7.560994e+00 -2.150666e-05 5.936067e-05 -9.701198e-05
Al -3.191943e+00 3.630100e+00 -2.727632e+00 2.362892e-04 -1.769718e-04 -1.610797e-04
Al -5.441113e-03 -1.863955e+00 2.443526e+00 1.311202e-04 9.329336e-05 6.541202e-05
Ga -2.239313e-02 -1.863342e+00 7.533506e+00 1.280571e-04 -1.946351e-04 1.286273e-04
Al -2.395515e-02 -1.882781e+00 -2.733609e+00 9.311723e-05 -1.241906e-04 1.484299e-04
Ga -1.657252e-02 1.779542e+00 4.988971e+00 -1.666886e-04 2.684605e-04 3.566111e-04
Al -1.818112e-02 1.807347e+00 -5.285784e+00 3.155438e-04 -5.706628e-05 -7.536066e-05
Ga -1.316660e-02 1.807034e+00 -1.472957e-01 -1.938062e-04 1.283082e-05 -5.986570e-05
Ga 3.145761e+00 -3.703844e+00 4.979711e+00 -1.234276e-04 3.759122e-05 3.578652e-04
Al 3.156460e+00 -3.708771e+00 -5.271458e+00 -1.088819e-04 6.959832e-05 -3.173596e-04
Al 3.146801e+00 -3.722902e+00 -1.517814e-01 -3.948029e-05 1.046233e-04 1.353920e-04
Al 1.568946e+00 -9.461808e-01 4.970680e+00 9.366019e-05 -1.660665e-04 2.759277e-04
Ga 1.577646e+00 -9.437026e-01 -5.266815e+00 -6.521674e-05 1.849536e-04 2.734113e-04
Ga 1.563542e+00 -9.484663e-01 -1.420988e-01 -3.319649e-04 2.244619e-04 2.693145e-04
Al 3.151682e+00 1.778962e+00 4.988243e+00 2.023739e-04 4.196545e-04 5.209465e-04
Al 3.143201e+00 1.804692e+00 -5.273005e+00 6.061112e-05 -2.843145e-05 -3.445691e-05
Al 3.151476e+00 1.789298e+00 -1.602598e-01 1.199739e-05 2.816238e-05 -1.630550e-04
Ga 6.324831e+00 -3.713162e+00 5.014293e+00 4.657703e-05 -1.174267e-04 2.919109e-04
Al 6.319254e+00 -3.707522e+00 -5.275672e+00 1.606269e-04 6.211142e-05 3.835788e-05
Ga 6.310592e+00 -3.711948e+00 -1.826300e-01 5.476338e-05 2.059010e-05 7.899738e-05
Ga 4.725262e+00 -9.397491e-01 4.977505e+00 -1.104472e-04 -2.228115e-04 1.347917e-04
Al 4.737726e+00 -9.616059e-01 -5.280729e+00 -7.393341e-05 2.331664e-04 -6.042886e-04
Ga 4.736562e+00 -9.443506e-01 -1.341922e-01 -1.920104e-04 1.302392e-04 2.164505e-04
Al -3.202589e+00 1.784606e+00 4.972602e+00 -6.742847e-04 6.624435e-04 1.684613e-04
Al -3.193295e+00 1.803710e+00 -5.267273e+00 -5.670244e-04 -1.875980e-04 3.957070e-04
Al -3.208175e+00 1.811299e+00 -1.494656e-01 6.626568e-05 -2.893901e-05 1.653553e-04
Ga -2.027849e-02 -3.708568e+00 4.967332e+00 1.191816e-04 -1.204671e-04 1.591092e-04
Al -2.626848e-02 -3.721887e+00 -5.249495e+00 -9.130895e-05 -1.158343e-04 1.685619e-04
Ga -8.847036e-03 -3.713472e+00 -1.606445e-01 5.101160e-05 2.202570e-05 2.446433e-04
Al -1.603474e+00 -9.455826e-01 5.002285e+00 3.207325e-05 -2.441190e-04 2.297233e-04
Ga -1.624422e+00 -9.493453e-01 -5.271338e+00 -9.566482e-05 7.493670e-05 1.664369e-04
Ga -1.607837e+00 -9.585528e-01 -1.622198e-01 -1.190154e-04 -1.443109e-04 1.965352e-04
N 1.610225e+00 8.547589e-01 4.351446e+00 -4.958513e-05 8.941488e-06 -3.335181e-05
N 1.566961e+00 9.254261e-01 -5.914186e+00 -1.660702e-04 9.060971e-05 5.587918e-04
N 1.603647e+00 9.024857e-01 -8.111038e-01 2.759502e-05 -7.840116e-05 -2.729761e-04
N -2.157894e-02 3.621982e+00 4.315114e+00 6.705943e-05 -6.760581e-05 -2.935930e-04
N -2.234555e-02 3.626744e+00 -5.870370e+00 -1.721872e-05 -1.474776e-05 -6.472874e-05
N -7.047296e-02 3.644471e+00 -8.326905e-01 -2.472521e-05 -5.492847e-05 -3.556761e-05
N 3.106523e+00 -1.855466e+00 4.320477e+00 3.022280e-05 1.298329e-04 -1.910594e-04
N 3.186407e+00 -1.894139e+00 -5.895312e+00 1.522872e-04 -1.356328e-04 3.542975e-04
N 3.151699e+00 -1.922146e+00 -7.385015e-01 1.661840e-04 -2.101399e-04 -1.526146e-04
N -4.785866e+00 9.298623e-01 4.341510e+00 1.160156e-04 -1.380806e-04 4.889741e-04
N -4.783003e+00 8.807581e-01 -5.824851e+00 1.280928e-04 4.004333e-04 -3.311265e-05
N -4.781219e+00 9.243364e-01 -7.471815e-01 9.134593e-05 4.713446e-05 -2.231069e-04
N -6.373819e+00 3.567493e+00 4.375661e+00 -3.713443e-05 1.371772e-05 -1.733540e-04
N -6.365307e+00 3.624098e+00 -5.872188e+00 2.486211e-05 5.081900e-05 -1.394311e-04
N -6.364431e+00 3.574743e+00 -8.150216e-01 -1.873632e-05 -3.049562e-05 8.141974e-05
N -3.151996e+00 -1.853673e+00 4.403254e+00 1.066267e-04 1.662536e-04 -9.010331e-05
N -3.234372e+00 -1.894344e+00 -5.902446e+00 1.580879e-05 -4.169276e-04 5.737398e-04
N -3.202225e+00 -1.868641e+00 -8.307610e-01 5.085680e-06 6.998163e-05 -1.390320e-04
N -1.652025e+00 8.535475e-01 4.399656e+00 5.265026e-04 -4.317141e-04 -1.816170e-04
N -1.611685e+00 9.295774e-01 -5.900676e+00 2.323395e-04 -3.238239e-04 -3.375387e-04
N -1.650616e+00 9.085477e-01 -7.409413e-01 1.664019e-04 4.214773e-05 7.007773e-05
N -3.188663e+00 3.571437e+00 4.318931e+00 3.239026e-06 -4.198065e-06 7.384581e-05
N -3.197254e+00 3.626700e+00 -5.826173e+00 -1.532663e-05 3.331424e-05 -9.950448e-05
N -3.151364e+00 3.600663e+00 -7.994515e-01 3.246306e-06 -2.860035e-05 -4.921918e-05
N -2.277779e-02 -1.818813e+00 4.369649e+00 -1.256338e-04 6.577873e-05 -1.474003e-04
N -2.052785e-02 -1.918383e+00 -5.859441e+00 7.901894e-05 5.361062e-05 -1.488760e-04
N -1.752037e-02 -1.874064e+00 -8.292647e-01 1.081095e-04 -6.344402e-05 -8.510389e-05
N 2.611932e-02 1.810967e+00 1.837003e+00 -1.060750e-04 1.648011e-04 1.827818e-04
N -2.285955e-02 1.796000e+00 6.979013e+00 6.265971e-04 -2.037821e-04 9.510867e-06
N 1.996208e-02 1.813374e+00 -3.364302e+00 -7.238081e-05 2.676680e-04 6.803942e-06
N 3.149637e+00 -3.710179e+00 1.783720e+00 3.874208e-05 5.054899e-05 -2.510546e-04
N 3.194970e+00 -3.682472e+00 6.962390e+00 -1.872439e-04 1.360655e-04 -1.572801e-05
N 3.150058e+00 -3.747679e+00 -3.361713e+00 -1.939257e-04 -3.351413e-05 1.847217e-04
N 1.558160e+00 -9.516941e-01 1.847658e+00 1.553757e-06 -1.491181e-04 -3.242287e-04
N 1.611957e+00 -9.303897e-01 6.903079e+00 -3.423037e-05 -2.691670e-04 -2.967699e-04
N 1.529208e+00 -9.251579e-01 -3.293977e+00 4.649725e-06 9.993260e-05 -9.479382e-05
N 3.142576e+00 1.738399e+00 1.759369e+00 4.264559e-04 2.568656e-04 2.091357e-04
N 3.109748e+00 1.815364e+00 6.911305e+00 1.442403e-05 -1.813986e-04 -5.117258e-04
N 3.105403e+00 1.819088e+00 -3.362095e+00 -2.378569e-04 -2.107803e-04 -4.276075e-05
N 6.279480e+00 -3.726815e+00 1.792453e+00 -3.054607e-05 -6.992242e-05 -1.760673e-04
N 6.320270e+00 -3.710378e+00 6.997728e+00 -2.474633e-04 -8.698709e-05 1.490136e-04
N 6.323303e+00 -3.702908e+00 -3.345669e+00 1.941930e-05 6.504267e-05 -1.819435e-04
N 4.696925e+00 -9.307224e-01 1.848527e+00 -1.145997e-05 8.873495e-05 -7.068134e-05
N 4.733068e+00 -1.000121e+00 6.958136e+00 -9.754153e-05 6.776984e-05 -1.857428e-04
N 4.773943e+00 -9.772721e-01 -3.369992e+00 -9.154315e-05 -1.116928e-04 1.326177e-04
N -3.242452e+00 1.816782e+00 1.773035e+00 -5.127574e-05 1.110212e-04 -9.799055e-06
N -3.160112e+00 1.770460e+00 6.887731e+00 -9.025659e-05 -1.343223e-04 5.340489e-05
N -3.192439e+00 1.840097e+00 -3.365472e+00 -7.425167e-05 1.143622e-04 8.431140e-05
N 1.898302e-02 -3.673673e+00 1.832874e+00 -1.846039e-05 -1.029920e-05 -1.449328e-04
N -6.373979e-02 -3.733160e+00 6.939533e+00 -1.764063e-04 3.527948e-05 -8.288144e-05
N -2.210122e-02 -3.707552e+00 -3.324918e+00 2.132756e-06 8.439985e-05 -9.206559e-05
N -1.563532e+00 -9.843077e-01 1.811057e+00 -6.207969e-05 5.877032e-05 -2.240307e-04
N -1.651093e+00 -9.307859e-01 6.923058e+00 1.214134e-05 1.099075e-04 7.891910e-05
N -1.610003e+00 -9.953555e-01 -3.299380e+00 -1.815152e-04 -2.716109e-05 -1.249790e-04
