108
Energy=-1.809929e+06 Lattice="9.564131e+00 0.000000e+00 0.000000e+00 -4.791791e+00 8.279474e+00 0.000000e+00 -8.904724e-03 1.298892e-02 1.546585e+01" Stress="-2.402482e-04 -2.930469e-04 -2.476359e-04 -3.032444e-04 -9.321442e-05 3.700100e-04 -2.622338e-04 3.646727e-04 3.139471e-04" Properties=species:S:1:pos:R:3:forces:R:3 Config_type=AlGaN_super3_30_1_38.xyz
Al 1.577673e+00 8.972603e-01 2.439733e+00 1.779782e-04 -6.135182e-04 7.969567e-04
Al 1.575938e+00 8.913540e-01 7.579677e+00 8.327944e-04 3.282511e-04 2.757674e-04
Ga 1.568610e+00 8.704449e-01 -2.728348e+00 4.239794e-04 -2.618057e-04 9.309755e-05
Al -2.991964e-02 3.639590e+00 2.445768e+00 -2.389854e-04 1.326082e-03 -2.171545e-03
Al -1.778855e-02 3.656644e+00 7.569638e+00 4.449251e-04 2.440716e-05 9.428018e-04
Ga -1.867599e-02 3.635979e+00 -2.724268e+00 3.953160e-04 -1.770148e-04 6.515206e-04
Al 3.186855e+00 -1.889903e+00 2.446079e+00 -1.199192e-03 2.934542e-03 -5.088393e-03
Ga 3.174375e+00 -1.870831e+00 7.578280e+00 1.537993e-04 2.587005e-05 5.764008e-04
Al 3.172949e+00 -1.882263e+00 -2.723965e+00 5.365035e-05 1.029747e-04 1.108958e-03
Al -4.828228e+00 8.769196e-01 2.427095e+00 9.229661e-04 -3.326269e-04 4.344740e-04
Al -4.820234e+00 8.866717e-01 7.582720e+00 -3.270938e-04 3.228922e-04 4.121938e-04
Ga -4.802902e+00 8.744560e-01 -2.722593e+00 5.991043e-04 -1.767336e-04 4.492350e-04
Al -6.419111e+00 3.622027e+00 2.467894e+00 2.279685e-04 4.145444e-04 -5.181725e-04
Ga -6.432642e+00 3.639154e+00 7.575012e+00 -5.778167e-04 -4.629132e-04 6.022440e-04
Al -6.405582e+00 3.642280e+00 -2.756110e+00 7.972310e-05 2.358537e-04 3.574548e-04
Ga -3.219023e+00 -1.875402e+00 2.437827e+00 5.332682e-04 9.180113e-04 1.272023e-03
Al -3.209759e+00 -1.879505e+00 7.576147e+00 1.404523e-04 -7.029363e-04 -5.215606e-05
Ga -3.206951e+00 -1.887741e+00 -2.733212e+00 2.753218e-04 -7.551797e-05 9.864086e-04
Al -1.616725e+00 8.869816e-01 2.461986e+00 1.497557e-04 -2.770772e-04 1.450851e-04
Ga -1.635174e+00 8.834178e-01 7.586895e+00 1.119362e-03 -5.322671e-04 1.194339e-04
Al -1.625398e+00 8.773324e-01 -2.759432e+00 4.031861e-04 -4.426851e-04 7.100101e-04
Ga -3.201023e+00 3.644818e+00 2.428507e+00 8.367507e-04 1.048955e-04 2.253741e-04
Ga -3.215758e+00 3.641429e+00 7.595709e+00 5.247266e-04 -6.451962e-05 2.563936e-04
Ga -3.216785e+00 3.634074e+00 -2.730710e+00 1.027089e-04 -4.205179e-04 4.287054e-04
Ga -1.959224e-02 -1.858886e+00 2.444271e+00 2.964068e-05 -1.467362e-04 4.100755e-04
Ga -3.468084e-02 -1.854231e+00 7.608084e+00 6.266887e-04 -2.141924e-04 3.515264e-04
Ga -1.649526e-02 -1.879351e+00 -2.756903e+00 3.526432e-04 -4.304991e-04 2.177016e-04
Ga -1.580622e-02 1.818974e+00 5.003995e+00 -9.129931e-04 -9.308739e-04 1.001542e-03
Ga -2.241384e-02 1.788402e+00 -5.329116e+00 -4.813297e-04 6.296528e-04 4.922525e-04
Ga -4.275107e-02 1.796716e+00 -1.161153e-01 -4.712854e-04 7.254283e-04 -1.043018e-03
Al 3.186733e+00 -3.714426e+00 5.007586e+00 -6.314517e-04 1.021841e-03 6.352610e-04
Ga 3.174015e+00 -3.724623e+00 -5.304159e+00 -2.173986e-04 2.682945e-05 9.195191e-04
Al 3.183060e+00 -3.703441e+00 -1.481725e-01 -2.089178e-04 1.757588e-04 1.030235e-03
Ga 1.579737e+00 -9.475039e-01 4.998130e+00 -6.737360e-04 4.602105e-04 7.368638e-05
Al 1.573845e+00 -9.691631e-01 -5.306523e+00 -5.936537e-04 5.510763e-04 4.545252e-04
Ga 1.604813e+00 -9.771795e-01 -1.256223e-01 -8.080484e-04 6.708147e-04 2.999106e-04
Al 3.160261e+00 1.808951e+00 4.990273e+00 -2.103709e-03 -2.581565e-03 5.144674e-03
Ga 3.169875e+00 1.800893e+00 -5.317143e+00 -2.156795e-04 -1.857575e-05 6.364446e-04
Ga 3.164743e+00 1.805160e+00 -1.292012e-01 3.180263e-04 2.863490e-04 2.253584e-04
Al 6.343562e+00 -3.736860e+00 4.992712e+00 1.843105e-03 9.222183e-03 4.720219e-03
Al 6.372472e+00 -3.715139e+00 -5.324231e+00 -3.110927e-04 1.307138e-05 8.143838e-04
Ga 6.354878e+00 -3.727339e+00 -1.264342e-01 2.745583e-04 3.845227e-04 4.297095e-05
Ga 4.768706e+00 -9.566859e-01 5.014900e+00 -1.537374e-04 -2.139705e-04 4.961861e-04
Ga 4.778263e+00 -9.660355e-01 -5.324953e+00 -3.002304e-04 2.676387e-04 5.543615e-04
Al 4.748374e+00 -9.723536e-01 -1.359022e-01 -6.992854e-04 4.255631e-05 7.039041e-04
Ga -3.227763e+00 1.801605e+00 4.994711e+00 1.201257e-05 1.045568e-05 8.944213e-04
Al -3.217103e+00 1.791292e+00 -5.308833e+00 -5.221857e-05 1.578193e-04 6.196461e-04
Ga -3.203152e+00 1.788248e+00 -1.279582e-01 -8.772464e-04 4.492278e-04 5.257607e-04
Ga -4.032197e-02 -3.711528e+00 5.006847e+00 4.823675e-04 2.757568e-04 2.877514e-04
Al -2.536491e-02 -3.718922e+00 -5.302759e+00 7.870640e-05 1.746599e-04 -1.441834e-04
Ga -2.646846e-02 -3.726944e+00 -1.399592e-01 -3.731602e-05 3.744209e-05 3.108389e-04
Al -1.625523e+00 -9.528579e-01 5.018610e+00 -6.831777e-04 -7.006214e-04 1.150360e-03
Al -1.615219e+00 -9.705562e-01 -5.310096e+00 -5.635400e-04 9.536512e-05 2.909455e-04
Ga -1.621727e+00 -9.467517e-01 -1.503817e-01 -5.206709e-04 2.692370e-04 3.707634e-04
N 1.607343e+00 9.148191e-01 4.353395e+00 2.846764e-04 -7.900595e-05 -9.713865e-04
N 1.576199e+00 8.262971e-01 -5.965920e+00 4.682998e-04 -4.941070e-04 -6.695909e-04
N 1.563545e+00 8.765697e-01 -7.542094e-01 3.195416e-04 -2.637583e-04 2.883576e-04
N -2.893035e-02 3.699614e+00 4.369504e+00 -3.228284e-03 -2.588465e-03 -2.501687e-03
N 1.881011e-02 3.663464e+00 -5.971468e+00 3.103357e-04 8.111869e-05 -8.015730e-04
N -6.321612e-02 3.655383e+00 -7.447304e-01 -1.687320e-04 1.110517e-05 -4.926840e-04
N 3.173069e+00 -1.922254e+00 4.352794e+00 7.323139e-04 -1.498827e-03 2.756401e-03
N 3.130763e+00 -1.864180e+00 -5.921826e+00 9.436509e-05 -7.661582e-05 -6.628477e-04
N 3.210925e+00 -1.903535e+00 -7.916653e-01 7.135627e-04 -3.728509e-04 -1.011457e-03
N -4.860601e+00 9.032987e-01 4.347897e+00 1.466020e-03 -1.148356e-04 -1.937187e-03
N -4.767854e+00 9.017757e-01 -5.966150e+00 6.772342e-04 -1.279716e-04 -6.577009e-04
N -4.807700e+00 8.323637e-01 -7.395821e-01 4.261442e-04 -4.273215e-04 -4.765900e-04
N -6.460614e+00 3.612890e+00 4.388114e+00 2.875010e-03 1.164182e-03 -5.661285e-04
N -6.403226e+00 3.681601e+00 -5.910920e+00 1.973233e-04 3.422560e-04 -1.766206e-04
N -6.407909e+00 3.639577e+00 -8.377142e-01 -2.981092e-04 -3.012570e-06 -6.867016e-05
N -3.167018e+00 -1.893526e+00 4.423569e+00 -9.979503e-04 -3.931374e-03 -1.337158e-03
N -3.159089e+00 -1.910604e+00 -5.956742e+00 5.841061e-04 -1.345408e-04 -8.484128e-04
N -3.250134e+00 -1.863534e+00 -7.441581e-01 -1.325965e-04 5.333424e-06 -7.471521e-04
N -1.622084e+00 8.430658e-01 4.376450e+00 1.335777e-03 -4.726379e-05 -6.531857e-04
N -1.664000e+00 8.503419e-01 -5.901905e+00 4.428448e-04 -4.738709e-04 -1.859550e-04
N -1.623010e+00 8.844357e-01 -8.423279e-01 1.037610e-03 -2.976749e-04 -2.377374e-04
N -3.175765e+00 3.678017e+00 4.406467e+00 3.605592e-04 -8.423968e-05 -6.303622e-04
N -3.253513e+00 3.614617e+00 -5.884866e+00 -9.167475e-05 -3.973667e-04 -3.539065e-04
N -3.175484e+00 3.661255e+00 -7.390999e-01 5.620973e-04 -2.500039e-04 -2.843462e-04
N -6.702457e-02 -1.841290e+00 4.414203e+00 5.100903e-04 -8.202170e-04 -8.901537e-04
N -1.910544e-02 -1.878544e+00 -5.864254e+00 2.585729e-04 -5.379001e-04 -1.479296e-06
N -1.582557e-02 -1.877113e+00 -7.744744e-01 5.694485e-04 -2.031717e-04 -1.253351e-04
N -3.202412e-02 1.800651e+00 1.877929e+00 5.583400e-06 1.313144e-04 1.447197e-03
N 1.268216e-02 1.829420e+00 6.998681e+00 -5.392197e-04 5.568773e-04 -5.844788e-04
N -5.938191e-02 1.773265e+00 -3.349693e+00 -4.250964e-04 4.674183e-04 -5.271639e-04
N 3.218193e+00 -3.691655e+00 1.777721e+00 4.907974e-04 -1.899657e-04 2.115245e-03
N 3.208346e+00 -3.739134e+00 6.929587e+00 -1.126250e-04 -1.060758e-04 -1.055075e-03
N 3.177600e+00 -3.679313e+00 -3.330158e+00 -4.616203e-04 4.958582e-04 -4.718089e-04
N 1.626708e+00 -9.316127e-01 1.859251e+00 2.577044e-04 -1.461343e-03 5.017803e-04
N 1.571858e+00 -9.075649e-01 6.971992e+00 -7.963542e-04 1.875504e-04 -5.804794e-04
N 1.626711e+00 -9.873002e-01 -3.385963e+00 -3.589254e-04 3.153730e-04 -5.430410e-04
N 3.161418e+00 1.811732e+00 1.859028e+00 -1.883464e-04 6.318252e-05 -3.006140e-04
N 3.158723e+00 1.757678e+00 6.940094e+00 2.465319e-04 1.021252e-04 -3.077638e-03
N 3.165051e+00 1.837547e+00 -3.340410e+00 -1.895917e-04 2.674567e-04 -2.927896e-04
N 6.363987e+00 -3.769868e+00 1.855854e+00 -9.786583e-04 -6.545990e-04 6.500131e-04
N 6.310433e+00 -3.688155e+00 6.930838e+00 -2.110462e-04 -5.440874e-04 -2.643888e-03
N 6.395364e+00 -3.744646e+00 -3.398416e+00 9.843157e-05 -1.692601e-04 -9.526190e-04
N 4.716480e+00 -9.360577e-01 1.792558e+00 -1.157819e-04 -8.745354e-04 1.126971e-03
N 4.802867e+00 -9.265828e-01 7.001091e+00 -1.001976e-04 -1.353051e-04 -5.526527e-04
N 4.726866e+00 -9.877133e-01 -3.345208e+00 -7.224813e-04 6.466166e-05 -9.092124e-04
N -3.211852e+00 1.750530e+00 1.860066e+00 -2.151904e-04 -3.868416e-04 -2.467200e-04
N -3.263418e+00 1.784587e+00 6.969292e+00 -3.987653e-04 -6.227319e-05 -8.759566e-04
N -3.179223e+00 1.773150e+00 -3.388210e+00 -1.771772e-04 3.170297e-04 -7.190820e-04
N -6.897996e-02 -3.741626e+00 1.845177e+00 -7.928584e-04 -3.522335e-04 -2.290838e-04
N -2.678290e-02 -3.707851e+00 6.974149e+00 2.677604e-05 -1.915892e-05 -6.052601e-04
N -5.530297e-02 -3.748436e+00 -3.386505e+00 -2.064224e-04 -1.122897e-05 -3.282052e-04
N -1.616015e+00 -9.010884e-01 1.821810e+00 -6.151916e-04 6.212668e-05 -4.992646e-04
N -1.657428e+00 -9.745298e-01 6.935085e+00 -8.315970e-04 3.847320e-04 -5.965186e-04
N -1.618228e+00 -9.200308e-01 -3.391562e+00 -5.529443e-04 2.625489e-04 -5.074028e-04
