108
Energy=-2.496554e+06 Lattice="9.476278e+00 0.000000e+00 0.000000e+00 -4.738139e+00 8.206697e+00 0.000000e+00 9.377101e-16 1.624162e-15 1.531397e+01" Stress="-8.802788e-02 7.251920e-03 1.129629e-04 7.246363e-03 -8.093862e-02 -3.547371e-04 1.092063e-04 -3.544316e-04 -8.121187e-02" Properties=species:S:1:pos:R:3:forces:R:3 Config_type=AlGaN_super3_45_1_0.xyz
Al 1.564294e+00 9.031460e-01 2.504900e+00 -1.563477e-03 -1.458389e-02 -1.301417e-02
Al 1.564294e+00 9.031460e-01 7.521855e+00 -1.663862e-03 -1.461877e-02 -5.028633e-03
Ga 1.564294e+00 9.031460e-01 -2.775158e+00 -2.126505e-03 -1.868335e-02 -6.237810e-03
Al 2.938992e-08 3.612582e+00 2.504900e+00 -3.049768e-03 -1.791217e-03 -1.154687e-02
Ga 2.938992e-08 3.612582e+00 7.521855e+00 -2.805065e-03 -1.796236e-03 -2.784575e-03
Al 2.938992e-08 3.612582e+00 -2.775158e+00 -3.461337e-03 -1.178841e-03 -3.372727e-03
Ga 3.173845e+00 -1.884678e+00 2.504900e+00 -3.476390e-03 1.496804e-03 -1.427933e-02
Ga 3.173845e+00 -1.884678e+00 7.521855e+00 -3.354813e-03 1.934854e-03 -3.428970e-03
Al 3.173845e+00 -1.884678e+00 -2.775158e+00 -2.874066e-03 1.690255e-03 -5.009081e-03
Ga -4.783396e+00 9.031460e-01 2.504900e+00 3.243257e-04 -1.724487e-02 -1.434135e-02
Ga -4.783396e+00 9.031460e-01 7.521855e+00 9.836746e-04 -1.718060e-02 -4.948494e-03
Al -4.783396e+00 9.031460e-01 -2.775158e+00 1.242711e-03 -1.368186e-02 -4.579012e-03
Ga -6.347690e+00 3.612582e+00 2.504900e+00 -7.854836e-04 -3.514130e-04 -1.138693e-02
Ga -6.347690e+00 3.612582e+00 7.521855e+00 -6.300831e-04 -7.172229e-06 -1.688873e-03
Ga -6.347690e+00 3.612582e+00 -2.775158e+00 -4.869410e-04 -3.725396e-04 -1.616368e-03
Ga -3.173845e+00 -1.884678e+00 2.504900e+00 -5.585307e-04 2.926208e-03 -1.284421e-02
Al -3.173845e+00 -1.884678e+00 7.521855e+00 1.483967e-05 3.385406e-03 -2.478812e-03
Ga -3.173845e+00 -1.884678e+00 -2.775158e+00 -1.337980e-03 3.284933e-03 -3.624375e-03
Ga -1.654808e+00 9.031460e-01 2.504900e+00 1.693055e-02 -9.078768e-03 -1.720062e-02
Al -1.654808e+00 9.031460e-01 7.521855e+00 1.418227e-02 -8.281949e-03 -5.778341e-03
Ga -1.654808e+00 9.031460e-01 -2.775158e+00 1.645622e-02 -9.030350e-03 -8.644695e-03
Ga -3.219102e+00 3.612582e+00 2.504900e+00 1.568320e-02 8.086269e-03 -1.444453e-02
Ga -3.219102e+00 3.612582e+00 7.521855e+00 1.556388e-02 7.582723e-03 -4.856646e-03
Ga -3.219102e+00 3.612582e+00 -2.775158e+00 1.594407e-02 7.905476e-03 -4.871345e-03
Ga -4.525702e-02 -1.884678e+00 2.504900e+00 1.536225e-02 1.116233e-02 -1.544064e-02
Ga -4.525702e-02 -1.884678e+00 7.521855e+00 1.473201e-02 1.165020e-02 -6.077686e-03
Ga -4.525702e-02 -1.884678e+00 -2.775158e+00 1.554936e-02 1.145237e-02 -6.126619e-03
Ga 1.469567e-08 1.806291e+00 5.013378e+00 -1.494422e-02 -1.107610e-02 -6.831789e-03
Ga 1.469567e-08 1.806291e+00 -5.283635e+00 -1.518683e-02 -1.149815e-02 -6.520911e-03
Ga 1.469567e-08 1.806291e+00 -2.666800e-01 -1.503903e-02 -1.118636e-02 4.471630e-02
Ga 3.173845e+00 -3.690969e+00 5.013378e+00 -1.540193e-02 -8.089500e-03 -5.548536e-03
Ga 3.173845e+00 -3.690969e+00 -5.283635e+00 -1.534054e-02 -7.661851e-03 -4.184862e-03
Ga 3.173845e+00 -3.690969e+00 -2.666800e-01 -1.523545e-02 -7.932246e-03 4.543481e-02
Ga 1.609551e+00 -9.815320e-01 5.013378e+00 -1.646941e-02 9.322675e-03 -8.665658e-03
Ga 1.609551e+00 -9.815320e-01 -5.283635e+00 -1.615141e-02 9.513872e-03 -8.331051e-03
Ga 1.609551e+00 -9.815320e-01 -2.666800e-01 -1.642613e-02 9.550140e-03 4.211901e-02
Ga 3.128588e+00 1.806291e+00 5.013378e+00 4.890134e-04 -3.449205e-03 -3.186180e-03
Ga 3.128588e+00 1.806291e+00 -5.283635e+00 2.302987e-04 -3.551622e-03 -2.580337e-03
Ga 3.128588e+00 1.806291e+00 -2.666800e-01 4.664419e-04 -3.747350e-03 4.841839e-02
Ga 6.302433e+00 -3.690969e+00 5.013378e+00 1.989703e-04 -3.371902e-04 -1.852059e-03
Ga 6.302433e+00 -3.690969e+00 -5.283635e+00 5.366112e-05 4.190266e-04 -1.707509e-03
Ga 6.302433e+00 -3.690969e+00 -2.666800e-01 2.120369e-07 -2.731433e-04 4.953473e-02
Ga 4.738139e+00 -9.815320e-01 5.013378e+00 -8.648571e-04 1.762294e-02 -4.961180e-03
Al 4.738139e+00 -9.815320e-01 -5.283635e+00 -1.221355e-03 1.321116e-02 -3.734635e-03
Ga 4.738139e+00 -9.815320e-01 -2.666800e-01 -9.769361e-04 1.734391e-02 4.543721e-02
Ga -3.219102e+00 1.806291e+00 5.013378e+00 3.015891e-03 -1.882002e-03 -3.632803e-03
Ga -3.219102e+00 1.806291e+00 -5.283635e+00 3.634363e-03 -2.050865e-03 -3.788124e-03
Ga -3.219102e+00 1.806291e+00 -2.666800e-01 3.355285e-03 -2.167666e-03 4.728156e-02
Ga -4.525703e-02 -3.690969e+00 5.013378e+00 3.177764e-03 1.291398e-03 -2.844324e-03
Ga -4.525703e-02 -3.690969e+00 -5.283635e+00 3.258173e-03 1.343303e-03 -2.537271e-03
Ga -4.525703e-02 -3.690969e+00 -2.666800e-01 3.304598e-03 1.512582e-03 4.886932e-02
Ga -1.609551e+00 -9.815320e-01 5.013378e+00 2.169739e-03 1.860859e-02 -5.596294e-03
Ga -1.609551e+00 -9.815320e-01 -5.283635e+00 1.681733e-03 1.885909e-02 -6.944089e-03
Ga -1.609551e+00 -9.815320e-01 -2.666800e-01 2.317047e-03 1.881285e-02 4.518286e-02
N 1.564294e+00 9.031460e-01 4.418497e+00 -1.276934e-03 -1.792228e-02 -1.635901e-02
N 1.564294e+00 9.031460e-01 -5.878516e+00 -1.270824e-03 -1.762277e-02 -1.720598e-02
N 1.564294e+00 9.031460e-01 -8.615610e-01 -1.346661e-03 -1.777442e-02 9.812325e-03
N 2.938992e-08 3.612582e+00 4.418497e+00 -2.312508e-03 2.151475e-04 -2.070101e-02
N 2.938992e-08 3.612582e+00 -5.878516e+00 -2.476803e-03 -2.198152e-05 2.204474e-03
N 2.938992e-08 3.612582e+00 -8.615610e-01 -2.129310e-03 6.241234e-05 -1.741366e-02
N 3.173845e+00 -1.884678e+00 4.418497e+00 -2.955283e-03 1.930477e-03 2.112655e-03
N 3.173845e+00 -1.884678e+00 -5.878516e+00 1.590697e-02 1.240547e-02 9.646656e-03
N 3.173845e+00 -1.884678e+00 -8.615610e-01 -2.888484e-03 1.601814e-03 -1.757417e-02
N -4.783396e+00 9.031460e-01 4.418497e+00 5.506524e-04 -1.783662e-02 6.910313e-03
N -4.783396e+00 9.031460e-01 -5.878516e+00 5.722317e-04 -3.554834e-02 1.280879e-02
N -4.783396e+00 9.031460e-01 -8.615610e-01 3.539643e-04 -1.725675e-02 -1.342082e-02
N -6.347690e+00 3.612582e+00 4.418497e+00 -4.378858e-04 5.140317e-04 3.123675e-03
N -6.347690e+00 3.612582e+00 -5.878516e+00 -6.612550e-04 2.356673e-04 2.514163e-03
N -6.347690e+00 3.612582e+00 -8.615610e-01 -5.533257e-04 5.066075e-04 6.794561e-03
N -3.173845e+00 -1.884678e+00 4.418497e+00 -1.126628e-03 2.328750e-03 2.574284e-03
N -3.173845e+00 -1.884678e+00 -5.878516e+00 -2.017169e-02 1.252410e-02 -1.371483e-02
N -3.173845e+00 -1.884678e+00 -8.615610e-01 -1.020626e-03 1.954496e-03 6.148708e-03
N -1.654808e+00 9.031460e-01 4.418497e+00 1.659738e-02 -9.843879e-03 1.146118e-02
N -1.654808e+00 9.031460e-01 -5.878516e+00 1.642237e-02 -9.268191e-03 -1.284698e-02
N -1.654808e+00 9.031460e-01 -8.615610e-01 1.663907e-02 -9.619293e-03 1.380523e-02
N -3.219102e+00 3.612582e+00 4.418497e+00 1.547238e-02 8.538715e-03 6.703467e-03
N -3.219102e+00 3.612582e+00 -5.878516e+00 1.569896e-02 8.569403e-03 6.456482e-03
N -3.219102e+00 3.612582e+00 -8.615610e-01 1.535563e-02 8.560391e-03 1.010439e-02
N -4.525702e-02 -1.884678e+00 4.418497e+00 1.476457e-02 1.022358e-02 6.540022e-03
N -4.525702e-02 -1.884678e+00 -5.878516e+00 1.510778e-02 1.022497e-02 5.979105e-03
N -4.525702e-02 -1.884678e+00 -8.615610e-01 1.464609e-02 9.944002e-03 9.534245e-03
N 1.469567e-08 1.806291e+00 1.910020e+00 3.796885e-03 7.180752e-04 -2.460444e-02
N 1.469567e-08 1.806291e+00 6.926975e+00 -1.187190e-02 -2.902151e-02 1.942421e-02
N 1.469567e-08 1.806291e+00 -3.370038e+00 -1.462271e-02 1.141064e-02 1.337317e-02
N 3.173845e+00 -3.690969e+00 1.910020e+00 3.262927e-03 -1.950447e-02 -3.175012e-02
N 3.173845e+00 -3.690969e+00 6.926975e+00 -1.552101e-02 -8.355484e-03 5.970778e-03
N 3.173845e+00 -3.690969e+00 -3.370038e+00 3.132260e-03 2.304949e-03 2.175199e-02
N 1.609551e+00 -9.815320e-01 1.910020e+00 -1.712472e-02 2.774069e-02 -2.913597e-02
N 1.609551e+00 -9.815320e-01 6.926975e+00 -1.682093e-02 2.688245e-02 1.595878e-02
N 1.609551e+00 -9.815320e-01 -3.370038e+00 1.861628e-03 -1.225193e-03 1.788695e-02
N 3.128588e+00 1.806291e+00 1.910020e+00 -1.771300e-02 -1.308834e-02 -3.633770e-02
N 3.128588e+00 1.806291e+00 6.926975e+00 -1.747603e-02 -1.292045e-02 9.728883e-03
N 3.128588e+00 1.806291e+00 -3.370038e+00 2.005743e-02 -1.240203e-02 9.349070e-03
N 6.302433e+00 -3.690969e+00 1.910020e+00 -1.850155e-02 -1.117815e-02 -3.596332e-02
N 6.302433e+00 -3.690969e+00 6.926975e+00 3.791475e-04 2.182764e-02 9.846069e-03
N 6.302433e+00 -3.690969e+00 -3.370038e+00 -1.782798e-02 -1.144291e-02 9.923136e-03
N 4.738139e+00 -9.815320e-01 1.910020e+00 -3.406840e-04 1.811983e-02 -3.960959e-02
N 4.738139e+00 -9.815320e-01 6.926975e+00 1.848946e-02 6.757078e-03 1.421065e-02
N 4.738139e+00 -9.815320e-01 -3.370038e+00 -1.968065e-02 2.454460e-02 -3.597199e-03
N -3.219102e+00 1.806291e+00 1.910020e+00 3.126140e-03 -2.104825e-03 -4.450029e-02
N -3.219102e+00 1.806291e+00 6.926975e+00 2.126093e-02 -1.233018e-02 9.219145e-03
N -3.219102e+00 1.806291e+00 -3.370038e+00 -1.614531e-02 -1.219003e-02 9.293005e-03
N -4.525703e-02 -3.690969e+00 1.910020e+00 2.417479e-03 1.677454e-05 -4.363110e-02
N -4.525703e-02 -3.690969e+00 6.926975e+00 2.648424e-03 1.570786e-04 1.904419e-03
N -4.525703e-02 -3.690969e+00 -3.370038e+00 2.242303e-03 -8.794452e-05 1.793789e-03
N -1.609551e+00 -9.815320e-01 1.910020e+00 1.212151e-03 1.846837e-02 -3.973964e-02
N -1.609551e+00 -9.815320e-01 6.926975e+00 -1.810168e-02 2.433210e-02 1.951742e-02
N -1.609551e+00 -9.815320e-01 -3.370038e+00 1.510992e-03 1.776140e-02 5.824781e-03
