108
Energy=-2.176128e+06 Lattice="9.517633e+00 0.000000e+00 0.000000e+00 -4.763402e+00 8.261872e+00 0.000000e+00 -1.223079e-03 2.106756e-02 1.528068e+01" Stress="-5.078551e-02 5.442113e-03 -1.027533e-04 5.439197e-03 -4.065366e-02 7.653273e-04 -1.083860e-04 7.744683e-04 -5.781882e-02" Properties=species:S:1:pos:R:3:forces:R:3 Config_type=AlGaN_super3_38_2_2.xyz
Al 1.568073e+00 9.109065e-01 2.464800e+00 -6.788850e-04 -1.327371e-02 -9.120249e-03
Al 1.566304e+00 9.166655e-01 7.499832e+00 -7.499471e-04 -1.287239e-02 -3.866489e-03
Al 1.567969e+00 8.974665e-01 -2.748187e+00 -1.191885e-03 -1.186468e-02 -4.010970e-03
Al -4.651219e-03 3.641219e+00 2.463718e+00 -2.610142e-03 -1.829402e-03 -7.792815e-03
Al -4.901286e-03 3.645186e+00 7.500840e+00 -2.337836e-03 -1.360363e-03 -2.079167e-03
Ga -5.408572e-03 3.626861e+00 -2.743098e+00 -2.580270e-03 -1.826996e-03 -2.407591e-03
Ga 3.185186e+00 -1.888361e+00 2.465490e+00 -3.723369e-03 7.800690e-04 -9.442710e-03
Ga 3.185546e+00 -1.884427e+00 7.498197e+00 -2.606238e-03 8.955762e-04 -3.799534e-03
Ga 3.182777e+00 -1.900227e+00 -2.745662e+00 -2.313110e-03 4.025745e-04 -3.134917e-03
Ga -4.803960e+00 9.096985e-01 2.468668e+00 4.002452e-04 -1.434286e-02 -9.485661e-03
Ga -4.803583e+00 9.149127e-01 7.497220e+00 7.375057e-04 -1.477391e-02 -4.965829e-03
Al -4.803583e+00 8.995830e-01 -2.747777e+00 1.584854e-03 -1.104796e-02 -2.850282e-03
Ga -6.379132e+00 3.640569e+00 2.461769e+00 -3.046779e-04 -9.067564e-04 -7.341876e-03
Ga -6.379442e+00 3.646826e+00 7.500769e+00 -6.685127e-04 -4.665812e-04 -1.493584e-03
Ga -6.375254e+00 3.628826e+00 -2.743673e+00 4.949023e-04 -1.372121e-04 -1.804776e-03
Ga -3.188765e+00 -1.887554e+00 2.463652e+00 -6.836694e-05 1.759994e-03 -7.967089e-03
Al -3.188640e+00 -1.883697e+00 7.499145e+00 -5.514970e-04 2.221026e-03 -2.566724e-03
Ga -3.185771e+00 -1.899733e+00 -2.743182e+00 1.006174e-04 2.086450e-03 -2.277962e-03
Ga -1.657154e+00 9.138124e-01 2.464820e+00 1.473327e-02 -7.917981e-03 -1.193775e-02
Ga -1.656735e+00 9.177230e-01 7.500401e+00 1.400658e-02 -8.286966e-03 -6.897894e-03
Ga -1.656060e+00 8.997221e-01 -2.744912e+00 1.408507e-02 -8.120541e-03 -7.103977e-03
Ga -3.230593e+00 3.641971e+00 2.462007e+00 1.313973e-02 6.471965e-03 -9.274914e-03
Ga -3.230593e+00 3.646915e+00 7.498738e+00 1.325804e-02 6.192455e-03 -4.265428e-03
Al -3.230798e+00 3.631321e+00 -2.744334e+00 1.041375e-02 4.280553e-03 -3.296522e-03
Ga -4.203987e-02 -1.885520e+00 2.461578e+00 1.373680e-02 8.674115e-03 -1.090803e-02
Ga -4.272504e-02 -1.881924e+00 7.499844e+00 1.310962e-02 8.919000e-03 -5.256048e-03
Al -3.981779e-02 -1.898296e+00 -2.742918e+00 1.000873e-02 5.992950e-03 -3.751781e-03
Ga -4.319589e-03 1.824573e+00 4.980153e+00 -1.281376e-02 -9.450684e-03 -4.718283e-03
Al -2.905293e-03 1.806098e+00 -5.264640e+00 -1.053238e-02 -6.386796e-03 -3.747096e-03
Ga -2.181986e-03 1.808398e+00 -2.256933e-01 -1.223735e-02 -8.612492e-03 3.319342e-02
Ga 3.187101e+00 -3.708352e+00 4.981427e+00 -1.390788e-02 -5.699448e-03 -3.897960e-03
Ga 3.186110e+00 -3.725906e+00 -5.262246e+00 -1.205014e-02 -6.200961e-03 -3.960489e-03
Ga 3.184623e+00 -3.719314e+00 -2.245940e-01 -1.260660e-02 -5.292693e-03 3.384853e-02
Ga 1.612415e+00 -9.745074e-01 4.980943e+00 -1.380520e-02 7.813623e-03 -7.197813e-03
Ga 1.610763e+00 -9.914296e-01 -5.261922e+00 -1.344634e-02 8.455508e-03 -6.519750e-03
Al 1.613381e+00 -9.843249e-01 -2.433026e-01 -1.255605e-02 6.882936e-03 2.849490e-02
Ga 3.140831e+00 1.822787e+00 4.981184e+00 1.010549e-03 -2.719202e-03 -2.497354e-03
Ga 3.140307e+00 1.806124e+00 -5.263318e+00 -1.531848e-04 -2.597170e-03 -1.874531e-03
Al 3.141899e+00 1.808938e+00 -2.447543e-01 2.611202e-04 -2.681795e-03 3.090318e-02
Ga 6.328488e+00 -3.705162e+00 4.981921e+00 6.738944e-04 2.767337e-04 -5.370963e-04
Ga 6.330535e+00 -3.723825e+00 -5.263729e+00 -3.911652e-04 2.746930e-04 -1.514655e-03
Ga 6.330662e+00 -3.719787e+00 -2.233015e-01 3.985145e-04 9.277562e-04 3.674200e-02
Al 4.759066e+00 -9.755032e-01 4.983413e+00 -1.903208e-03 1.208792e-02 -2.900420e-03
Ga 4.758670e+00 -9.916198e-01 -5.263380e+00 -5.780543e-04 1.423171e-02 -4.154375e-03
Al 4.756408e+00 -9.836321e-01 -2.416032e-01 -1.335690e-03 1.130174e-02 3.027398e-02
Al -3.229918e+00 1.823871e+00 4.981107e+00 1.927703e-03 -1.238065e-03 -3.255161e-03
Ga -3.228627e+00 1.808870e+00 -5.261900e+00 2.770840e-03 -2.019627e-03 -2.650884e-03
Al -3.231182e+00 1.812703e+00 -2.456422e-01 2.045000e-03 -1.223283e-03 3.011973e-02
Ga -4.038226e-02 -3.706076e+00 4.980366e+00 2.891508e-03 1.222428e-03 -2.294825e-03
Ga -3.850823e-02 -3.721590e+00 -5.260040e+00 2.108281e-03 9.734330e-04 -9.167539e-04
Ga -3.724582e-02 -3.719397e+00 -2.301956e-01 2.051479e-03 2.226872e-03 3.528636e-02
Ga -1.616712e+00 -9.736060e-01 4.982842e+00 1.660967e-03 1.597935e-02 -4.458326e-03
Ga -1.611950e+00 -9.910658e-01 -5.262169e+00 3.453659e-04 1.614224e-02 -4.350872e-03
Ga -1.613303e+00 -9.860252e-01 -2.253574e-01 1.534500e-03 1.541340e-02 3.242891e-02
N 1.567584e+00 9.127910e-01 4.380473e+00 -1.397391e-03 -1.469080e-02 -1.474272e-02
N 1.564306e+00 8.977096e-01 -5.862667e+00 -1.684629e-02 -6.021292e-03 -8.249149e-03
N 1.570951e+00 8.984936e-01 -8.333037e-01 1.580592e-02 -2.057919e-02 -1.448395e-03
N -5.276896e-03 3.643502e+00 4.379216e+00 -1.548641e-03 -4.223923e-04 -1.874372e-02
N -4.816950e-03 3.621758e+00 -5.861876e+00 -1.917251e-03 -1.906818e-02 -1.227816e-02
N -5.337083e-03 3.629483e+00 -8.198022e-01 -2.165755e-03 -2.309548e-04 3.143508e-03
N 3.188467e+00 -1.885204e+00 4.389187e+00 1.430764e-02 1.003725e-02 8.746493e-03
N 3.184665e+00 -1.903764e+00 -5.858021e+00 -2.955561e-03 1.098107e-03 1.559451e-03
N 3.184271e+00 -1.895258e+00 -8.237574e-01 -1.637429e-03 1.905561e-02 1.698298e-02
N -4.799586e+00 9.100497e-01 4.392266e+00 1.739093e-02 -2.127012e-02 1.775374e-02
N -4.802355e+00 8.962925e-01 -5.859748e+00 5.905374e-04 -1.464015e-02 5.380048e-03
N -4.803236e+00 9.010517e-01 -8.339690e-01 1.088591e-03 -1.144292e-02 5.359490e-03
N -6.377807e+00 3.644232e+00 4.385152e+00 -1.045867e-03 3.312492e-04 2.572228e-03
N -6.375891e+00 3.627320e+00 -5.856675e+00 4.022918e-04 1.015165e-04 2.146194e-03
N -6.376539e+00 3.627678e+00 -8.229731e-01 -9.222134e-04 -1.879846e-02 1.172410e-02
N -3.191401e+00 -1.883921e+00 4.387029e+00 -1.700175e-02 1.031562e-02 8.604488e-03
N -3.186489e+00 -1.902813e+00 -5.863446e+00 -4.797455e-04 1.480755e-03 -1.900296e-02
N -3.189987e+00 -1.896989e+00 -8.210829e-01 -1.744399e-02 1.034021e-02 1.041656e-02
N -1.661539e+00 9.162456e-01 4.387711e+00 -1.609823e-03 8.139004e-04 1.551745e-02
N -1.652636e+00 8.999546e-01 -5.856327e+00 2.772983e-02 -8.822260e-04 1.371679e-02
N -1.659600e+00 9.033164e-01 -8.237442e-01 -1.852635e-03 1.389627e-03 1.686385e-02
N -3.231220e+00 3.640580e+00 4.385670e+00 1.324312e-02 -1.222865e-02 1.214168e-02
N -3.230501e+00 3.627931e+00 -5.858460e+00 1.273864e-02 6.845768e-03 4.990599e-03
N -3.229984e+00 3.629009e+00 -8.309993e-01 1.331501e-02 -1.239126e-02 -6.318411e-03
N -4.281561e-02 -1.885000e+00 4.384518e+00 1.216528e-02 8.118982e-03 5.315871e-03
N -4.064489e-02 -1.902218e+00 -5.857982e+00 1.295862e-02 7.615601e-03 4.946173e-03
N -3.742515e-02 -1.895325e+00 -8.280001e-01 2.607791e-02 1.520599e-02 -7.888305e-03
N 9.407914e-04 1.824115e+00 1.870805e+00 3.434301e-03 8.433838e-04 -1.681216e-02
N -1.932760e-04 1.827931e+00 6.905273e+00 3.614246e-03 1.958848e-03 1.843683e-02
N 3.641757e-04 1.806410e+00 -3.345231e+00 4.047680e-03 -1.729112e-02 -9.909518e-03
N 3.190623e+00 -3.711834e+00 1.867771e+00 2.726369e-03 -1.622157e-02 -2.251195e-02
N 3.189725e+00 -3.708349e+00 6.905115e+00 3.368660e-03 -1.620305e-02 1.193644e-02
N 3.182185e+00 -3.725158e+00 -3.338345e+00 -2.701074e-02 -1.350880e-02 1.017141e-02
N 1.611755e+00 -9.737508e-01 1.874868e+00 -1.440153e-02 2.435890e-02 -3.605708e-02
N 1.611407e+00 -9.688192e-01 6.904518e+00 -1.446788e-02 2.417064e-02 1.403442e-02
N 1.607691e+00 -9.881755e-01 -3.337719e+00 -2.836659e-02 1.665584e-02 1.911111e-02
N 3.137377e+00 1.816255e+00 1.875274e+00 -1.526967e-02 -1.033643e-02 -4.233426e-02
N 3.136216e+00 1.823914e+00 6.905355e+00 -1.542218e-02 -1.040601e-02 8.535874e-03
N 3.141366e+00 1.804461e+00 -3.338819e+00 5.269371e-04 -2.022767e-02 1.522923e-02
N 6.325516e+00 -3.710669e+00 1.868751e+00 -1.550884e-02 -9.285198e-03 -2.613443e-02
N 6.325925e+00 -3.702507e+00 6.907059e+00 -1.603458e-02 9.675590e-03 1.510625e-02
N 6.330739e+00 -3.721463e+00 -3.339715e+00 6.518526e-04 2.494302e-04 1.127000e-03
N 4.757014e+00 -9.773324e-01 1.874033e+00 -3.232871e-04 1.554859e-02 -4.534733e-02
N 4.761538e+00 -9.759314e-01 6.900424e+00 1.605515e-02 5.573306e-03 -8.648684e-03
N 4.758432e+00 -9.858959e-01 -3.339545e+00 -1.072430e-03 3.092614e-02 1.094349e-02
N -3.231118e+00 1.820886e+00 1.872282e+00 2.227890e-03 -1.271612e-03 -4.948609e-02
N -3.229685e+00 1.827028e+00 6.898557e+00 2.300073e-03 -9.626079e-04 -1.931289e-02
N -3.232749e+00 1.812310e+00 -3.337890e+00 -1.440866e-02 8.439115e-03 1.524627e-02
N -4.100704e-02 -3.707619e+00 1.863245e+00 1.908035e-03 -4.107467e-05 -3.277247e-02
N -4.092762e-02 -3.703619e+00 6.903432e+00 1.768676e-03 2.986864e-04 1.805870e-03
N -3.551918e-02 -3.718104e+00 -3.335739e+00 1.771559e-02 1.040034e-02 1.466696e-02
N -1.614669e+00 -9.756829e-01 1.864182e+00 5.107323e-04 1.521609e-02 -2.932161e-02
N -1.618344e+00 -9.744626e-01 6.905939e+00 -1.566766e-02 5.811881e-03 1.168582e-02
N -1.609296e+00 -9.917885e-01 -3.338116e+00 1.732020e-02 5.808226e-03 1.065785e-02
