108
Energy=-1672602.241942 Lattice="9.545712 0.000000 0.000000 -4.774931 8.266108 0.000000 -0.001743 0.003805 15.425004" Stress="0.000001 -0.000001 -0.000000 -0.000001 0.000001 0.000001 -0.000000 0.000001 -0.000004" Properties=species:S:1:pos:R:3:forces:R:3
Al 1.574982 0.894731 2.392805 0.000183 -0.000569 -0.000049
Al 1.570218 0.903294 7.577965 -0.000468 -0.000076 0.000216
Al 1.559498 0.889126 -2.714307 -0.000053 0.000160 0.000099
Al -0.013191 3.618865 2.409833 0.000011 0.000026 0.000048
Al -0.009781 3.613251 7.570075 0.000003 -0.000001 -0.000056
Al -0.025789 3.613411 -2.711560 0.000011 -0.000069 -0.000037
Al 3.168028 -1.857760 2.401140 -0.000165 0.000331 -0.000121
Ga 3.168991 -1.858184 7.580636 -0.000028 0.000009 -0.000005
Ga 3.165662 -1.870085 -2.711252 0.000024 -0.000001 0.000026
Al -4.809430 0.877955 2.394855 0.000078 -0.000198 -0.000026
Al -4.811503 0.882038 7.565826 0.000054 -0.000006 0.000015
Ga -4.798745 0.876421 -2.699108 0.000041 -0.000037 -0.000053
Al -6.392214 3.613205 2.389776 0.000024 0.000028 0.000042
Al -6.400074 3.612280 7.581885 0.000021 0.000020 0.000097
Ga -6.394807 3.616862 -2.702284 -0.000001 0.000033 0.000010
Ga -3.232231 -1.881202 2.424493 0.000020 0.000052 -0.000003
Ga -3.224058 -1.877381 7.561094 -0.000006 0.000013 0.000020
Al -3.218670 -1.871622 -2.708708 -0.000007 0.000004 0.000026
Ga -1.606568 0.906933 2.416053 -0.000063 -0.000046 -0.000050
Ga -1.603600 0.903144 7.562662 0.000045 -0.000038 0.000015
Al -1.599873 0.899441 -2.704515 0.000093 0.000009 0.000070
Ga -3.211125 3.623945 2.412150 -0.000054 -0.000047 -0.000009
Ga -3.209143 3.621049 7.550047 0.000020 -0.000018 0.000014
Al -3.194521 3.622689 -2.684317 0.000027 0.000005 0.000011
Ga -0.005598 -1.879750 2.390776 0.000069 0.000079 0.000018
Ga -0.018085 -1.871423 7.587818 -0.000009 0.000024 0.000039
Ga -0.010893 -1.867261 -2.697075 -0.000037 -0.000018 0.000010
Al -0.017675 1.803843 4.986131 -0.000043 0.000044 0.000064
Al -0.000673 1.790403 -5.270332 0.000073 -0.000431 0.000151
Al -0.011657 1.792360 -0.164800 -0.000109 -0.000340 -0.000359
Ga 3.177764 -3.715228 4.971238 0.000003 0.000019 0.000056
Ga 3.170777 -3.718241 -5.266759 -0.000049 0.000059 0.000021
Ga 3.157842 -3.716557 -0.146680 -0.000023 0.000029 -0.000021
Ga 1.580678 -0.936424 4.979710 -0.000024 -0.000009 -0.000029
Al 1.578408 -0.926956 -5.278210 -0.000026 0.000061 -0.000042
Al 1.580532 -0.936694 -0.141483 0.000186 0.000322 -0.000028
Ga 3.163058 1.786586 4.982078 0.000019 0.000013 -0.000048
Al 3.145139 1.773021 -5.305274 -0.000015 0.000188 -0.000351
Al 3.156428 1.781496 -0.130660 -0.000223 0.000021 0.000003
Ga 6.334641 -3.731632 4.991581 -0.000012 -0.000020 0.000022
Ga 6.333000 -3.727681 -5.278905 0.000038 0.000026 0.000006
Ga 6.338100 -3.722561 -0.149332 0.000019 0.000041 -0.000006
Al 4.743444 -0.935974 4.976151 -0.000009 -0.000015 -0.000013
Al 4.740419 -0.944166 -5.278602 -0.000006 0.000003 -0.000005
Al 4.740085 -0.941689 -0.136321 0.000105 0.000127 -0.000275
Al -3.214921 1.779476 4.986908 0.000025 0.000011 -0.000019
Ga -3.213014 1.784533 -5.266638 -0.000003 -0.000020 -0.000023
Al -3.213070 1.795928 -0.163540 0.000317 0.000095 0.000321
Ga -0.032683 -3.725074 4.992922 -0.000000 0.000002 0.000014
Ga -0.022230 -3.723753 -5.273188 -0.000019 -0.000023 -0.000006
Al -0.014812 -3.729498 -0.149989 -0.000027 -0.000009 0.000027
Ga -1.620604 -0.939185 4.989149 0.000004 -0.000026 0.000028
Ga -1.615829 -0.948199 -5.254069 0.000007 0.000028 0.000034
Ga -1.617942 -0.942056 -0.167306 -0.000018 0.000068 0.000006
N 1.525915 0.910493 4.312716 0.000033 0.000027 -0.000087
N 1.560818 0.882046 -5.916594 0.000075 -0.000029 0.000077
N 1.572187 0.881612 -0.778122 0.000028 0.000060 0.000006
N -0.020681 3.579993 4.320948 0.000010 0.000002 -0.000030
N -0.024706 3.574457 -5.935580 -0.000045 0.000333 -0.000152
N -0.024293 3.582545 -0.804875 -0.000003 0.000153 0.000073
N 3.200868 -1.846204 4.323291 -0.000011 -0.000028 -0.000012
N 3.159722 -1.830727 -5.857370 0.000021 -0.000023 0.000011
N 3.159487 -1.824614 -0.732712 0.000165 -0.000094 -0.000146
N -4.757021 0.858452 4.324676 -0.000020 0.000005 -0.000041
N -4.835125 0.852667 -5.928172 0.000004 -0.000028 0.000051
N -4.804416 0.879617 -0.716180 0.000030 -0.000472 0.000034
N -6.388830 3.626754 4.301810 0.000020 -0.000027 0.000006
N -6.389405 3.581197 -5.925822 -0.000004 -0.000114 0.000057
N -6.348575 3.598002 -0.726002 0.000018 0.000067 -0.000031
N -3.251830 -1.857312 4.398356 0.000024 -0.000007 -0.000018
N -3.249253 -1.853466 -5.885875 0.000015 -0.000023 -0.000041
N -3.257708 -1.852340 -0.794562 -0.000128 0.000046 0.000039
N -1.610761 0.938916 4.401952 0.000026 -0.000040 -0.000002
N -1.567938 0.908263 -5.882255 -0.000055 0.000020 -0.000039
N -1.608424 0.937470 -0.786115 -0.000017 0.000048 0.000008
N -3.207898 3.583560 4.390470 0.000030 -0.000028 0.000005
N -3.201059 3.626453 -5.910966 0.000032 -0.000003 -0.000023
N -3.243553 3.609805 -0.770421 0.000042 0.000011 0.000000
N -0.017756 -1.876634 4.361343 -0.000012 -0.000036 -0.000015
N 0.019923 -1.851563 -5.861034 0.000007 -0.000017 -0.000031
N 0.029179 -1.898379 -0.716597 -0.000241 -0.000161 -0.000113
N 0.020687 1.820345 1.753585 -0.000082 0.000231 0.000155
N 0.026922 1.822578 6.911440 0.000039 0.000012 0.000005
N -0.015060 1.795289 -3.338681 0.000007 0.000021 -0.000002
N 3.203702 -3.690247 1.838274 0.000030 -0.000116 -0.000033
N 3.210680 -3.730090 6.957873 -0.000007 -0.000003 -0.000014
N 3.161772 -3.763031 -3.282032 -0.000022 0.000045 -0.000008
N 1.615026 -0.923862 1.776296 -0.000022 0.000207 0.000522
N 1.570904 -0.899480 6.960818 0.000047 -0.000013 -0.000053
N 1.571328 -0.900616 -3.363283 0.000038 -0.000064 -0.000051
N 3.157280 1.791181 1.793465 0.000004 -0.000037 0.000075
N 3.156009 1.795280 6.985112 0.000257 0.000097 -0.000135
N 3.117095 1.766643 -3.382575 -0.000050 -0.000076 0.000243
N 6.338927 -3.759070 1.827190 -0.000052 -0.000033 -0.000020
N 6.342859 -3.766154 6.980964 -0.000044 -0.000003 -0.000020
N 6.300210 -3.693232 -3.292632 -0.000009 0.000011 0.000003
N 4.710427 -0.932191 1.774052 0.000121 0.000282 0.000181
N 4.741996 -0.901209 6.894435 -0.000019 0.000001 -0.000022
N 4.790471 -0.972929 -3.370831 -0.000035 0.000003 0.000014
N -3.245185 1.771115 1.750503 -0.000115 -0.000062 -0.000185
N -3.254744 1.764284 6.905743 -0.000031 -0.000001 -0.000006
N -3.167765 1.817843 -3.286589 -0.000050 -0.000009 0.000029
N -0.060602 -3.742612 1.758369 0.000026 -0.000014 -0.000045
N -0.075107 -3.735757 6.968768 0.000000 -0.000025 -0.000031
N 0.020380 -3.742035 -3.301482 -0.000017 0.000016 -0.000016
N -1.622076 -0.951012 1.800553 -0.000054 -0.000030 0.000019
N -1.614398 -0.953142 6.955544 -0.000023 -0.000008 -0.000039
N -1.654104 -0.930469 -3.267972 -0.000003 -0.000004 -0.000046
