108
Energy=-1214847.222597 Lattice="9.482863 0.000000 0.000000 -4.749190 8.208872 0.000000 -0.002792 0.009451 15.301005" Stress="-0.000009 -0.000002 -0.000002 -0.000002 -0.000021 -0.000001 -0.000002 -0.000001 0.000005" Properties=species:S:1:pos:R:3:forces:R:3
Al 1.557691 0.891970 2.450775 0.005241 0.002431 -0.003298
Al 1.558162 0.892434 7.504853 -0.000178 -0.000066 0.000198
Al 1.563370 0.876481 -2.742286 0.000309 0.000553 0.000360
Al -0.019288 3.602151 2.410223 -0.001270 0.001540 0.003272
Al -0.031554 3.600225 7.507412 -0.000584 0.000071 0.000541
Al -0.007459 3.602114 -2.726514 -0.001048 -0.000412 -0.000651
Al 3.159483 -1.877154 2.409595 -0.003660 0.006815 0.001241
Al 3.146708 -1.868722 7.503077 -0.000021 0.000252 0.000462
Ga 3.158203 -1.876761 -2.714067 -0.000474 0.000298 0.001121
Al -4.798407 0.873718 2.447802 0.006988 0.004972 -0.000295
Al -4.781366 0.888243 7.488962 0.000757 0.000461 -0.000050
Al -4.781389 0.871970 -2.724814 0.000695 0.000613 0.000142
Al -6.362306 3.617769 2.438233 0.004642 0.011690 0.002413
Al -6.346350 3.596438 7.514753 0.000041 0.000100 0.000101
Al -6.368474 3.592473 -2.737002 0.001130 0.000922 0.000814
Ga -3.179382 -1.847925 2.403954 -0.000170 0.000725 -0.000278
Ga -3.188925 -1.859155 7.485703 0.000010 0.000134 0.000548
Al -3.181808 -1.885030 -2.696456 -0.000091 0.000251 0.002088
Al -1.592309 0.874901 2.436632 -0.003107 -0.000410 0.000600
Al -1.610269 0.902469 7.485151 0.000717 0.000212 0.002814
Ga -1.614696 0.882722 -2.716274 0.000814 -0.000524 0.000639
Ga -3.173772 3.615831 2.442416 -0.002155 -0.000710 0.000508
Al -3.187709 3.609461 7.489913 0.000166 0.000039 0.000050
Ga -3.191803 3.601791 -2.724276 0.000237 -0.000826 0.000545
Al -0.026232 -1.859910 2.427051 0.001116 0.001529 -0.000363
Ga -0.013141 -1.856719 7.503338 -0.000080 -0.000642 0.000584
Ga -0.020954 -1.867365 -2.718442 0.000126 -0.000302 0.000760
Al -0.036578 1.789649 4.966596 -0.000495 0.000314 0.000263
Al -0.020594 1.787746 -5.278428 0.001880 0.001037 0.001809
Ga -0.023008 1.793615 -0.133069 -0.000740 -0.001067 -0.000535
Al 3.149409 -3.693387 4.973653 -0.000426 0.001058 0.001347
Al 3.143897 -3.708425 -5.290200 -0.000225 0.000424 0.000450
Al 3.165805 -3.692856 -0.138814 -0.000310 0.000870 -0.000786
Ga 1.569595 -0.951240 4.954079 -0.000152 -0.000012 -0.000381
Al 1.575381 -0.951870 -5.276391 -0.000261 0.000305 0.000426
Ga 1.573033 -0.962335 -0.122971 -0.001410 0.000804 0.002148
Al 3.133898 1.791270 4.977107 0.001137 0.000359 -0.000419
Al 3.129050 1.786304 -5.269997 0.000181 -0.000253 0.000815
Ga 3.130339 1.783021 -0.142127 0.001374 0.002726 0.002115
Ga 6.302848 -3.695602 4.961765 -0.000087 -0.000379 0.000791
Al 6.301872 -3.716634 -5.256527 -0.000105 0.000886 0.000062
Al 6.294890 -3.684591 -0.159628 0.000728 0.000546 -0.000291
Al 4.713512 -0.938066 4.968230 -0.000577 0.000323 0.000111
Ga 4.719878 -0.951653 -5.262163 -0.000776 -0.000005 0.001811
Al 4.732193 -0.958015 -0.154043 -0.000212 -0.000020 -0.000282
Al -3.194777 1.784002 4.973285 0.000261 -0.000335 -0.001281
Al -3.198726 1.796259 -5.291444 0.001762 0.000269 0.000979
Ga -3.199169 1.769686 -0.121605 0.000240 0.000323 -0.000378
Al -0.025749 -3.690950 4.970267 0.000396 -0.000047 -0.000232
Al -0.020737 -3.705932 -5.275958 0.000936 -0.000904 0.001586
Ga -0.037963 -3.688536 -0.132729 0.000036 -0.000025 -0.000787
Al -1.600204 -0.930418 4.949478 0.000981 0.001059 0.002664
Ga -1.594169 -0.946089 -5.260727 -0.000116 0.000144 0.001333
Al -1.609739 -0.955839 -0.138478 -0.000335 -0.000277 -0.000381
N 1.551703 0.927480 4.356786 0.000640 0.000738 -0.000331
N 1.554865 0.870879 -5.874599 0.000802 0.000485 -0.000459
N 1.551237 0.863459 -0.822650 0.000967 0.000729 0.000711
N -0.067524 3.588427 4.336170 -0.000191 -0.000133 -0.002619
N -0.022519 3.600461 -5.877449 0.000297 -0.000016 -0.000231
N -0.024277 3.647291 -0.797446 -0.000138 0.000550 0.000992
N 3.189332 -1.893395 4.332878 0.000782 -0.000836 -0.001497
N 3.112194 -1.896011 -5.887168 -0.000464 -0.000177 -0.000301
N 3.183327 -1.896632 -0.732735 0.000334 0.000258 0.001355
N -4.780082 0.875563 4.372051 0.000896 -0.000328 -0.000761
N -4.775659 0.914512 -5.897891 0.000535 0.000420 -0.001230
N -4.776141 0.829742 -0.808533 0.000334 -0.000568 0.000988
N -6.309426 3.586147 4.346116 -0.000868 0.001688 -0.000376
N -6.349676 3.601489 -5.867380 -0.000364 -0.000329 0.000005
N -6.392530 3.625225 -0.815309 -0.001017 0.000375 -0.000812
N -3.180477 -1.810038 4.388081 -0.001602 -0.000655 -0.001572
N -3.176653 -1.918038 -5.857509 -0.000254 -0.000636 -0.000299
N -3.177129 -1.869150 -0.755575 -0.000391 0.000140 0.001802
N -1.611323 0.884053 4.360769 0.000621 -0.000427 -0.000840
N -1.598076 0.925519 -5.885736 -0.003898 -0.000970 -0.004178
N -1.610370 0.834499 -0.744967 0.000846 -0.000400 -0.000437
N -3.184906 3.617631 4.423775 0.000194 -0.000717 -0.000043
N -3.190046 3.610612 -5.887230 -0.000138 -0.000988 -0.000754
N -3.150506 3.630715 -0.741348 0.001086 -0.000267 0.000350
N -0.063286 -1.883703 4.344818 -0.000617 -0.000459 0.000115
N 0.023723 -1.891325 -5.830720 -0.000286 0.000034 -0.000671
N -0.053109 -1.841279 -0.747275 -0.000572 0.000266 0.000388
N -0.027298 1.780640 1.860397 0.004043 0.002951 -0.002037
N -0.024989 1.789117 6.893368 0.000133 0.000363 -0.001560
N 0.013843 1.798561 -3.355029 0.000373 0.001807 0.000729
N 3.189523 -3.662520 1.783322 0.001492 -0.004023 -0.001598
N 3.147299 -3.687442 6.900304 0.000396 0.000246 -0.000740
N 3.184102 -3.724895 -3.378079 0.001268 0.000258 0.000448
N 1.556388 -0.939975 1.875688 0.005758 0.000221 0.000857
N 1.608869 -0.921260 6.926607 -0.000488 0.000525 -0.001107
N 1.574115 -0.917071 -3.362795 -0.000386 0.000625 -0.000631
N 3.168674 1.873463 1.870124 -0.012677 -0.032555 -0.008367
N 3.128815 1.793875 6.898022 -0.000042 -0.000235 -0.001480
N 3.133943 1.778313 -3.342108 0.000105 -0.000084 -0.000242
N 6.303875 -3.729432 1.778472 -0.001527 0.001175 -0.000600
N 6.303753 -3.740374 6.928220 -0.000370 -0.000044 -0.000387
N 6.300894 -3.693682 -3.329896 -0.000208 0.000296 -0.000014
N 4.678081 -0.908897 1.776802 -0.000788 -0.000915 -0.001410
N 4.675520 -0.920155 6.881958 -0.000792 -0.000445 -0.001473
N 4.769519 -0.933708 -3.288386 -0.000332 -0.000570 0.000088
N -3.187334 1.741166 1.854497 -0.001833 -0.002662 0.003188
N -3.195764 1.789286 6.893407 0.000405 -0.000310 -0.000433
N -3.235953 1.759645 -3.376008 -0.000115 -0.000211 -0.000499
N -0.054633 -3.669091 1.840939 -0.001190 0.003640 0.002311
N -0.027464 -3.726456 6.885809 -0.000076 -0.000791 -0.000977
N -0.061918 -3.717881 -3.362815 -0.001028 -0.000644 -0.000521
N -1.550538 -0.913003 1.783820 -0.002667 -0.003196 0.000581
N -1.597326 -0.890862 6.862734 0.000021 -0.000507 -0.001522
N -1.644626 -0.974269 -3.302950 -0.000850 -0.000531 0.000278
