108
Energy=-2267683.873237 Lattice="9.626753 0.000000 0.000000 -4.824465 8.323295 0.000000 -0.056497 0.011655 15.591604" Stress="0.000000 -0.000001 -0.000013 -0.000001 -0.000004 0.000003 -0.000013 0.000003 -0.000001" Properties=species:S:1:pos:R:3:forces:R:3
Al 1.565135 0.876951 2.468740 0.000449 0.000693 0.000351
Al 1.551462 0.883167 7.640352 0.000985 -0.000016 0.000510
Ga 1.589809 0.882568 -2.757915 0.000633 -0.000468 0.000105
Al -0.038547 3.660937 2.452207 0.000817 -0.000282 0.000487
Ga -0.059581 3.650849 7.636681 -0.000159 0.000269 0.000723
Ga -0.012247 3.661125 -2.739316 0.000249 -0.000591 0.000918
Ga 3.181758 -1.903283 2.490283 0.000394 -0.000027 0.000130
Ga 3.164280 -1.873275 7.595563 0.000683 -0.000770 0.000843
Al 3.206036 -1.888310 -2.742729 0.000547 -0.000428 0.000582
Ga -4.849288 0.881452 2.452151 0.000792 -0.000097 0.000840
Al -4.878874 0.879054 7.627005 0.000722 0.000090 -0.000086
Ga -4.828751 0.883615 -2.728019 0.000641 -0.000581 0.000081
Ga -6.475373 3.655077 2.448617 0.000409 0.000138 0.000714
Ga -6.470568 3.651980 7.644157 0.000097 -0.000146 -0.000344
Ga -6.431359 3.667107 -2.735756 0.000523 -0.000196 0.000273
Al -3.253361 -1.906060 2.456935 0.001195 -0.000064 0.000299
Ga -3.268665 -1.872041 7.635031 -0.000001 -0.000262 0.000607
Ga -3.224183 -1.892414 -2.729313 0.000544 -0.000097 0.000194
Ga -1.650430 0.897612 2.446742 0.001705 -0.000738 0.000805
Ga -1.657211 0.897876 7.648601 0.001206 -0.000346 -0.000731
Ga -1.618769 0.900400 -2.735778 0.001796 -0.000720 -0.000192
Al -3.234028 3.649823 2.454891 0.000325 0.000191 0.000510
Ga -3.270177 3.666574 7.645558 0.001668 -0.000158 0.000537
Ga -3.227593 3.669851 -2.741769 0.000662 -0.000218 0.000002
Ga -0.025521 -1.886927 2.467840 0.000813 -0.000105 -0.000072
Ga -0.040564 -1.876032 7.642270 0.001319 -0.000331 0.000020
Ga 0.005545 -1.890051 -2.745933 0.000745 -0.000703 -0.000169
Ga -0.036268 1.807266 5.029504 -0.000089 0.000895 0.000381
Al 0.000356 1.802051 -5.360785 0.000309 0.000673 0.000644
Ga -0.017012 1.822710 -0.115793 -0.000712 0.000461 0.000366
Al 3.170867 -3.739122 5.022439 0.000190 0.000483 -0.000011
Ga 3.212789 -3.745042 -5.338197 -0.000261 0.000230 0.000018
Ga 3.201046 -3.736791 -0.130344 -0.000534 -0.000265 -0.000390
Al 1.576036 -0.960535 5.051727 -0.000104 0.000523 -0.000064
Ga 1.611035 -0.971510 -5.354775 -0.001131 0.001362 -0.000277
Ga 1.602471 -0.958089 -0.137476 -0.000582 -0.000009 -0.000125
Ga 3.154022 1.781924 5.057114 -0.000236 0.000961 0.000258
Ga 3.200805 1.805715 -5.371339 0.000019 0.000193 0.000461
Ga 3.182891 1.823037 -0.129474 0.000139 -0.000914 -0.000456
Ga 6.356320 -3.729772 5.029715 0.000495 -0.000046 0.000925
Ga 6.425597 -3.750186 -5.351326 -0.000030 0.000139 -0.000161
Al 6.398367 -3.730510 -0.118083 -0.000322 -0.000157 -0.000127
Al 4.767772 -0.969248 5.039097 -0.000014 -0.000592 -0.000112
Ga 4.810019 -0.966516 -5.346640 -0.000255 0.000942 0.000687
Ga 4.803099 -0.968106 -0.133382 -0.000890 0.000467 -0.000392
Ga -3.263484 1.815544 5.051089 -0.000200 0.000792 0.000800
Ga -3.218199 1.811901 -5.363306 -0.000350 -0.000068 0.000363
Al -3.232865 1.826192 -0.131381 -0.000951 0.000092 0.000024
Ga -0.018544 -3.734740 5.030321 -0.000366 -0.000050 0.000045
Al 0.003779 -3.740194 -5.346066 -0.000296 0.000206 0.000214
Ga -0.013888 -3.738568 -0.121271 0.000181 -0.000471 -0.000212
Ga -1.652180 -0.967333 5.039000 -0.000546 0.000003 -0.000159
Ga -1.592438 -0.965951 -5.341714 -0.000808 0.000978 -0.000540
Ga -1.629745 -0.959857 -0.127905 -0.001031 -0.000030 -0.000800
N 1.559345 0.835159 4.384003 0.000573 -0.001086 -0.000410
N 1.558753 0.900350 -6.020167 -0.000256 -0.000414 -0.000392
N 1.578489 0.895406 -0.783813 0.000418 -0.000438 -0.000139
N -0.087633 3.680239 4.375213 -0.000789 0.000198 -0.000725
N -0.009973 3.611802 -5.968104 -0.000015 -0.000823 -0.000016
N 0.018346 3.686050 -0.749375 0.000687 0.000107 -0.000620
N 3.167884 -1.888567 4.481687 0.000216 -0.000426 0.001376
N 3.215055 -1.895299 -6.011296 0.000243 -0.000705 -0.000498
N 3.196492 -1.885005 -0.820229 0.000379 -0.000652 -0.000110
N -4.860193 0.840855 4.430660 0.000555 -0.000539 -0.000066
N -4.819283 0.876638 -6.042326 0.000461 -0.000536 -0.000741
N -4.796757 0.917458 -0.742113 0.000726 -0.000611 0.000138
N -6.471168 3.654423 4.423429 -0.000004 -0.000224 0.000167
N -6.381159 3.681545 -5.968015 0.000411 0.000171 -0.000014
N -6.482189 3.695290 -0.742466 -0.000816 0.000218 -0.000158
N -3.291679 -1.866896 4.380295 -0.000683 0.000404 -0.000842
N -3.208534 -1.886941 -5.980540 0.000266 -0.000477 -0.000123
N -3.223626 -1.931506 -0.749086 0.000162 -0.001060 -0.000852
N -1.659424 0.892514 4.416962 0.000663 -0.000515 -0.000262
N -1.569576 0.911463 -5.963921 0.000589 -0.001001 0.000107
N -1.664934 0.924349 -0.743646 0.000562 -0.000817 0.000476
N -3.216048 3.677563 4.377824 0.000946 -0.000241 -0.000991
N -3.253716 3.688032 -5.963074 -0.000138 -0.000008 -0.000131
N -3.235746 3.627728 -0.757288 0.000496 -0.001057 -0.000738
N 0.003265 -1.857199 4.440961 0.000758 -0.000287 0.000374
N 0.004288 -1.933949 -5.964986 0.000600 -0.001367 0.000177
N -0.013262 -1.880751 -0.766683 0.000113 -0.000790 0.000253
N 0.012138 1.826889 1.875032 -0.000563 0.000891 -0.000434
N -0.007284 1.785839 7.011548 -0.000152 0.000066 0.000038
N -0.007990 1.808492 -3.432650 -0.001239 0.000672 -0.000792
N 3.184927 -3.788530 1.861810 -0.000638 0.000672 0.000095
N 3.166285 -3.746850 6.947232 -0.000803 0.000233 -0.000824
N 3.211627 -3.695502 -3.352573 -0.000847 0.001040 0.000088
N 1.588528 -0.928393 1.845013 -0.000963 0.000648 -0.000213
N 1.558581 -0.911755 6.975762 -0.001427 0.001007 -0.000490
N 1.648499 -0.990366 -3.370169 -0.000479 0.000268 0.000035
N 3.129111 1.775581 1.848802 -0.000341 0.000876 -0.000055
N 3.150164 1.762157 7.048653 -0.000374 -0.000508 0.000557
N 3.201186 1.809790 -3.384724 -0.000305 0.000413 -0.000350
N 6.346702 -3.719199 1.813904 -0.000708 0.000346 0.000144
N 6.369677 -3.735476 7.008467 0.000197 0.000067 -0.000280
N 6.416912 -3.739677 -3.379917 -0.000360 0.000107 -0.000460
N 4.817013 -0.999389 1.847239 -0.000422 0.000720 -0.000217
N 4.772758 -0.915753 6.960846 -0.000464 0.000889 -0.000957
N 4.771538 -0.985493 -3.356478 -0.001458 0.000161 -0.000262
N -3.249646 1.854986 1.790649 -0.000371 0.000786 -0.000050
N -3.303382 1.794229 7.033968 -0.001349 -0.000202 0.000415
N -3.224785 1.809902 -3.385190 -0.000870 0.000529 -0.000121
N 0.015716 -3.767872 1.860428 -0.000220 0.000343 -0.000131
N -0.042275 -3.734472 7.000029 -0.000786 0.000270 -0.000081
N -0.003797 -3.738413 -3.422986 -0.000458 0.000118 -0.000730
N -1.675471 -0.996628 1.853977 -0.001206 0.000899 0.000377
N -1.651608 -0.960248 7.012418 -0.000765 0.000420 -0.000173
N -1.608072 -0.961979 -3.363679 -0.001136 0.000409 0.000336
