108
Energy=-2084581.760869 Lattice="9.600691 0.000000 0.000000 -4.810715 8.307421 0.000000 -0.010782 -0.010170 15.534321" Stress="-0.000005 -0.000003 -0.000003 -0.000003 -0.000005 -0.000003 -0.000003 -0.000003 -0.000003" Properties=species:S:1:pos:R:3:forces:R:3
Al 1.572484 0.887961 2.420858 0.000833 0.000231 0.001891
Al 1.583573 0.900145 7.644352 0.000296 -0.000160 0.001255
Al 1.584870 0.887882 -2.757681 0.000834 0.000449 0.001065
Al -0.026965 3.633316 2.440064 0.000267 0.000108 0.000752
Al -0.009350 3.632779 7.644016 -0.000157 0.000427 0.001309
Ga -0.004690 3.648919 -2.760637 0.000323 -0.000149 0.001350
Ga 3.188926 -1.887072 2.430436 0.000578 0.000263 0.001353
Ga 3.186928 -1.877620 7.616899 0.000067 -0.000156 0.001343
Ga 3.190021 -1.865553 -2.727261 0.000325 0.000040 0.000640
Ga -4.854990 0.867277 2.421674 0.000191 -0.000119 0.001607
Al -4.852443 0.882777 7.624662 0.000300 0.000023 0.000801
Al -4.840618 0.880096 -2.734326 -0.000258 0.000388 0.001600
Ga -6.444515 3.631743 2.406549 0.000477 0.000193 0.001506
Al -6.450185 3.629213 7.646333 0.000008 0.000302 0.000830
Ga -6.428850 3.647322 -2.749464 -0.000269 -0.000755 0.001234
Ga -3.238195 -1.890727 2.449431 -0.000297 0.000026 0.001142
Ga -3.228537 -1.894997 7.611359 0.000263 0.000206 0.001325
Al -3.214491 -1.881561 -2.746415 -0.000125 -0.000138 0.001322
Ga -1.621713 0.881004 2.446625 0.001114 0.000042 0.000378
Ga -1.622363 0.885680 7.633580 0.000752 -0.000537 0.000208
Ga -1.615841 0.882126 -2.747088 0.001316 0.000144 -0.000071
Ga -3.237057 3.651918 2.435300 0.000401 0.000073 0.000425
Ga -3.241440 3.641221 7.628337 0.000774 0.000210 0.000410
Ga -3.239751 3.662410 -2.724448 0.000712 -0.000392 0.000532
Ga -0.028247 -1.886144 2.438463 0.000968 -0.000192 0.000487
Ga -0.030592 -1.880348 7.615067 0.000888 -0.000081 0.001324
Al -0.020660 -1.878416 -2.723856 0.000546 -0.000021 0.001073
Ga -0.017691 1.794989 5.036252 -0.000857 0.000344 0.001620
Al 0.007279 1.817065 -5.336736 -0.000246 0.000486 0.001028
Ga 0.004203 1.811132 -0.140406 -0.001329 -0.000427 -0.001217
Ga 3.196886 -3.739053 5.037114 -0.000257 0.000171 0.000595
Ga 3.207886 -3.740807 -5.328976 -0.000316 0.000377 0.000590
Ga 3.193270 -3.724994 -0.133424 -0.001409 -0.000372 -0.002768
Ga 1.581016 -0.955764 5.029485 -0.000684 0.000471 0.000543
Ga 1.583175 -0.938796 -5.306271 -0.000686 0.000659 0.000888
Ga 1.591605 -0.947370 -0.158182 -0.002000 -0.000807 -0.002604
Ga 3.167325 1.790318 5.047746 -0.000427 -0.000166 0.002241
Al 3.152220 1.790350 -5.343447 0.006796 0.010298 0.003346
Al 3.176962 1.798191 -0.176885 0.000457 0.000244 0.000121
Ga 6.374178 -3.733754 5.038594 -0.000525 -0.000398 0.001236
Al 6.388744 -3.738484 -5.339083 -0.000330 -0.000355 0.001416
Ga 6.391986 -3.719933 -0.151559 -0.000093 -0.000026 -0.001342
Al 4.785259 -0.960597 5.045798 -0.000625 -0.000408 0.001165
Ga 4.795102 -0.946910 -5.316338 -0.000790 0.000728 0.001582
Al 4.788081 -0.949330 -0.179078 0.000194 0.000233 -0.001020
Ga -3.240862 1.780887 5.042615 0.000045 -0.000081 0.000859
Ga -3.239630 1.804497 -5.319386 -0.000205 -0.000254 0.001311
Ga -3.247787 1.809743 -0.156245 -0.000959 -0.000664 -0.002363
Ga -0.038220 -3.732298 5.045833 -0.000013 -0.000199 0.001237
Ga -0.037926 -3.730273 -5.323473 -0.000439 -0.000042 0.001352
Al -0.022979 -3.728308 -0.160707 -0.000166 0.000680 -0.001338
Al -1.635748 -0.966749 5.035506 -0.000609 0.000218 0.000781
Ga -1.614824 -0.962540 -5.297778 -0.000858 0.000460 0.001242
Ga -1.622070 -0.970159 -0.168867 -0.000980 -0.000558 -0.002983
N 1.574489 0.883098 4.342295 0.000944 -0.000335 -0.001596
N 1.592712 0.936194 -5.958250 -0.006322 -0.003097 -0.004182
N 1.615609 0.915848 -0.833639 0.000794 -0.000344 -0.000576
N -0.028613 3.639994 4.354503 0.000397 0.000143 -0.001261
N 0.022318 3.630727 -5.960804 0.000716 -0.000136 -0.001251
N -0.018708 3.654195 -0.787606 0.000047 -0.000041 -0.000975
N 3.222818 -1.866438 4.426002 0.000657 0.000251 -0.000874
N 3.186638 -1.875151 -5.937848 0.000401 -0.000308 -0.001227
N 3.224591 -1.860191 -0.751262 0.000259 -0.000083 -0.000496
N -4.841856 0.828554 4.411880 0.000352 0.000052 -0.001756
N -4.870718 0.910692 -5.988641 -0.000045 -0.000513 -0.000892
N -4.871528 0.865409 -0.801853 0.000088 -0.000022 -0.001521
N -6.435678 3.638800 4.392489 0.000108 0.000208 -0.001639
N -6.471847 3.644567 -5.961171 0.000656 -0.007276 0.001309
N -6.388632 3.629058 -0.748738 0.000192 -0.000413 -0.000804
N -3.230745 -1.844556 4.448152 0.000291 0.000484 -0.001124
N -3.214461 -1.920903 -5.937198 0.000235 -0.000700 -0.001255
N -3.258378 -1.863011 -0.823804 -0.000260 -0.000009 -0.001030
N -1.630547 0.834788 4.432025 0.000976 -0.000130 -0.000908
N -1.579518 0.912839 -5.913400 0.000694 -0.000234 -0.000826
N -1.616781 0.899537 -0.773213 0.000471 -0.000450 -0.000280
N -3.238003 3.648878 4.417861 0.000197 -0.000012 -0.000748
N -3.229272 3.659278 -5.937273 0.000373 0.000007 -0.001086
N -3.263720 3.686311 -0.747110 0.000073 -0.000140 -0.000618
N -0.067249 -1.866025 4.426323 0.000350 -0.000076 -0.001010
N -0.016014 -1.870444 -5.948052 0.000682 -0.000489 -0.001340
N -0.014834 -1.925069 -0.803507 0.000957 -0.000735 -0.001031
N 0.012606 1.819060 1.841630 0.000177 0.000494 0.001181
N 0.021338 1.823090 7.034232 -0.000363 0.000074 -0.001013
N 0.027799 1.784336 -3.414309 -0.000558 -0.000457 -0.001012
N 3.221221 -3.766584 1.835031 0.000477 0.000622 0.002501
N 3.230127 -3.767556 7.025592 -0.000078 -0.000062 -0.000640
N 3.188992 -3.729524 -3.358002 -0.000480 0.000328 -0.000836
N 1.576119 -0.923889 1.820181 -0.000366 0.001481 0.002317
N 1.580424 -0.907493 7.016902 -0.000857 0.000340 -0.001192
N 1.543373 -0.936802 -3.316508 -0.001173 0.000063 -0.000915
N 3.127682 1.771887 1.748801 -0.000940 -0.000434 -0.000317
N 3.166200 1.803768 7.050336 -0.000036 -0.000180 -0.000927
N 3.178703 1.756456 -3.396678 -0.000046 0.000184 -0.002534
N 6.331246 -3.755017 1.824886 0.000370 0.000287 0.001172
N 6.376998 -3.788570 7.031743 0.000327 -0.000327 -0.001046
N 6.391323 -3.682086 -3.408816 0.000281 0.000552 -0.001570
N 4.783667 -0.968903 1.734414 -0.000464 -0.000205 0.000908
N 4.779605 -0.914867 6.967348 -0.000408 0.000314 -0.001400
N 4.829568 -0.929818 -3.329452 0.000131 -0.000399 -0.001307
N -3.238968 1.795191 1.811182 0.000477 0.000454 0.002253
N -3.273618 1.772876 7.025091 -0.000776 -0.000361 -0.000769
N -3.272347 1.786119 -3.334328 -0.000312 -0.000296 -0.000788
N -0.025114 -3.730319 1.753655 -0.000552 -0.000333 0.000879
N -0.073242 -3.761433 7.027582 -0.000888 -0.000354 -0.000716
N -0.020333 -3.679691 -3.345595 -0.000379 0.000557 -0.001075
N -1.631792 -0.973289 1.795422 -0.000086 0.000955 0.003212
N -1.626257 -0.961574 6.947913 -0.000972 0.000187 -0.001147
N -1.613233 -1.008517 -3.314124 -0.000605 -0.000119 -0.000833
