108
Energy=-2359234.837409 Lattice="9.637455 0.000000 0.000000 -4.825626 8.339091 0.000000 0.019054 -0.008459 15.613632" Stress="0.000001 -0.000001 0.000004 -0.000001 -0.000001 -0.000001 0.000004 -0.000001 -0.000001" Properties=species:S:1:pos:R:3:forces:R:3
Al 1.583574 0.889313 2.461777 0.000198 -0.000428 0.000288
Al 1.585267 0.904738 7.631842 0.000437 -0.000462 0.000479
Ga 1.577097 0.885443 -2.735748 0.000535 -0.000534 0.001025
Al -0.009739 3.654733 2.460807 0.000219 -0.000015 0.000526
Al 0.002159 3.652562 7.637517 0.000029 -0.000161 0.000507
Ga -0.030538 3.669425 -2.744130 0.000000 -0.000109 0.000659
Ga 3.197711 -1.881136 2.463112 -0.000087 -0.000236 0.000263
Ga 3.220020 -1.896938 7.635071 0.000083 -0.000224 0.000589
Ga 3.178982 -1.898153 -2.735614 0.000234 -0.000300 0.000587
Al -4.853013 0.881023 2.475549 0.000197 -0.000383 0.000132
Ga -4.846410 0.876911 7.642726 0.000418 -0.000451 0.000494
Ga -4.848542 0.899066 -2.751357 0.000451 -0.000419 0.000199
Ga -6.464824 3.654654 2.451128 -0.000135 0.000166 0.000479
Al -6.459156 3.661713 7.646652 0.000180 -0.000151 0.000033
Ga -6.458240 3.668265 -2.737074 -0.000024 -0.000147 0.000720
Ga -3.245844 -1.899394 2.464012 0.000268 -0.000497 0.000312
Al -3.231932 -1.907148 7.635479 0.000171 -0.000103 0.000231
Ga -3.238074 -1.902059 -2.736304 0.000175 -0.000185 0.000825
Ga -1.621220 0.902972 2.474311 0.000743 -0.000569 0.000140
Ga -1.607559 0.891822 7.638402 0.000834 -0.000603 0.000096
Ga -1.641278 0.901475 -2.745123 0.000524 -0.000711 0.000149
Ga -3.234875 3.663365 2.463840 0.000303 -0.000267 0.000291
Ga -3.230390 3.665452 7.652169 0.000358 -0.000156 0.000433
Al -3.242122 3.667795 -2.747366 0.000246 -0.000411 0.000425
Ga -0.009255 -1.881322 2.456294 0.000585 -0.000317 0.000280
Ga -0.021594 -1.896146 7.656607 0.000646 -0.000327 0.000267
Ga -0.015693 -1.892190 -2.742416 0.000376 -0.000279 0.000116
Al -0.002942 1.818178 5.047158 -0.000488 0.000073 0.000681
Ga -0.022938 1.818534 -5.375089 -0.000391 0.000314 0.001082
Ga -0.008386 1.814916 -0.122086 -0.000467 0.000210 -0.000657
Ga 3.223497 -3.756277 5.052211 -0.000491 0.000189 0.000332
Ga 3.192314 -3.749801 -5.357367 -0.000094 0.000091 0.000643
Ga 3.199656 -3.747731 -0.136123 -0.000497 0.000247 -0.000813
Ga 1.599216 -0.951173 5.058923 -0.000727 0.000261 0.000249
Ga 1.583832 -0.955105 -5.374680 -0.000668 0.000395 0.000467
Al 1.587115 -0.962673 -0.124996 -0.000105 0.000403 0.000630
Ga 3.181275 1.799694 5.048180 0.000265 -0.000290 0.000899
Ga 3.168737 1.819636 -5.380433 -0.000166 0.000208 0.000873
Ga 3.179633 1.803792 -0.112895 -0.000329 0.000138 -0.000979
Ga 6.397128 -3.751646 5.075334 -0.000173 -0.000054 0.000738
Ga 6.396479 -3.742285 -5.398449 0.000041 -0.000119 0.000924
Al 6.397876 -3.751285 -0.126877 0.000329 0.000121 0.000860
Al 4.809344 -0.965599 5.053754 -0.000361 0.000290 0.000364
Ga 4.798217 -0.970370 -5.361370 -0.000207 -0.000076 0.000591
Ga 4.793947 -0.971259 -0.131218 -0.000292 0.000226 -0.000370
Ga -3.234249 1.801217 5.048251 -0.000423 -0.000191 0.000597
Ga -3.246471 1.821726 -5.351315 -0.000093 -0.000081 0.000306
Ga -3.242970 1.816173 -0.131410 -0.000464 0.000155 -0.000816
Ga -0.018979 -3.747782 5.067713 0.000016 -0.000001 0.000533
Ga -0.031874 -3.748743 -5.349232 -0.000384 -0.000055 0.000597
Ga -0.017277 -3.742047 -0.154254 -0.000284 -0.000037 -0.001145
Ga -1.628317 -0.964096 5.065131 -0.000426 0.000341 0.000117
Ga -1.644296 -0.965828 -5.365837 -0.000528 0.000083 0.000265
Ga -1.621379 -0.975675 -0.137184 -0.000923 0.000446 -0.000107
N 1.544271 0.906994 4.385562 0.000204 -0.000110 -0.000553
N 1.568869 0.893884 -6.061040 0.000520 -0.000309 -0.000700
N 1.582011 0.838733 -0.750518 0.000340 -0.000264 -0.000591
N -0.010869 3.617063 4.388420 0.000231 -0.000123 -0.000807
N -0.036982 3.665231 -6.053513 0.000038 -0.000020 -0.000596
N 0.016311 3.687368 -0.759146 0.000131 -0.000044 -0.000449
N 3.237805 -1.870550 4.450668 0.000290 -0.000110 -0.000318
N 3.189594 -1.892637 -5.997323 0.000258 -0.000162 -0.000589
N 3.147487 -1.870664 -0.744610 0.000032 -0.000076 -0.000511
N -4.843494 0.836570 4.401763 0.000160 -0.000069 -0.000699
N -4.853046 0.887718 -5.991247 0.000296 0.000036 -0.000405
N -4.848868 0.888443 -0.775619 0.000263 -0.000043 -0.000400
N -6.452476 3.667073 4.428292 -0.000181 0.000144 -0.000624
N -6.456126 3.670647 -6.047364 0.000182 0.000100 -0.000506
N -6.498261 3.684045 -0.742895 -0.000129 0.000148 -0.000593
N -3.268815 -1.878281 4.446062 0.000065 -0.000202 -0.000339
N -3.244834 -1.886199 -6.057342 0.000099 0.000000 -0.000486
N -3.235335 -1.945479 -0.747724 0.000233 -0.000187 -0.000433
N -1.579924 0.913391 4.456292 0.000696 -0.000166 -0.000283
N -1.640113 0.895756 -5.994362 0.000540 -0.000227 -0.000442
N -1.630406 0.892078 -0.763448 0.000679 -0.000186 -0.000181
N -3.233508 3.669338 4.435492 0.000279 -0.000003 -0.000536
N -3.248319 3.673656 -5.988947 0.000212 -0.000019 -0.000426
N -3.235968 3.664665 -0.823145 0.000448 0.000059 -0.000317
N -0.013018 -1.890552 4.433206 0.000497 -0.000253 -0.000381
N -0.031206 -1.890498 -5.982039 0.000448 -0.000403 -0.000200
N 0.024540 -1.863629 -0.755975 0.000351 -0.000247 -0.000199
N 0.023180 1.834488 1.862918 -0.000336 0.000580 0.000765
N 0.032048 1.835270 6.985855 -0.000374 0.000525 -0.000699
N -0.022968 1.814124 -3.389182 -0.000396 0.000462 -0.000740
N 3.240038 -3.772721 1.852537 0.000147 0.000003 0.000739
N 3.251245 -3.781225 7.033721 -0.000045 0.000254 -0.000457
N 3.152594 -3.771707 -3.362793 -0.000314 0.000293 -0.000508
N 1.592850 -0.918357 1.805037 -0.000705 0.000437 -0.000758
N 1.597690 -0.921178 7.040467 -0.000608 0.000605 -0.000133
N 1.586211 -0.962951 -3.396359 -0.000512 0.000516 -0.000526
N 3.188862 1.759569 1.876143 0.000348 -0.000018 0.000941
N 3.155825 1.832206 7.043548 -0.000407 0.000402 -0.000543
N 3.175345 1.816869 -3.392515 -0.000085 0.000296 -0.000861
N 6.363661 -3.770097 1.800948 -0.000284 0.000032 -0.000803
N 6.412395 -3.752205 7.072692 -0.000023 0.000138 -0.000312
N 6.400729 -3.746982 -3.409710 0.000132 0.000106 -0.000974
N 4.800282 -0.918997 1.845453 -0.000052 0.000480 0.000626
N 4.851619 -0.991493 6.976471 -0.000213 0.000262 -0.000557
N 4.795709 -0.971105 -3.376801 -0.000415 0.000315 -0.000416
N -3.281477 1.788257 1.855143 -0.000097 0.000065 0.000888
N -3.231914 1.807270 7.018390 -0.000442 0.000312 -0.000387
N -3.243102 1.862682 -3.366353 -0.000221 0.000625 -0.000263
N -0.018115 -3.746656 1.820278 -0.000118 -0.000085 0.001157
N -0.054102 -3.773918 7.044610 -0.000465 0.000028 -0.000372
N 0.011245 -3.770807 -3.355105 0.000091 0.000096 -0.000341
N -1.629256 -0.963842 1.840780 -0.000318 0.000226 0.000101
N -1.659463 -0.994049 7.041650 -0.000714 0.000302 -0.000139
N -1.634622 -0.967522 -3.378522 -0.000386 0.000470 -0.000274
