108
Energy=-1.352174e+06 Lattice="9.504575e+00 0.000000e+00 0.000000e+00 -4.755292e+00 8.231650e+00 0.000000e+00 9.697442e-03 1.705785e-02 1.533385e+01" Stress="-1.465576e-04 -1.486603e-04 3.142530e-04 -1.469002e-04 -2.666174e-05 7.395320e-04 3.172721e-04 7.469833e-04 -4.323107e-04" Properties=species:S:1:pos:R:3:forces:R:3 Config_type=AlGaN_super3_20_0_25.xyz
Al 1.565478e+00 8.740608e-01 2.397532e+00 2.607792e-04 2.042029e-05 1.675635e-04
Al 1.580691e+00 8.866335e-01 7.488946e+00 9.101780e-05 3.757965e-04 -4.573817e-04
Al 1.561918e+00 8.778495e-01 -2.671758e+00 3.852551e-04 -8.293895e-05 -1.135978e-04
Al -1.403982e-02 3.618803e+00 2.389857e+00 1.713162e-05 3.091450e-04 2.879348e-04
Al -1.329967e-02 3.632299e+00 7.513373e+00 2.253981e-04 8.842766e-06 6.106190e-05
Al -2.964387e-02 3.612439e+00 -2.687224e+00 7.060886e-05 7.537678e-05 3.094245e-05
Al 3.146824e+00 -1.851943e+00 2.388633e+00 2.531675e-05 -1.532463e-04 -7.314284e-06
Al 3.153928e+00 -1.856055e+00 7.514662e+00 2.995787e-04 -1.897529e-04 1.198224e-05
Ga 3.145662e+00 -1.875455e+00 -2.687580e+00 -2.291220e-06 6.149124e-05 1.924978e-04
Al -4.791528e+00 8.676439e-01 2.389908e+00 -1.251714e-04 -2.368428e-04 8.592151e-05
Al -4.789411e+00 8.796674e-01 7.501162e+00 1.059172e-04 5.321454e-05 -2.525473e-04
Al -4.777069e+00 8.796696e-01 -2.671909e+00 7.833602e-05 -1.510696e-04 -3.290265e-04
Ga -6.377717e+00 3.607379e+00 2.404784e+00 -7.295877e-05 5.654054e-05 2.348903e-04
Al -6.368386e+00 3.612438e+00 7.494526e+00 1.266086e-05 -4.543014e-05 -2.802252e-05
Al -6.375191e+00 3.600663e+00 -2.677366e+00 5.100617e-04 1.766248e-04 -7.864779e-05
Ga -3.214722e+00 -1.874998e+00 2.405741e+00 -5.019875e-05 7.912872e-06 2.499821e-04
Al -3.201605e+00 -1.869568e+00 7.503751e+00 -2.800654e-04 -1.136564e-04 1.310609e-04
Al -3.194883e+00 -1.871663e+00 -2.685615e+00 -3.559281e-05 1.834641e-04 8.052966e-05
Ga -1.593377e+00 8.958066e-01 2.395314e+00 2.145334e-04 -3.153497e-05 7.980782e-05
Ga -1.597372e+00 8.934581e-01 7.524094e+00 1.065233e-04 8.584073e-05 -7.411141e-06
Al -1.612899e+00 8.786547e-01 -2.689031e+00 -2.934948e-04 -4.309874e-04 2.428406e-04
Ga -3.178797e+00 3.624587e+00 2.384586e+00 4.260753e-05 8.747653e-05 2.132280e-04
Al -3.180890e+00 3.630651e+00 7.531281e+00 3.089567e-05 -3.532459e-05 -1.642141e-05
Al -3.179358e+00 3.602583e+00 -2.684617e+00 1.117435e-05 6.947040e-05 3.140200e-05
Al 3.935573e-03 -1.852830e+00 2.408577e+00 1.190254e-04 4.100328e-05 1.466161e-04
Ga -3.798655e-03 -1.856342e+00 7.540308e+00 1.858993e-05 -1.080499e-05 4.792764e-05
Ga -2.480624e-02 -1.859620e+00 -2.713815e+00 1.196988e-05 -2.693958e-05 2.418359e-05
Al 1.211634e-02 1.807108e+00 4.955977e+00 1.388989e-05 -4.075720e-04 4.556253e-05
Ga -1.718647e-02 1.776275e+00 -5.238655e+00 -8.549687e-05 1.216488e-04 -1.054605e-04
Al -1.255644e-02 1.800853e+00 -1.660472e-01 -1.931628e-04 -8.357889e-05 1.209924e-04
Ga 3.176302e+00 -3.678022e+00 4.963538e+00 2.435923e-05 1.945321e-05 1.575523e-05
Al 3.141002e+00 -3.701441e+00 -5.266761e+00 9.903042e-06 2.023207e-04 -1.403644e-04
Al 3.164597e+00 -3.698896e+00 -1.428428e-01 -2.805340e-05 -6.951365e-05 4.642759e-05
Al 1.581856e+00 -9.299689e-01 4.943461e+00 2.792537e-04 2.312821e-04 -1.052892e-04
Al 1.564698e+00 -9.550352e-01 -5.265682e+00 9.249715e-05 1.281570e-04 1.735664e-05
Al 1.575762e+00 -9.394428e-01 -1.227645e-01 -9.288761e-05 -9.306954e-05 -9.136022e-05
Al 3.134441e+00 1.779420e+00 4.956684e+00 1.611744e-05 -1.656426e-04 5.642266e-05
Ga 3.130567e+00 1.770555e+00 -5.250478e+00 1.557343e-04 -1.670527e-05 3.079680e-04
Al 3.138741e+00 1.774004e+00 -1.525279e-01 6.439127e-06 3.911991e-05 -4.715584e-05
Al 6.305243e+00 -3.703102e+00 4.979944e+00 -2.251256e-04 -3.723004e-04 -4.152395e-05
Ga 6.305987e+00 -3.698603e+00 -5.253353e+00 1.169856e-04 -6.289005e-06 5.751726e-05
Al 6.294374e+00 -3.707934e+00 -1.710354e-01 9.166090e-05 -1.468799e-05 -5.231742e-05
Al 4.714517e+00 -9.456281e-01 4.965834e+00 1.884192e-04 3.043360e-04 -1.359453e-04
Ga 4.723990e+00 -9.668067e-01 -5.261066e+00 -1.244343e-04 2.590453e-05 1.954717e-04
Al 4.720700e+00 -9.477926e-01 -1.509030e-01 1.226537e-04 -1.161749e-04 -1.558809e-04
Ga -3.203776e+00 1.787203e+00 4.974560e+00 -9.959036e-05 -1.380075e-04 1.036834e-04
Ga -3.197331e+00 1.784706e+00 -5.238256e+00 -9.981610e-05 7.747828e-06 2.031873e-04
Al -3.196431e+00 1.785056e+00 -1.692003e-01 2.673064e-04 1.690754e-04 -6.783757e-04
Ga -2.483247e-02 -3.687051e+00 4.975834e+00 7.502978e-05 -4.591639e-07 1.217516e-04
Ga -1.996565e-02 -3.707677e+00 -5.247646e+00 5.279085e-05 -4.944055e-05 5.253314e-05
Ga -1.872289e-02 -3.707002e+00 -1.583734e-01 -2.460913e-05 2.615496e-04 -5.733445e-05
Ga -1.599166e+00 -9.526437e-01 4.955393e+00 -1.212161e-04 8.292041e-05 9.977462e-05
Al -1.617223e+00 -9.627741e-01 -5.240340e+00 -1.714344e-04 -4.379067e-05 5.879197e-05
Ga -1.614192e+00 -9.475996e-01 -1.461935e-01 1.447534e-04 1.711918e-04 -6.524767e-05
N 1.564712e+00 8.828285e-01 4.329480e+00 3.419669e-05 -5.672843e-05 -1.317089e-04
N 1.555825e+00 8.229903e-01 -5.930248e+00 -1.111981e-04 -2.242142e-04 3.840785e-04
N 1.561592e+00 8.671309e-01 -7.533330e-01 4.809370e-05 3.298808e-06 -1.122699e-04
N 2.423916e-02 3.601439e+00 4.315309e+00 1.916465e-04 5.831411e-04 -8.026300e-05
N -6.596533e-02 3.629446e+00 -5.903961e+00 -6.849789e-07 -4.538557e-05 9.665830e-05
N -3.189819e-02 3.619816e+00 -7.722560e-01 1.339730e-05 -1.776713e-05 7.672653e-05
N 3.152127e+00 -1.814330e+00 4.313792e+00 -6.803082e-05 -1.113734e-04 8.691825e-05
N 3.100467e+00 -1.898386e+00 -5.891311e+00 -4.957746e-05 -1.001870e-04 -1.540551e-04
N 3.140189e+00 -1.870269e+00 -7.041988e-01 -1.679742e-04 5.959447e-05 1.001033e-05
N -4.816526e+00 8.552928e-01 4.319502e+00 1.191254e-04 -2.596705e-04 3.246354e-05
N -4.784858e+00 8.676125e-01 -5.926600e+00 1.356824e-04 3.408159e-05 6.948692e-05
N -4.780512e+00 8.737611e-01 -7.578449e-01 2.800328e-05 3.823940e-05 -5.505215e-05
N -6.403905e+00 3.598531e+00 4.388938e+00 -1.044038e-04 1.164381e-04 -3.920209e-05
N -6.370270e+00 3.604378e+00 -5.926212e+00 -1.202419e-04 4.197489e-05 -1.472604e-04
N -6.406163e+00 3.587301e+00 -7.657946e-01 -1.466560e-04 5.228856e-05 5.235472e-05
N -3.238216e+00 -1.892281e+00 4.386350e+00 -2.378600e-04 8.159552e-05 6.175978e-06
N -3.156176e+00 -1.854885e+00 -5.913249e+00 9.002792e-06 4.598923e-05 -5.177612e-05
N -3.235294e+00 -1.890725e+00 -7.714428e-01 -4.162136e-05 1.034011e-05 1.400600e-04
N -1.559244e+00 9.164178e-01 4.368379e+00 1.051359e-04 -2.166798e-05 -4.330537e-05
N -1.608631e+00 8.247305e-01 -5.839388e+00 2.177405e-04 -1.765649e-05 -1.200764e-05
N -1.604182e+00 9.209273e-01 -7.720481e-01 2.161922e-05 1.453756e-04 7.106747e-05
N -3.181662e+00 3.626877e+00 4.344770e+00 5.751225e-05 -5.458793e-05 -1.533135e-04
N -3.155136e+00 3.631955e+00 -5.894411e+00 6.137046e-05 -2.761456e-05 -6.223359e-05
N -3.140387e+00 3.599852e+00 -7.681573e-01 -6.617182e-05 -3.166652e-04 6.396146e-05
N 3.194712e-02 -1.838000e+00 4.318885e+00 -1.187818e-04 -1.003432e-04 -1.844057e-04
N -2.658931e-02 -1.827096e+00 -5.812383e+00 2.185052e-05 8.162287e-05 -7.736511e-06
N 2.516650e-02 -1.837209e+00 -7.487915e-01 1.087376e-04 4.759575e-05 -9.413207e-05
N 2.740077e-02 1.819174e+00 1.757904e+00 -1.657149e-04 -1.030159e-04 -4.902574e-04
N 2.917729e-02 1.826783e+00 6.878219e+00 -1.296115e-04 3.123247e-05 1.173029e-04
N -1.775627e-02 1.784794e+00 -3.249768e+00 5.969279e-05 2.632490e-04 -1.275174e-04
N 3.198671e+00 -3.669504e+00 1.776016e+00 9.953560e-05 2.209741e-06 -7.621169e-05
N 3.156920e+00 -3.686958e+00 6.948585e+00 -2.524816e-04 2.442482e-04 -3.525133e-05
N 3.147550e+00 -3.748256e+00 -3.339521e+00 -1.166324e-04 -2.970581e-05 5.096507e-05
N 1.565620e+00 -9.444500e-01 1.796457e+00 -6.410481e-05 -7.350745e-05 -8.078533e-05
N 1.611256e+00 -9.233112e-01 6.867618e+00 -1.347193e-04 -2.969624e-04 1.985711e-04
N 1.571504e+00 -8.999955e-01 -3.356313e+00 -5.516350e-05 7.239958e-05 -5.504596e-05
N 3.143432e+00 1.742200e+00 1.766796e+00 -1.071863e-04 -2.489053e-05 -4.443640e-05
N 3.149406e+00 1.792843e+00 6.880637e+00 -1.880184e-05 -3.543195e-05 -1.111712e-04
N 3.141130e+00 1.781319e+00 -3.260137e+00 -2.791060e-04 2.794291e-05 1.336720e-04
N 6.275783e+00 -3.718258e+00 1.737253e+00 -1.207992e-04 -5.280174e-05 8.748375e-08
N 6.313529e+00 -3.691907e+00 6.902813e+00 -2.279411e-05 -3.941469e-05 -8.205239e-05
N 6.311404e+00 -3.701771e+00 -3.261304e+00 -1.080098e-04 -1.770713e-04 -1.519422e-04
N 4.690879e+00 -9.259528e-01 1.762604e+00 2.800385e-05 2.500439e-04 1.888910e-04
N 4.728192e+00 -9.465606e-01 6.897820e+00 -8.457710e-05 -7.902396e-05 -1.843678e-04
N 4.766847e+00 -9.308218e-01 -3.279209e+00 3.225573e-05 7.577113e-05 -2.076571e-05
N -3.236040e+00 1.764208e+00 1.744322e+00 -1.221312e-04 -4.879455e-05 3.690011e-04
N -3.231253e+00 1.821824e+00 6.944976e+00 -3.945750e-05 -4.250790e-05 -3.137720e-05
N -3.198929e+00 1.785208e+00 -3.252371e+00 -9.961482e-05 -2.941919e-05 8.733229e-05
N -2.698066e-02 -3.649028e+00 1.810125e+00 -6.630670e-06 -1.817101e-04 -1.544050e-04
N -1.466431e-02 -3.731824e+00 6.951611e+00 -3.463018e-05 -1.776414e-06 -2.333788e-05
N -2.377262e-02 -3.759192e+00 -3.263552e+00 -2.546392e-04 -8.724791e-05 1.277533e-04
N -1.569459e+00 -9.753883e-01 1.823287e+00 -2.344488e-04 -2.014609e-04 -9.153542e-05
N -1.637501e+00 -9.713687e-01 6.919074e+00 8.677088e-05 5.918288e-05 -1.334585e-04
N -1.659578e+00 -9.333903e-01 -3.319390e+00 3.550853e-05 1.991815e-04 2.159625e-06
