108
Energy=-6.197643e+05 Lattice="9.460834e+00 0.000000e+00 0.000000e+00 -4.736012e+00 8.186545e+00 0.000000e+00 -7.040473e-03 2.324417e-02 1.518612e+01" Stress="9.084448e-03 4.325230e-03 -1.308263e-04 4.310051e-03 1.213703e-02 1.295893e-03 -1.303429e-04 1.305036e-03 1.494850e-02" Properties=species:S:1:pos:R:3:forces:R:3 Config_type=AlGaN_super3_4_1_2.xyz
Al 1.552593e+00 9.008584e-01 2.430486e+00 -1.106273e-03 -1.054183e-02 -6.690280e-03
Al 1.554895e+00 9.076279e-01 7.450456e+00 -7.522314e-04 -1.158759e-02 -4.440927e-03
Al 1.568098e+00 8.879659e-01 -2.714724e+00 -8.060554e-04 -1.132098e-02 -4.099298e-03
Al -9.855305e-03 3.611694e+00 2.428361e+00 -1.341646e-02 -9.649071e-03 3.306808e-03
Al -1.171489e-02 3.614368e+00 7.448486e+00 -2.286799e-03 -9.599864e-04 -2.905232e-03
Al -1.698050e-03 3.597098e+00 -2.722369e+00 -1.497909e-03 -4.891159e-04 -4.164665e-03
Al 3.156070e+00 -1.870533e+00 2.419633e+00 -1.997096e-03 5.836050e-04 -4.568776e-03
Al 3.160107e+00 -1.863501e+00 7.451413e+00 -1.777814e-03 3.934530e-04 -3.056404e-03
Al 3.172780e+00 -1.881806e+00 -2.709197e+00 -1.487152e-03 3.098321e-04 -2.239163e-03
Al -4.781163e+00 9.019241e-01 2.419054e+00 1.492746e-03 -1.071800e-02 -4.364769e-03
Al -4.778444e+00 9.087919e-01 7.449051e+00 1.416449e-03 -1.094305e-02 -2.868373e-03
Al -4.766621e+00 8.905724e-01 -2.712005e+00 1.386312e-03 -1.106946e-02 -2.203345e-03
Al -6.347006e+00 3.611799e+00 2.418706e+00 5.759969e-03 -4.455749e-03 3.418144e-03
Al -6.343826e+00 3.613706e+00 7.447279e+00 -8.610938e-04 -4.491674e-05 -9.214009e-04
Al -6.330669e+00 3.594121e+00 -2.718243e+00 -1.167983e-03 6.830967e-04 -2.137623e-03
Al -3.178985e+00 -1.875551e+00 2.447477e+00 1.151679e-03 2.439566e-03 -6.693234e-03
Al -3.171359e+00 -1.860535e+00 7.448365e+00 -3.778472e-03 6.820540e-04 -4.087497e-05
Al -3.162890e+00 -1.878290e+00 -2.716152e+00 -7.228469e-04 6.990507e-04 -2.790078e-03
Al -1.653405e+00 9.029334e-01 2.428269e+00 1.316995e-02 -7.209483e-03 -7.235683e-03
Al -1.649022e+00 9.034340e-01 7.448855e+00 1.084152e-02 -1.722083e-03 -3.268167e-03
Al -1.642106e+00 8.913360e-01 -2.719015e+00 1.176973e-02 -6.609762e-03 -5.259435e-03
Al -3.216265e+00 3.610828e+00 2.418775e+00 9.706801e-03 4.391364e-03 -4.627023e-03
Al -3.215735e+00 3.614957e+00 7.447742e+00 1.072446e-02 4.356325e-03 -2.896259e-03
Al -3.202848e+00 3.597076e+00 -2.715510e+00 1.026413e-02 4.408324e-03 -2.428590e-03
Al -4.545780e-02 -1.868387e+00 2.422532e+00 9.104714e-03 5.989313e-03 -5.333342e-03
Ga -5.371729e-02 -1.864214e+00 7.463447e+00 1.379585e-02 7.974610e-03 -4.540304e-03
Ga -3.923130e-02 -1.885699e+00 -2.699376e+00 1.262524e-02 8.462651e-03 -4.891119e-03
Al -1.051537e-02 1.808805e+00 4.937638e+00 -1.021191e-02 -4.970189e-03 -4.999914e-03
Al 4.850179e-04 1.787749e+00 -5.227576e+00 -1.076151e-02 -5.949940e-03 -4.096045e-03
Al 1.247156e-04 1.793694e+00 -2.339420e-01 -1.014945e-02 -7.465588e-03 2.720188e-02
Al 3.158912e+00 -3.670380e+00 4.937323e+00 -9.119946e-03 -6.025774e-03 -2.771437e-03
Al 3.170504e+00 -3.689953e+00 -5.226696e+00 -1.044469e-02 -5.021981e-03 -3.162472e-03
Al 3.174786e+00 -3.687674e+00 -1.970893e-01 -1.214280e-02 -3.388630e-03 1.894752e-02
Al 1.596350e+00 -9.658721e-01 4.940351e+00 -1.245292e-02 7.166763e-03 -4.342608e-03
Al 1.603908e+00 -9.844791e-01 -5.218411e+00 -1.269871e-02 5.083990e-03 -4.812110e-03
Al 1.607431e+00 -9.781318e-01 -1.870667e-01 -1.282413e-02 5.676154e-03 1.598408e-02
Al 3.116495e+00 1.808569e+00 4.935773e+00 3.469318e-04 -5.845766e-04 -2.361714e-03
Al 3.128311e+00 1.789131e+00 -5.226416e+00 7.503721e-04 -1.417315e-03 -2.475790e-03
Al 3.133321e+00 1.796201e+00 -1.963547e-01 -4.099702e-04 -2.713259e-03 1.985758e-02
Al 6.286033e+00 -3.667091e+00 4.940699e+00 3.591525e-04 -2.339244e-03 -4.739672e-03
Al 6.299538e+00 -3.688710e+00 -5.227927e+00 6.474542e-04 4.936592e-05 -1.711502e-03
Ga 6.303155e+00 -3.685035e+00 -2.082692e-01 -3.525760e-04 -4.468775e-04 3.386363e-02
Al 4.718572e+00 -9.608121e-01 4.939504e+00 -1.663364e-03 1.159527e-02 -2.511269e-03
Al 4.733998e+00 -9.819669e-01 -5.224764e+00 -6.492578e-04 1.093656e-02 -3.335958e-03
Al 4.740297e+00 -9.758238e-01 -1.921269e-01 -2.489971e-03 1.134984e-02 1.849606e-02
Al -3.217147e+00 1.811552e+00 4.935346e+00 1.764955e-03 -1.338061e-03 -2.415122e-03
Al -3.204751e+00 1.790318e+00 -5.227718e+00 2.084156e-03 -1.155865e-03 -3.188710e-03
Al -3.200258e+00 1.796062e+00 -1.975494e-01 1.300214e-03 -5.658426e-04 1.850132e-02
Al -4.469489e-02 -3.669994e+00 4.934557e+00 9.398448e-04 -5.574668e-04 -2.514262e-03
Al -3.180432e-02 -3.683752e+00 -5.229504e+00 7.336399e-04 -9.245756e-03 1.771043e-03
Al -2.580508e-02 -3.668578e+00 -2.119249e-01 7.956737e-04 -1.433820e-02 2.754770e-02
Ga -1.611991e+00 -9.579395e-01 4.945492e+00 2.331679e-03 1.474013e-02 -5.402866e-03
Al -1.593663e+00 -9.819057e-01 -5.225768e+00 -4.215260e-03 1.230358e-02 -1.965520e-03
Al -1.583152e+00 -9.769167e-01 -2.053282e-01 -8.605356e-03 1.424527e-02 2.426631e-02
N 1.553615e+00 9.034867e-01 4.343648e+00 -7.971746e-05 -1.269193e-02 3.698936e-03
N 1.563127e+00 8.862687e-01 -5.820673e+00 -9.704384e-04 -1.340865e-02 3.757227e-03
N 1.568250e+00 8.918202e-01 -8.015559e-01 -1.230312e-03 -1.291832e-02 4.001007e-03
N -1.201289e-02 3.616429e+00 4.343297e+00 -4.876673e-03 -1.089946e-03 5.059885e-03
N -1.659350e-03 3.593960e+00 -5.823307e+00 -1.601586e-03 -1.425034e-04 1.926736e-03
N -3.817797e-03 3.597417e+00 -8.127492e-01 -1.666235e-02 -8.390074e-03 -1.384416e-03
N 3.156970e+00 -1.866633e+00 4.339336e+00 -2.167889e-03 1.619679e-03 -1.879329e-04
N 3.168575e+00 -1.885381e+00 -5.820170e+00 -3.078741e-03 1.838051e-03 1.388644e-03
N 3.173537e+00 -1.880644e+00 -7.904134e-01 -3.086545e-03 1.635894e-03 3.312432e-04
N -4.781482e+00 9.071730e-01 4.337769e+00 1.274981e-03 -1.182048e-02 3.058398e-03
N -4.769657e+00 8.870645e-01 -5.822590e+00 9.649456e-04 -1.153281e-02 4.010039e-03
N -4.765052e+00 8.931832e-01 -7.938064e-01 1.065788e-03 -1.160008e-02 3.205016e-03
N -6.346581e+00 3.615445e+00 4.337144e+00 2.377706e-03 -8.557720e-04 4.606366e-03
N -6.332866e+00 3.595992e+00 -5.824341e+00 -8.873578e-04 -1.412566e-03 1.974920e-03
N -6.321954e+00 3.599606e+00 -8.046999e-01 1.396357e-02 -1.001804e-02 -1.963831e-03
N -3.181926e+00 -1.860090e+00 4.349652e+00 -1.699554e-02 -7.336777e-03 -3.257150e-03
N -3.160756e+00 -1.883374e+00 -5.823075e+00 -2.092846e-03 1.911878e-03 1.889076e-03
N -3.155573e+00 -1.871980e+00 -8.016198e-01 -2.131694e-03 1.924806e-02 -2.289994e-03
N -1.654869e+00 9.149867e-01 4.341019e+00 1.171089e-02 8.677698e-03 7.196031e-04
N -1.640362e+00 8.875845e-01 -5.822879e+00 1.265100e-02 -7.151396e-03 6.549434e-03
N -1.638056e+00 8.928475e-01 -8.073098e-01 1.236647e-02 -7.349900e-03 7.002254e-03
N -3.217423e+00 3.615133e+00 4.337106e+00 1.078629e-02 5.269885e-03 2.938250e-03
N -3.206441e+00 3.596463e+00 -5.824224e+00 1.085553e-02 4.823062e-03 3.832786e-03
N -3.201587e+00 3.603344e+00 -7.990392e-01 1.059466e-02 4.557624e-03 3.311067e-03
N -4.241894e-02 -1.866331e+00 4.340806e+00 2.614184e-02 -2.214519e-03 -4.289272e-03
N -5.989003e-02 -1.916520e+00 -5.795737e+00 1.855780e-02 2.012330e-02 1.645454e-02
N -6.784730e-02 -1.915225e+00 -7.676405e-01 2.290322e-02 2.333149e-02 1.321922e-02
N -9.548261e-03 1.801753e+00 1.854194e+00 -1.153478e-02 -6.928449e-03 -2.551416e-02
N -9.640834e-03 1.807333e+00 6.853012e+00 -9.822686e-03 -6.781787e-03 3.986852e-03
N 1.212301e-03 1.788924e+00 -3.313772e+00 -9.619243e-03 -6.445287e-03 4.552723e-03
N 3.161058e+00 -3.676478e+00 1.818708e+00 -9.800329e-03 -5.180136e-03 -1.573419e-02
N 3.159841e+00 -3.670181e+00 6.852602e+00 -1.081132e-02 -4.274935e-03 4.240996e-03
N 3.171294e+00 -3.688231e+00 -3.312637e+00 -1.067504e-02 -4.256527e-03 3.977732e-03
N 1.593537e+00 -9.673741e-01 1.819054e+00 -1.103858e-02 6.266403e-03 -1.252730e-02
N 1.598738e+00 -9.615684e-01 6.858039e+00 5.307615e-04 1.408682e-02 5.731596e-04
N 1.612470e+00 -9.801362e-01 -3.302104e+00 1.847002e-04 1.400141e-02 3.754051e-04
N 3.113880e+00 1.803955e+00 1.819482e+00 2.507211e-03 -2.499690e-03 -1.842373e-02
N 3.118216e+00 1.809527e+00 6.851817e+00 7.824941e-04 -1.974373e-03 1.473120e-03
N 3.130699e+00 1.790091e+00 -3.311731e+00 6.229442e-04 -1.822835e-03 1.321829e-03
N 6.270631e+00 -3.713048e+00 1.949887e+00 8.895100e-03 1.718288e-02 -3.527390e-02
N 6.288907e+00 -3.668387e+00 6.853265e+00 9.456716e-04 6.624093e-04 2.308603e-03
N 6.300406e+00 -3.686912e+00 -3.313759e+00 5.350644e-04 -4.222112e-05 2.115277e-03
N 4.722997e+00 -9.748669e-01 1.824546e+00 2.570815e-04 1.177696e-02 -1.577797e-02
N 4.723145e+00 -9.603837e-01 6.853872e+00 -1.306964e-03 1.137210e-02 3.639475e-03
N 4.735264e+00 -9.789786e-01 -3.309334e+00 -1.452501e-03 1.157164e-02 3.712112e-03
N -3.214926e+00 1.803958e+00 1.817951e+00 2.400771e-03 -1.736309e-03 -1.822365e-02
N -3.213671e+00 1.808855e+00 6.851514e+00 1.915305e-03 -9.932210e-04 9.597001e-04
N -3.203482e+00 1.792385e+00 -3.312280e+00 1.782077e-03 -1.245047e-03 8.856557e-04
N -4.460349e-02 -3.673368e+00 1.818056e+00 1.665191e-03 -4.656951e-04 -1.832355e-02
N -4.658387e-02 -3.673637e+00 6.849879e+00 2.589421e-03 -1.786388e-02 -5.590827e-03
N -3.241817e-02 -3.693080e+00 -3.314651e+00 2.597551e-03 -1.896916e-02 -4.246333e-03
N -1.613226e+00 -9.756402e-01 1.828507e+00 -3.288868e-04 1.220486e-02 -1.766121e-02
N -1.621964e+00 -9.465481e-01 6.869482e+00 -1.173259e-02 1.770315e-02 1.431397e-02
N -1.602846e+00 -9.774193e-01 -3.312110e+00 -1.485502e-02 2.187354e-02 -2.392583e-03
