108
Energy=-1.672602e+06 Lattice="9.532866e+00 0.000000e+00 0.000000e+00 -4.771209e+00 8.252742e+00 0.000000e+00 4.967608e-03 -5.145311e-03 1.539002e+01" Stress="-5.628533e-03 -8.107624e-05 4.637644e-04 -8.982802e-05 -6.257684e-03 -2.370347e-04 4.617738e-04 -2.527924e-04 -6.724209e-03" Properties=species:S:1:pos:R:3:forces:R:3 Config_type=AlGaN_super3_27_1_10.xyz
Al 1.577424e+00 8.627958e-01 2.378281e+00 -3.756113e-03 5.879357e-03 9.748082e-03
Al 1.568984e+00 8.742410e-01 7.536867e+00 2.663545e-04 -5.306285e-04 5.540097e-04
Al 1.554063e+00 8.799604e-01 -2.694185e+00 -9.791020e-05 -3.839715e-04 -2.230020e-04
Al -2.225999e-02 3.637164e+00 2.417448e+00 -2.001634e-03 -4.293407e-03 2.640352e-03
Al -3.047766e-02 3.624215e+00 7.547757e+00 -1.875251e-04 3.268046e-04 7.149674e-04
Ga -3.656558e-02 3.615008e+00 -2.717273e+00 -2.228192e-04 8.429241e-05 9.987375e-05
Al 3.149379e+00 -1.876397e+00 2.445000e+00 2.361191e-04 -3.003527e-03 7.668502e-04
Ga 3.155327e+00 -1.892681e+00 7.532669e+00 -5.057116e-04 -8.925782e-05 9.309160e-04
Ga 3.147940e+00 -1.880443e+00 -2.724080e+00 -4.830393e-05 -1.019835e-04 -5.307650e-04
Al -4.802711e+00 8.849070e-01 2.410928e+00 1.511381e-03 7.906258e-04 1.837150e-03
Ga -4.788436e+00 8.941815e-01 7.564428e+00 -3.234652e-04 -7.221087e-04 7.323757e-04
Ga -4.798678e+00 8.886001e-01 -2.726169e+00 2.737912e-04 -4.903737e-04 3.362813e-04
Al -6.378805e+00 3.622450e+00 2.399771e+00 2.860288e-03 5.503140e-04 -2.756928e-03
Ga -6.384879e+00 3.615885e+00 7.559543e+00 -5.055072e-04 2.486175e-04 8.556632e-04
Ga -6.376092e+00 3.623666e+00 -2.707388e+00 -2.656972e-04 1.947277e-04 7.007930e-04
Al -3.196200e+00 -1.879199e+00 2.430046e+00 1.492830e-03 4.141876e-04 4.844147e-04
Ga -3.190842e+00 -1.883761e+00 7.551432e+00 -2.619210e-04 1.326856e-04 9.464512e-04
Ga -3.193705e+00 -1.869411e+00 -2.716262e+00 -4.464920e-04 -9.131357e-05 -4.297096e-04
Ga -1.612938e+00 8.884319e-01 2.431695e+00 1.251969e-03 -8.554569e-04 8.433818e-05
Ga -1.622365e+00 8.937959e-01 7.528218e+00 1.857281e-03 -9.594770e-04 1.817562e-03
Al -1.612377e+00 8.913547e-01 -2.708831e+00 1.262654e-03 -2.575410e-04 -2.583802e-05
Al -3.210727e+00 3.611735e+00 2.434688e+00 2.051889e-03 9.386607e-03 -7.641794e-04
Al -3.183791e+00 3.620693e+00 7.535484e+00 9.193760e-04 6.984155e-04 7.039777e-04
Al -3.203974e+00 3.633704e+00 -2.721187e+00 4.330143e-04 4.112122e-04 4.112747e-04
Al -1.056846e-03 -1.886328e+00 2.433808e+00 -8.549567e-03 -3.200993e-03 -2.345463e-03
Ga -8.775011e-03 -1.865662e+00 7.520177e+00 7.878537e-04 3.130938e-04 1.423525e-03
Al -1.661561e-02 -1.868079e+00 -2.696387e+00 5.430643e-04 -5.147858e-06 -1.431754e-04
Ga -2.472856e-02 1.791416e+00 4.986712e+00 1.317342e-03 -5.063989e-04 -9.770274e-04
Ga -1.835613e-02 1.804989e+00 -5.289133e+00 -4.999582e-04 5.964219e-05 1.437261e-03
Al -1.330828e-02 1.792630e+00 -1.450917e-01 -1.862360e-03 3.946805e-04 1.812107e-03
Al 3.155386e+00 -3.719746e+00 4.965068e+00 -1.595798e-03 -8.631437e-05 -4.122236e-04
Al 3.161244e+00 -3.718389e+00 -5.295747e+00 -2.447493e-04 3.073626e-04 9.619453e-04
Ga 3.146503e+00 -3.719030e+00 -1.241010e-01 -5.269944e-04 -3.775509e-04 4.208931e-03
Al 1.569819e+00 -9.620449e-01 4.954770e+00 -1.246836e-04 2.584227e-03 9.264642e-05
Ga 1.586497e+00 -9.466665e-01 -5.264706e+00 -1.110070e-03 6.482899e-04 1.554098e-03
Ga 1.565128e+00 -9.488480e-01 -1.300259e-01 -2.196797e-03 -8.828904e-04 -1.871432e-03
Ga 3.155952e+00 1.785244e+00 4.958920e+00 -4.873545e-04 -1.562712e-03 3.072412e-04
Al 3.145782e+00 1.790671e+00 -5.278304e+00 -2.363711e-04 -1.175807e-04 1.210597e-03
Al 3.140149e+00 1.799935e+00 -1.290076e-01 7.348034e-04 4.343110e-04 -3.588152e-04
Ga 6.330615e+00 -3.709374e+00 4.956278e+00 -2.293021e-04 -2.052637e-04 6.448134e-04
Al 6.318455e+00 -3.709214e+00 -5.286786e+00 1.342323e-04 -1.683525e-04 8.445013e-04
Ga 6.339170e+00 -3.721516e+00 -1.113564e-01 4.777967e-04 -4.562800e-04 1.015837e-03
Ga 4.752645e+00 -9.530533e-01 4.953231e+00 -8.360461e-04 8.591133e-04 3.804247e-04
Al 4.746849e+00 -9.534975e-01 -5.286770e+00 -4.019755e-04 -1.922663e-05 4.418275e-04
Ga 4.740519e+00 -9.508994e-01 -9.982890e-02 1.988160e-05 5.506730e-04 -2.268625e-03
Al -3.194020e+00 1.799267e+00 4.987255e+00 -4.441532e-03 7.477358e-04 -7.627402e-03
Al -3.212452e+00 1.812113e+00 -5.267593e+00 6.727993e-04 -1.786931e-04 1.249803e-03
Ga -3.211794e+00 1.814284e+00 -1.499330e-01 7.192500e-04 1.126714e-04 7.125752e-04
Ga -1.725341e-03 -3.709501e+00 4.963279e+00 9.476400e-04 -5.724140e-04 3.769287e-04
Ga -1.210884e-02 -3.719246e+00 -5.278338e+00 8.314332e-05 2.206763e-04 1.130506e-03
Al -1.706685e-02 -3.709051e+00 -1.432109e-01 4.144598e-04 -3.271086e-04 1.420812e-03
Al -1.602779e+00 -9.567461e-01 4.959097e+00 -3.721615e-05 6.493278e-04 -5.364782e-04
Ga -1.622683e+00 -9.488165e-01 -5.254842e+00 -1.535400e-04 5.089186e-04 1.265109e-03
Ga -1.595276e+00 -9.543958e-01 -1.413330e-01 9.137509e-05 8.078765e-04 -1.522588e-04
N 1.561184e+00 8.363254e-01 4.317640e+00 7.194278e-04 -1.987225e-03 -5.513206e-03
N 1.602762e+00 8.973845e-01 -5.940425e+00 8.920809e-04 -2.415717e-04 -1.364462e-03
N 1.565444e+00 9.266990e-01 -7.691027e-01 6.664444e-04 -3.037032e-04 8.524719e-04
N -6.810469e-02 3.640442e+00 4.329200e+00 1.345596e-03 9.222429e-04 -1.127354e-03
N -2.836004e-02 3.675455e+00 -5.919317e+00 -1.815444e-04 2.832533e-04 -9.622615e-04
N -2.632598e-02 3.588751e+00 -7.436715e-01 -6.876956e-05 -6.127425e-04 2.725493e-04
N 3.119297e+00 -1.903008e+00 4.361704e+00 -5.226130e-04 -4.785401e-04 -8.310313e-04
N 3.194247e+00 -1.899264e+00 -5.869196e+00 3.169680e-04 -1.906816e-04 -7.438485e-04
N 3.162305e+00 -1.876964e+00 -7.580618e-01 -5.030973e-04 2.577656e-04 1.115588e-03
N -4.751251e+00 9.067961e-01 4.318821e+00 2.497598e-03 3.102937e-04 5.139451e-04
N -4.790847e+00 8.880705e-01 -5.835373e+00 2.890384e-04 7.292706e-05 -1.591630e-04
N -4.840172e+00 8.993564e-01 -7.464375e-01 1.004669e-04 7.073316e-05 -1.008997e-04
N -6.370820e+00 3.623798e+00 4.300128e+00 -3.270367e-04 1.083057e-03 4.492606e-04
N -6.421680e+00 3.606326e+00 -5.852077e+00 -3.195790e-04 -4.734703e-05 -3.605353e-04
N -6.341591e+00 3.605395e+00 -7.178745e-01 -2.351593e-04 -1.377447e-04 -3.989426e-04
N -3.152289e+00 -1.853322e+00 4.332049e+00 2.396004e-04 5.502849e-05 -1.009666e-03
N -3.232243e+00 -1.893587e+00 -5.860404e+00 -4.542541e-04 8.077158e-05 -5.008630e-04
N -3.204747e+00 -1.876382e+00 -7.518569e-01 -1.872626e-04 1.345781e-05 5.677189e-04
N -1.655080e+00 8.627256e-01 4.405390e+00 1.767433e-03 -2.345145e-03 8.971406e-04
N -1.666287e+00 9.069203e-01 -5.884609e+00 2.467404e-04 -1.285833e-04 -7.795987e-04
N -1.580776e+00 9.102567e-01 -7.869610e-01 1.226836e-03 1.499579e-05 -4.357679e-04
N -3.159464e+00 3.597495e+00 4.343942e+00 -1.779247e-04 8.089671e-04 4.211354e-04
N -3.163053e+00 3.606334e+00 -5.928228e+00 5.544957e-04 -6.477077e-04 -1.323864e-03
N -3.242711e+00 3.659891e+00 -8.071371e-01 2.401285e-04 -2.331229e-04 -2.850960e-04
N -1.658024e-02 -1.832598e+00 4.349312e+00 4.602307e-05 -4.430094e-04 -8.261736e-04
N -2.197526e-02 -1.863310e+00 -5.900654e+00 5.041120e-04 -3.128887e-04 -1.060253e-03
N -1.853982e-02 -1.919381e+00 -7.854143e-01 9.149661e-04 -1.925429e-04 -2.366566e-04
N 1.567251e-02 1.820419e+00 1.785852e+00 1.154571e-03 -1.583554e-03 -2.588000e-03
N 2.257977e-02 1.816218e+00 6.967442e+00 -3.663934e-04 1.443269e-04 -8.090180e-05
N -2.154976e-02 1.746246e+00 -3.305833e+00 -4.160519e-04 -7.293205e-04 -6.864862e-04
N 3.162354e+00 -3.708286e+00 1.874140e+00 -4.864285e-03 -1.589378e-04 -4.570473e-03
N 3.164204e+00 -3.763818e+00 6.895829e+00 -8.144670e-04 -6.985034e-05 -5.346173e-04
N 3.117258e+00 -3.736590e+00 -3.378083e+00 -9.831580e-04 -5.435435e-05 -6.640369e-04
N 1.553984e+00 -9.695530e-01 1.857910e+00 6.894258e-03 1.372938e-03 -2.870490e-03
N 1.581451e+00 -9.131644e-01 6.874891e+00 -1.004993e-03 7.233119e-04 -7.148239e-04
N 1.529149e+00 -9.272678e-01 -3.284653e+00 -1.384518e-03 7.008077e-04 2.304104e-04
N 3.150206e+00 1.790709e+00 1.792410e+00 -1.401018e-04 -1.719283e-03 -4.955860e-05
N 3.118656e+00 1.769947e+00 6.932060e+00 -1.434902e-04 -2.499138e-04 -6.857316e-04
N 3.098986e+00 1.771249e+00 -3.362210e+00 -2.860117e-04 -4.423804e-04 -1.019546e-03
N 6.327895e+00 -3.711952e+00 1.875622e+00 2.826964e-03 2.497736e-03 -3.088992e-03
N 6.297210e+00 -3.735648e+00 6.933943e+00 5.203511e-05 -4.098552e-04 -8.264804e-04
N 6.329843e+00 -3.711172e+00 -3.376294e+00 3.987251e-04 -1.561291e-04 -8.682126e-04
N 4.743238e+00 -9.612970e-01 1.876258e+00 -1.516376e-03 1.073995e-03 1.963177e-03
N 4.752446e+00 -9.518004e-01 6.923628e+00 -2.617949e-04 2.157879e-04 -3.063800e-04
N 4.744988e+00 -9.552199e-01 -3.382445e+00 -3.686141e-04 3.413136e-04 -1.020387e-03
N -3.240259e+00 1.827638e+00 1.831027e+00 -1.152307e-03 -5.287164e-03 -2.574386e-03
N -3.213041e+00 1.843280e+00 6.879652e+00 3.373273e-04 -3.228967e-06 3.221475e-03
N -3.166599e+00 1.826005e+00 -3.339519e+00 3.822820e-04 -2.394104e-05 -6.931915e-04
N -1.042295e-02 -3.716284e+00 1.785236e+00 -3.672988e-04 2.335168e-03 5.666121e-03
N 2.080006e-02 -3.737517e+00 6.943529e+00 4.951746e-04 -2.434944e-04 -7.301974e-04
N 1.662626e-02 -3.680392e+00 -3.298265e+00 5.955646e-04 1.069610e-04 -7.562415e-04
N -1.607303e+00 -9.949181e-01 1.830819e+00 2.364546e-03 -2.778057e-03 3.205468e-03
N -1.609670e+00 -9.580774e-01 6.869906e+00 -3.929217e-04 3.869292e-04 -1.645849e-03
N -1.567523e+00 -9.271485e-01 -3.278201e+00 1.674449e-04 4.687760e-04 1.846648e-04
