108
Energy=-2.542337e+06 Lattice="9.656252e+00 0.000000e+00 0.000000e+00 -4.828150e+00 8.361892e+00 0.000000e+00 1.001079e-03 1.749785e-03 1.567147e+01" Stress="8.188526e-06 5.008697e-06 2.933907e-05 4.336398e-06 3.938256e-06 2.377296e-05 3.448129e-05 3.147859e-05 5.870183e-06" Properties=species:S:1:pos:R:3:forces:R:3 Config_type=AlGaN_super3_46_2_12.xyz
Al 1.587017e+00 8.913402e-01 2.470482e+00 -5.773514e-06 6.425534e-06 4.831872e-06
Al 1.588810e+00 9.075523e-01 7.687323e+00 -1.310691e-05 1.158868e-05 -1.899900e-05
Ga 1.596087e+00 8.907966e-01 -2.765155e+00 -2.387077e-05 2.353928e-06 3.762947e-06
Ga -2.621146e-02 3.667364e+00 2.474272e+00 -7.285255e-06 -1.547777e-05 7.431939e-06
Al -8.705329e-03 3.669079e+00 7.678048e+00 -9.280253e-06 -6.979187e-06 -8.473608e-06
Ga -2.205703e-02 3.674181e+00 -2.755958e+00 -1.977714e-05 -8.915753e-06 -1.425413e-05
Ga 3.186959e+00 -1.897615e+00 2.468991e+00 -1.868122e-05 1.235348e-05 9.354580e-06
Ga 3.194518e+00 -1.897877e+00 7.683826e+00 -5.303607e-06 2.858403e-05 -2.481857e-05
Ga 3.197659e+00 -1.892939e+00 -2.757011e+00 -3.021873e-05 -2.853497e-07 -5.164449e-06
Ga -4.859169e+00 8.977354e-01 2.470385e+00 2.272520e-06 -9.915210e-06 1.173746e-05
Ga -4.865123e+00 9.006182e-01 7.682550e+00 1.593470e-05 1.520900e-05 -1.623421e-05
Al -4.853497e+00 8.923877e-01 -2.758094e+00 -3.100553e-07 4.295321e-06 -7.235625e-06
Ga -6.444457e+00 3.672697e+00 2.468893e+00 -1.297726e-05 1.741308e-06 1.450246e-05
Al -6.466077e+00 3.671134e+00 7.667875e+00 -6.293139e-06 1.775710e-06 -8.030344e-06
Ga -6.451139e+00 3.668854e+00 -2.746585e+00 -1.241989e-05 -2.038459e-07 -9.014105e-06
Ga -3.243320e+00 -1.899927e+00 2.471336e+00 -5.097522e-06 5.143798e-06 -1.360203e-05
Ga -3.241912e+00 -1.912586e+00 7.692728e+00 -1.711914e-05 2.237472e-05 -7.493615e-06
Ga -3.245513e+00 -1.894693e+00 -2.765394e+00 -1.646255e-05 3.006161e-06 -1.494954e-05
Ga -1.626301e+00 8.995302e-01 2.467794e+00 1.323611e-05 -1.258676e-05 1.644324e-05
Ga -1.619645e+00 9.005304e-01 7.684405e+00 -1.342041e-05 5.599165e-06 -1.781850e-06
Ga -1.639203e+00 8.922365e-01 -2.756262e+00 -1.024329e-05 -1.812904e-05 1.365197e-05
Al -3.255198e+00 3.683792e+00 2.469053e+00 1.572383e-05 1.702551e-05 -1.787255e-05
Ga -3.247884e+00 3.679939e+00 7.678721e+00 -2.605589e-07 -2.434622e-05 -2.611357e-05
Ga -3.250976e+00 3.671935e+00 -2.751300e+00 -3.163006e-05 -1.544727e-05 3.609188e-06
Ga -1.175856e-02 -1.912881e+00 2.473308e+00 -2.621851e-05 -2.296771e-06 -7.762222e-06
Ga -2.065113e-02 -1.905404e+00 7.666516e+00 -2.133484e-05 9.859402e-06 -3.272736e-05
Ga -2.047017e-02 -1.905602e+00 -2.743336e+00 -3.244647e-05 -9.317743e-06 -3.240829e-06
Ga -1.030944e-02 1.816837e+00 5.091971e+00 -1.109379e-05 -1.664185e-05 -3.082576e-05
Ga -1.686200e-02 1.822974e+00 -5.395165e+00 -1.225787e-07 -2.783749e-06 -2.144603e-05
Ga -1.731407e-02 1.815769e+00 -1.308365e-01 -5.068920e-06 -4.545036e-06 -8.370600e-07
Ga 3.181094e+00 -3.762306e+00 5.074869e+00 -1.593172e-05 2.312735e-06 2.582513e-06
Ga 3.201732e+00 -3.762500e+00 -5.384649e+00 -9.426107e-06 1.340118e-05 -2.677929e-06
Ga 3.179815e+00 -3.761165e+00 -1.287321e-01 -2.006152e-05 6.814480e-07 1.921754e-06
Ga 1.581390e+00 -9.622087e-01 5.075553e+00 -1.633326e-05 -3.300865e-05 -1.047844e-05
Ga 1.583329e+00 -9.644804e-01 -5.384890e+00 -1.049766e-05 -1.227702e-05 -3.865486e-06
Ga 1.579745e+00 -9.713425e-01 -1.290764e-01 -9.398157e-06 -4.693181e-06 3.650209e-05
Ga 3.187451e+00 1.826831e+00 5.085897e+00 -6.740594e-06 -2.864732e-05 -1.779469e-05
Ga 3.194836e+00 1.823437e+00 -5.385184e+00 2.098798e-06 -2.280558e-05 -2.761651e-05
Ga 3.200724e+00 1.820935e+00 -1.416793e-01 -1.535044e-06 -1.846370e-05 -2.680037e-06
Ga 6.425873e+00 -3.761113e+00 5.097416e+00 -1.239450e-05 -1.253768e-05 -1.124007e-05
Ga 6.417761e+00 -3.769027e+00 -5.396374e+00 -4.779245e-06 -2.754406e-06 -9.025158e-06
Ga 6.424945e+00 -3.757725e+00 -1.406838e-01 -1.551669e-05 -4.046507e-06 3.924965e-05
Ga 4.805230e+00 -9.689117e-01 5.082552e+00 -3.240308e-05 -2.155778e-05 -1.573853e-05
Ga 4.803451e+00 -9.630664e-01 -5.361745e+00 -1.648653e-05 -1.257377e-05 9.670957e-06
Ga 4.805377e+00 -9.614792e-01 -1.564383e-01 -2.236913e-05 -2.080931e-05 1.999755e-05
Ga -3.247362e+00 1.836843e+00 5.063997e+00 -1.985609e-05 -2.592126e-05 -2.346086e-05
Ga -3.247121e+00 1.817442e+00 -5.360778e+00 2.848418e-06 -1.179496e-05 -2.658303e-05
Ga -3.254444e+00 1.830393e+00 -1.410078e-01 -1.504442e-05 -2.249086e-05 2.679448e-05
Al -2.107212e-02 -3.763762e+00 5.076262e+00 -4.225396e-06 -2.498867e-06 -3.912998e-05
Ga -3.141032e-02 -3.759956e+00 -5.384279e+00 1.051791e-05 3.320280e-06 -3.989457e-05
Al -1.767154e-02 -3.759950e+00 -1.313482e-01 2.334183e-05 -2.330695e-06 -2.008014e-05
Ga -1.627931e+00 -9.764784e-01 5.076006e+00 -2.585263e-05 -3.031388e-05 -1.001583e-05
Ga -1.627674e+00 -9.704234e-01 -5.372210e+00 3.836200e-06 -1.628864e-05 -7.376053e-06
Ga -1.626337e+00 -9.786119e-01 -1.406895e-01 -2.657823e-05 -1.362956e-05 1.103358e-05
N 1.587161e+00 8.930357e-01 4.389535e+00 1.832224e-05 2.984762e-05 1.014232e-05
N 1.589762e+00 8.903694e-01 -6.063734e+00 1.196921e-05 1.423732e-05 1.438778e-05
N 1.587697e+00 8.884954e-01 -7.874812e-01 1.260996e-05 4.619111e-06 -1.455287e-05
N -2.091353e-02 3.676896e+00 4.451340e+00 2.629820e-05 3.360741e-07 3.770260e-06
N -2.326465e-02 3.676297e+00 -6.073143e+00 1.348555e-05 -1.842150e-05 9.848475e-06
N -2.571110e-02 3.677051e+00 -7.725503e-01 1.003313e-05 -2.128315e-05 2.073696e-06
N 3.193393e+00 -1.898146e+00 4.447550e+00 3.119131e-05 9.105383e-06 -2.823549e-06
N 3.197123e+00 -1.898213e+00 -6.007690e+00 1.684699e-05 5.407443e-06 7.172372e-06
N 3.191137e+00 -1.901065e+00 -7.739746e-01 1.701485e-05 1.808250e-05 -6.471561e-06
N -4.857659e+00 8.919852e-01 4.447271e+00 2.954823e-05 1.021805e-05 2.142712e-07
N -4.851320e+00 8.905008e-01 -6.013970e+00 1.572923e-05 1.643785e-05 9.677977e-06
N -4.852907e+00 8.940391e-01 -8.338499e-01 1.774943e-05 2.115227e-05 -9.770546e-06
N -6.416467e+00 3.701493e+00 4.457041e+00 -1.013313e-05 4.864865e-06 1.223049e-05
N -6.456254e+00 3.674397e+00 -6.079109e+00 4.752895e-06 3.542611e-06 3.246727e-05
N -6.413978e+00 3.700167e+00 -7.568339e-01 -8.292798e-06 -9.828593e-06 1.279862e-05
N -3.243037e+00 -1.903154e+00 4.447814e+00 3.376634e-05 2.206833e-05 3.999496e-05
N -3.243583e+00 -1.898042e+00 -6.000360e+00 1.606967e-05 1.954373e-05 2.537060e-06
N -3.240807e+00 -1.900030e+00 -7.865651e-01 2.403273e-05 1.635899e-05 -2.168160e-07
N -1.628451e+00 8.935664e-01 4.448293e+00 4.094309e-05 3.678225e-06 5.465500e-06
N -1.635835e+00 8.910960e-01 -6.007259e+00 1.670355e-05 -2.614731e-08 2.016881e-05
N -1.634250e+00 8.920624e-01 -7.711695e-01 2.672743e-05 6.003800e-06 -9.467576e-06
N -3.289904e+00 3.707086e+00 4.400497e+00 2.760300e-05 -9.981505e-06 2.719946e-05
N -3.244819e+00 3.674782e+00 -6.013594e+00 7.260355e-07 -9.973403e-06 2.808701e-05
N -3.286222e+00 3.702539e+00 -7.676681e-01 1.538575e-05 1.820947e-06 1.087262e-07
N -2.008128e-02 -1.952568e+00 4.463255e+00 2.640317e-05 3.003147e-05 1.978346e-05
N -2.272821e-02 -1.902302e+00 -6.025398e+00 9.717067e-06 9.586971e-06 2.332836e-05
N -2.007901e-02 -1.951141e+00 -7.535959e-01 3.087923e-05 1.908420e-05 -3.256050e-07
N 2.170670e-02 1.794020e+00 1.850407e+00 -1.251837e-05 2.579380e-05 -1.173270e-05
N 2.448088e-02 1.841871e+00 7.083916e+00 -1.276691e-05 -7.009017e-06 2.206660e-05
N -2.094552e-02 1.818620e+00 -3.410115e+00 2.358224e-05 1.571170e-05 5.069995e-06
N 3.151148e+00 -3.783545e+00 1.859483e+00 -3.873207e-06 1.378927e-05 4.194406e-06
N 3.236491e+00 -3.783396e+00 7.063216e+00 -2.083478e-05 1.992952e-05 5.671548e-06
N 3.195618e+00 -3.760118e+00 -3.399386e+00 2.689157e-05 2.317002e-05 2.698256e-06
N 1.583313e+00 -9.191795e-01 1.856878e+00 1.759474e-05 -8.517275e-06 -3.523903e-05
N 1.587201e+00 -9.116397e-01 7.063462e+00 -9.248938e-07 -1.957912e-05 1.370984e-05
N 1.582759e+00 -9.696864e-01 -3.401805e+00 1.820918e-05 8.407311e-06 1.071888e-05
N 3.153418e+00 1.794787e+00 1.845446e+00 7.983823e-06 9.744950e-06 -1.152272e-05
N 3.149291e+00 1.843545e+00 7.077755e+00 1.924619e-06 -2.728151e-05 1.861609e-05
N 3.237548e+00 1.798486e+00 -3.390400e+00 -4.458213e-06 1.082318e-05 2.176205e-05
N 6.417245e+00 -3.760663e+00 1.836764e+00 1.161698e-05 4.343871e-06 -2.250503e-05
N 6.416676e+00 -3.804686e+00 7.087764e+00 -9.278191e-07 9.468027e-06 8.144258e-06
N 6.419222e+00 -3.764824e+00 -3.406654e+00 1.058282e-05 1.522292e-05 1.098514e-05
N 4.804294e+00 -9.654246e-01 1.824514e+00 -5.690370e-07 -3.642566e-06 -1.342426e-05
N 4.807148e+00 -9.675420e-01 7.054164e+00 -7.316833e-06 -2.134215e-05 1.558931e-05
N 4.803436e+00 -9.184722e-01 -3.374326e+00 1.561678e-05 -7.068991e-06 8.348827e-06
N -3.245451e+00 1.869093e+00 1.851984e+00 -7.906034e-06 6.683412e-06 -4.713851e-05
N -3.241732e+00 1.821715e+00 7.040445e+00 -4.706253e-06 7.223526e-06 2.118892e-05
N -3.284958e+00 1.795362e+00 -3.372574e+00 7.647256e-06 1.784173e-05 5.596264e-06
N 1.956586e-02 -3.781308e+00 1.793236e+00 -3.027175e-05 -7.137066e-06 -4.740525e-06
N -6.348259e-02 -3.784698e+00 7.004617e+00 2.123848e-05 1.559273e-05 2.085956e-05
N -2.665139e-02 -3.757605e+00 -3.407278e+00 1.745916e-05 1.052588e-05 1.668607e-05
N -1.627879e+00 -9.707073e-01 1.839965e+00 -1.044925e-05 -3.025345e-08 8.149437e-06
N -1.634606e+00 -9.669687e-01 7.050617e+00 1.613846e-07 -1.256873e-05 1.803474e-05
N -1.626366e+00 -9.701571e-01 -3.390952e+00 1.236794e-05 3.655117e-06 -4.160262e-06
