108
Energy=-1214847.397403 Lattice="9.487666 0.000000 0.000000 -4.745096 8.213435 0.000000 0.001409 -0.002758 15.299932" Stress="-0.000001 -0.000001 0.000001 -0.000001 -0.000002 -0.000000 0.000001 -0.000000 0.000002" Properties=species:S:1:pos:R:3:forces:R:3
Al 1.557374 0.875022 2.395422 0.000128 -0.000070 -0.000114
Al 1.560218 0.879920 7.530901 0.000027 -0.000043 0.000007
Al 1.556629 0.878701 -2.724568 0.000172 -0.000043 0.000214
Al -0.018438 3.608070 2.415946 0.000125 -0.000126 -0.000029
Al -0.028892 3.609961 7.487977 -0.000229 -0.000290 0.000052
Al -0.024242 3.599697 -2.701229 0.000319 -0.000041 -0.000126
Al 3.142689 -1.862101 2.409818 -0.000209 -0.000147 -0.000173
Al 3.156295 -1.869085 7.516466 -0.000144 0.000079 -0.000006
Ga 3.134717 -1.862467 -2.719623 -0.000046 0.000053 0.000222
Al -4.770944 0.871672 2.434629 0.000274 -0.000208 -0.000025
Al -4.765803 0.861748 7.511499 -0.000230 0.000090 0.000082
Al -4.771800 0.882088 -2.738078 0.000012 -0.000063 -0.000246
Al -6.359513 3.606866 2.405148 0.000355 -0.000112 0.000239
Ga -6.348520 3.605244 7.515019 0.000107 0.000080 0.000120
Al -6.346830 3.602004 -2.711052 -0.000336 0.000006 -0.000198
Ga -3.193141 -1.872999 2.399939 0.000074 0.000240 -0.000099
Al -3.208552 -1.866223 7.507038 -0.000159 0.000093 0.000338
Ga -3.174258 -1.859183 -2.693718 -0.000033 0.000080 0.000076
Al -1.598991 0.882272 2.422068 -0.000464 -0.000456 0.000066
Ga -1.603227 0.893013 7.522779 0.000258 -0.000080 0.000160
Al -1.596531 0.873425 -2.735981 0.000060 -0.000220 -0.000299
Ga -3.182235 3.610206 2.408461 -0.000030 -0.000030 0.000039
Al -3.179128 3.610305 7.503681 -0.000014 0.000129 0.000032
Ga -3.182474 3.609037 -2.704886 0.000003 -0.000076 0.000090
Ga -0.016428 -1.859666 2.386768 0.000142 0.000092 0.000070
Ga -0.012144 -1.873345 7.531652 0.000100 -0.000038 0.000168
Al -0.023520 -1.852366 -2.707896 -0.000110 0.000156 0.000094
Al -0.024586 1.800870 4.943760 -0.000155 -0.000247 0.000315
Al -0.022027 1.789436 -5.235495 -0.000006 -0.000075 0.000050
Ga -0.027761 1.784782 -0.156651 -0.000064 0.000096 0.000020
Al 3.148981 -3.693681 4.966537 -0.000296 -0.000270 -0.000097
Al 3.137108 -3.694741 -5.279601 0.000005 -0.000057 -0.000079
Al 3.148193 -3.683488 -0.135769 0.000072 0.000099 0.000056
Ga 1.573301 -0.955147 4.970930 -0.000261 0.000175 -0.000048
Al 1.560213 -0.946056 -5.253633 -0.000028 -0.000026 0.000145
Al 1.551591 -0.962679 -0.158920 -0.000002 -0.000046 -0.000178
Ga 3.138889 1.786898 4.952648 0.000173 0.000092 0.000027
Al 3.143331 1.774499 -5.246445 0.000024 -0.000041 0.000022
Ga 3.139204 1.792784 -0.146848 0.000060 -0.000039 0.000208
Al 6.291371 -3.694259 4.961732 -0.000004 0.000127 -0.000189
Ga 6.291286 -3.691435 -5.246777 -0.000035 0.000030 0.000169
Al 6.306418 -3.700464 -0.157450 -0.000065 0.000103 -0.000088
Al 4.717623 -0.960395 4.968719 0.000267 0.000131 0.000048
Al 4.718615 -0.941620 -5.269853 -0.000105 0.000091 -0.000074
Ga 4.713674 -0.955163 -0.138229 -0.000172 -0.000129 0.000084
Al -3.185290 1.790052 4.964514 0.000023 0.000376 -0.000167
Al -3.192618 1.790469 -5.256182 -0.000001 -0.000063 0.000016
Ga -3.181287 1.777999 -0.149974 0.000033 0.000002 0.000196
Al -0.019429 -3.703455 4.959897 0.000225 0.000126 0.000056
Al -0.009643 -3.688996 -5.230507 0.000049 0.000211 0.000196
Al -0.032821 -3.674858 -0.169481 0.000385 -0.000037 -0.000435
Ga -1.615523 -0.948746 4.964964 0.000068 0.000079 -0.000053
Al -1.601909 -0.947767 -5.242567 -0.000227 0.000334 0.000157
Al -1.587512 -0.953248 -0.161397 -0.000148 -0.000020 -0.000031
N 1.514875 0.890173 4.302451 0.000080 0.000109 -0.000105
N 1.553096 0.881264 -5.847484 0.000063 0.000006 0.000073
N 1.560705 0.826790 -0.804980 -0.000134 0.000228 -0.000207
N -0.024196 3.615163 4.344894 0.000011 -0.000096 -0.000062
N -0.063916 3.580799 -5.898283 0.000027 0.000220 -0.000038
N -0.030072 3.656689 -0.784203 0.000287 0.000084 0.000332
N 3.180153 -1.893468 4.333022 -0.000043 0.000129 -0.000366
N 3.141497 -1.864247 -5.861071 -0.000068 -0.000017 -0.000106
N 3.099003 -1.891261 -0.742937 0.000011 -0.000054 -0.000066
N -4.724129 0.845381 4.346851 -0.000026 -0.000008 0.000067
N -4.767007 0.876275 -5.867204 0.000027 0.000126 -0.000054
N -4.769510 0.873162 -0.833900 0.000124 0.000105 0.000125
N -6.351578 3.662546 4.330466 -0.000290 -0.000158 -0.000360
N -6.305096 3.590849 -5.815605 -0.000050 -0.000188 -0.000129
N -6.347031 3.652341 -0.793826 -0.000381 -0.000093 0.000356
N -3.228300 -1.891851 4.375746 -0.000022 -0.000277 0.000022
N -3.186573 -1.818539 -5.875235 0.000219 -0.000211 -0.000344
N -3.144974 -1.886744 -0.715650 0.000043 -0.000055 0.000197
N -1.605412 0.922067 4.340575 0.000221 0.000147 -0.000080
N -1.601806 0.881713 -5.798327 0.000062 -0.000236 -0.000109
N -1.604938 0.828000 -0.823258 0.000216 -0.000067 0.000161
N -3.182046 3.613638 4.394239 0.000205 -0.000097 0.000109
N -3.190852 3.613221 -5.866820 -0.000092 -0.000030 -0.000020
N -3.179597 3.658365 -0.723080 -0.000419 0.000142 0.000035
N -0.020452 -1.910314 4.358296 0.000187 -0.000182 -0.000127
N -0.022157 -1.867363 -5.797082 0.000103 -0.000279 -0.000096
N -0.020503 -1.860804 -0.773573 0.000156 -0.000027 0.000025
N -0.028093 1.787344 1.833101 0.000603 0.000312 0.000129
N 0.023900 1.803506 6.867166 -0.000085 0.000485 -0.000292
N -0.018349 1.793402 -3.314287 -0.000009 0.000046 0.000053
N 3.188287 -3.668233 1.783870 -0.000145 0.000390 0.000018
N 3.140755 -3.688151 6.896662 0.000035 0.000024 -0.000081
N 3.185501 -3.716870 -3.369928 -0.000210 0.000130 -0.000169
N 1.603951 -0.928293 1.763140 -0.000072 0.000015 0.000476
N 1.605080 -0.925530 6.947162 0.000184 -0.000245 -0.000084
N 1.520134 -0.926733 -3.340039 -0.000256 0.000109 -0.000070
N 3.145654 1.784458 1.846714 -0.000578 0.000297 0.000030
N 3.138166 1.734353 6.928568 0.000142 -0.000107 -0.000047
N 3.137703 1.786060 -3.324464 -0.000047 -0.000005 0.000046
N 6.300290 -3.747370 1.766152 -0.000131 -0.000078 -0.000142
N 6.262978 -3.669783 6.882166 0.000042 -0.000034 0.000236
N 6.297959 -3.735756 -3.277604 0.000051 -0.000159 0.000022
N 4.677351 -0.921310 1.830758 0.000051 -0.000141 -0.000242
N 4.717218 -0.952290 6.897320 -0.000101 -0.000003 -0.000178
N 4.724522 -0.909114 -3.361134 -0.000025 -0.000044 0.000105
N -3.187536 1.733185 1.828389 -0.000077 0.000086 -0.000003
N -3.227429 1.807745 6.884968 -0.000093 -0.000244 0.000001
N -3.186496 1.745929 -3.342808 -0.000168 0.000077 0.000126
N -0.067477 -3.716743 1.743178 -0.000030 0.000054 0.000275
N 0.017221 -3.714765 6.864533 0.000062 -0.000102 -0.000119
N -0.058643 -3.663583 -3.316430 0.000169 -0.000105 -0.000343
N -1.604140 -0.897030 1.755710 0.000122 0.000138 0.000062
N -1.642865 -0.971991 6.929466 -0.000048 -0.000035 -0.000224
N -1.564523 -0.932025 -3.333457 0.000134 -0.000162 0.000097
