108
Energy=-1489500.345048 Lattice="9.522304 0.000000 0.000000 -4.764635 8.244004 0.000000 -0.017258 0.003246 15.370790" Stress="0.000000 -0.000002 -0.000003 -0.000002 -0.000002 0.000001 -0.000003 0.000001 -0.000005" Properties=species:S:1:pos:R:3:forces:R:3
Al 1.567060 0.881765 2.415988 -0.000202 -0.000617 0.000146
Al 1.552262 0.889292 7.511789 0.000177 0.000084 -0.000301
Al 1.563228 0.894858 -2.691572 -0.000199 -0.000059 -0.000234
Al -0.012244 3.618740 2.416922 -0.000610 0.000101 0.000002
Al -0.021509 3.621657 7.525984 -0.000051 -0.000018 0.000124
Al 0.012243 3.610862 -2.709515 -0.000092 -0.000316 -0.000084
Al 3.143154 -1.861904 2.422741 -0.000174 -0.000933 0.000343
Al 3.144194 -1.868906 7.525735 -0.000043 -0.000061 0.000081
Ga 3.173012 -1.858199 -2.701452 -0.000121 0.000081 0.000259
Al -4.792463 0.889910 2.431282 -0.000286 -0.000269 -0.000283
Ga -4.802325 0.885020 7.529537 0.000075 0.000064 0.000269
Al -4.778408 0.873386 -2.721357 -0.000126 0.000214 0.000211
Al -6.400704 3.605451 2.422145 -0.000330 0.000222 0.000139
Al -6.411266 3.613817 7.526374 -0.000081 -0.000397 -0.000034
Al -6.393831 3.620623 -2.704539 -0.000032 -0.000036 0.000075
Ga -3.194309 -1.884339 2.418953 -0.000010 0.000013 0.000395
Ga -3.209999 -1.886929 7.529282 -0.000015 -0.000002 0.000095
Al -3.201586 -1.888601 -2.707835 0.000019 -0.000114 0.000170
Al -1.614471 0.880676 2.395388 0.000236 -0.000179 0.000249
Al -1.611107 0.890121 7.537248 0.000007 0.000408 0.000111
Ga -1.601825 0.892276 -2.693367 0.000451 0.000078 0.000068
Ga -3.187972 3.605339 2.434956 0.000331 0.000331 0.000120
Ga -3.190297 3.618051 7.516264 0.000083 0.000069 -0.000123
Ga -3.198594 3.605387 -2.697845 0.000027 -0.000144 0.000091
Ga -0.019666 -1.845591 2.424613 -0.000071 0.000091 0.000332
Ga -0.025957 -1.850599 7.509821 0.000151 -0.000196 0.000004
Ga -0.021929 -1.864910 -2.680472 0.000213 -0.000142 0.000101
Ga -0.034537 1.790862 4.961857 0.000003 0.000099 -0.000059
Al -0.015933 1.802599 -5.294952 0.000206 0.000004 0.000151
Al -0.021787 1.789535 -0.124780 0.000694 -0.000246 -0.000200
Al 3.161261 -3.694990 4.973206 -0.000092 -0.000170 -0.000442
Ga 3.185926 -3.711919 -5.279002 -0.000112 0.000027 0.000103
Ga 3.175318 -3.717017 -0.135017 -0.000133 0.000310 0.000153
Al 1.571994 -0.947570 4.974091 -0.000347 0.000237 -0.000218
Ga 1.582171 -0.935892 -5.281693 -0.000151 0.000080 0.000045
Al 1.558651 -0.936795 -0.127072 -0.000136 0.000228 0.000136
Al 3.138046 1.797710 4.960244 -0.000371 -0.000076 0.000047
Ga 3.145478 1.794074 -5.259537 0.000041 0.000020 0.000109
Ga 3.144983 1.790773 -0.148669 -0.000069 -0.000164 -0.000137
Al 6.318068 -3.718164 4.973738 0.000029 0.000358 -0.000173
Al 6.321169 -3.710781 -5.265741 0.000378 -0.000574 -0.000099
Al 6.326804 -3.711590 -0.154911 -0.000016 -0.000245 0.000082
Ga 4.723383 -0.952742 4.956465 -0.000132 -0.000277 0.000059
Al 4.753391 -0.958093 -5.267194 -0.000085 0.000063 0.000021
Ga 4.754893 -0.948686 -0.129242 -0.000254 0.000021 0.000140
Al -3.197225 1.778064 4.965515 0.000255 0.000852 -0.000279
Al -3.184306 1.778814 -5.274259 0.000046 0.000047 0.000128
Al -3.190557 1.772888 -0.127680 -0.000034 0.000040 -0.000056
Ga -0.044272 -3.709137 4.967037 0.000206 -0.000178 -0.000033
Ga -0.030453 -3.715305 -5.275424 -0.000037 -0.000046 0.000082
Ga -0.035205 -3.702428 -0.123771 0.000012 -0.000008 -0.000179
Al -1.619747 -0.935614 4.976394 0.000102 -0.000305 -0.000103
Ga -1.623048 -0.940039 -5.265155 0.000002 0.000045 0.000307
Al -1.612463 -0.947185 -0.149148 -0.000054 -0.000037 0.000066
N 1.597091 0.851934 4.336709 -0.000204 0.000472 -0.000345
N 1.532037 0.905314 -5.945412 -0.000044 0.000001 -0.000002
N 1.516530 0.856922 -0.771096 -0.000215 0.000086 0.000448
N -0.027928 3.670870 4.333897 0.000164 -0.000149 0.000321
N 0.029531 3.602011 -5.922649 0.000059 0.000035 -0.000058
N 0.025528 3.588048 -0.784483 -0.000033 0.000082 0.000023
N 3.096030 -1.895918 4.337259 0.000747 0.000066 -0.000622
N 3.200875 -1.848867 -5.924911 0.000110 0.000055 -0.000075
N 3.115583 -1.845415 -0.732531 -0.000013 0.000004 -0.000120
N -4.792715 0.933476 4.346643 0.000390 -0.000097 -0.000054
N -4.743405 0.855412 -5.856832 0.000095 -0.000093 -0.000112
N -4.738687 0.898739 -0.803021 0.000003 -0.000000 -0.000179
N -6.432337 3.599105 4.332083 0.000052 -0.000101 0.000160
N -6.418653 3.642567 -5.928007 -0.000287 0.000200 0.000029
N -6.414500 3.646359 -0.797035 -0.000069 0.000056 -0.000081
N -3.155558 -1.901699 4.397924 -0.000073 0.000113 -0.000193
N -3.231143 -1.903643 -5.858437 -0.000064 0.000210 -0.000223
N -3.158184 -1.901936 -0.776303 0.000003 0.000158 -0.000157
N -1.656765 0.854088 4.313729 -0.000125 0.000020 0.000014
N -1.603268 0.926929 -5.910450 0.000059 -0.000013 0.000039
N -1.603773 0.885327 -0.705197 -0.000342 0.000095 -0.000060
N -3.158647 3.600111 4.411408 0.000035 -0.000564 0.000064
N -3.187928 3.576975 -5.876396 0.000030 -0.000204 -0.000178
N -3.197427 3.571810 -0.722931 0.000043 -0.000068 0.000039
N -0.027965 -1.813235 4.405882 -0.000034 0.000005 -0.000020
N -0.018597 -1.864234 -5.893271 -0.000012 -0.000098 -0.000192
N -0.017571 -1.823493 -0.703735 0.000014 0.000018 -0.000020
N -0.021490 1.794481 1.809513 -0.000097 -0.000140 -0.000053
N -0.037141 1.795944 6.950336 0.000207 -0.000311 -0.000070
N 0.024948 1.812861 -3.361758 -0.000222 0.000409 0.000083
N 3.199006 -3.681864 1.840507 0.000134 0.000213 -0.000099
N 3.196672 -3.674847 6.899156 -0.000011 0.000024 0.000346
N 3.207602 -3.731432 -3.298646 -0.000078 0.000077 -0.000020
N 1.606922 -0.925708 1.787286 -0.000356 0.000749 -0.000351
N 1.607803 -0.924211 6.892417 -0.000202 -0.000009 0.000399
N 1.571685 -0.901507 -3.310217 -0.000102 -0.000042 -0.000141
N 3.147593 1.790600 1.839052 0.000648 -0.000207 0.000146
N 3.100657 1.817878 6.884352 -0.000111 0.000284 0.000339
N 3.148991 1.790849 -3.266412 0.000420 0.000021 -0.000057
N 6.323778 -3.755402 1.765134 0.000108 0.000295 -0.000226
N 6.315177 -3.753613 6.885425 0.000042 -0.000154 0.000190
N 6.329930 -3.706775 -3.335467 -0.000021 0.000087 -0.000098
N 4.699834 -0.927770 1.853975 0.000247 0.000351 0.000041
N 4.689897 -0.973673 6.922324 0.000003 -0.000047 -0.000121
N 4.787728 -0.935012 -3.342160 0.000030 -0.000053 -0.000047
N -3.206424 1.740286 1.785551 -0.000205 0.000076 -0.000014
N -3.163297 1.760761 6.874065 -0.000053 -0.000142 -0.000052
N -3.227665 1.764528 -3.367115 -0.000016 -0.000064 -0.000108
N -0.068607 -3.728899 1.851426 0.000155 -0.000004 -0.000181
N -0.078962 -3.731166 6.937614 0.000124 0.000209 0.000101
N -0.062331 -3.726950 -3.297949 -0.000023 -0.000061 0.000003
N -1.616653 -0.911066 1.759350 0.000010 -0.000012 -0.000243
N -1.626502 -0.895395 6.889493 0.000087 -0.000212 -0.000139
N -1.647958 -0.972386 -3.292857 -0.000280 -0.000005 -0.000052
