108
Energy=-2542336.983617 Lattice="9.655722 0.000000 0.000000 -4.828768 8.361957 0.000000 -0.002097 -0.000228 15.671921" Stress="0.000000 -0.000000 0.000000 -0.000000 0.000000 0.000000 0.000000 0.000000 0.000000" Properties=species:S:1:pos:R:3:forces:R:3
Al 1.584025 0.890205 2.466018 -0.000022 -0.000048 0.000008
Al 1.579105 0.898019 7.689757 -0.000008 0.000006 -0.000013
Ga 1.576344 0.890274 -2.760635 -0.000011 -0.000029 0.000040
Ga -0.028957 3.670855 2.450929 -0.000011 0.000078 0.000043
Al -0.019825 3.666195 7.691328 0.000010 0.000021 -0.000007
Ga -0.042391 3.668236 -2.748874 -0.000033 0.000014 0.000007
Ga 3.188841 -1.901173 2.457591 -0.000012 0.000040 -0.000047
Ga 3.198051 -1.896089 7.698595 -0.000009 0.000041 -0.000002
Ga 3.194698 -1.908178 -2.761919 0.000013 -0.000022 -0.000012
Ga -4.858801 0.891469 2.460319 -0.000070 0.000056 0.000001
Ga -4.859078 0.884958 7.706001 0.000040 0.000037 -0.000014
Ga -4.840628 0.891125 -2.769994 -0.000029 0.000003 -0.000015
Ga -6.460872 3.670730 2.480469 0.000057 0.000065 0.000011
Ga -6.466452 3.673301 7.677950 -0.000010 0.000011 -0.000031
Ga -6.453466 3.672883 -2.761055 -0.000033 -0.000002 0.000002
Ga -3.240074 -1.898171 2.466116 -0.000035 0.000037 0.000022
Ga -3.251872 -1.902763 7.706380 0.000030 0.000036 -0.000036
Ga -3.243586 -1.888690 -2.773935 -0.000025 -0.000034 -0.000034
Ga -1.621763 0.891956 2.468782 -0.000023 0.000031 0.000001
Ga -1.618736 0.899922 7.690868 -0.000004 -0.000002 -0.000011
Al -1.633886 0.898832 -2.763753 -0.000013 -0.000004 0.000001
Ga -3.237696 3.682532 2.466477 -0.000010 0.000015 -0.000032
Ga -3.241556 3.679333 7.684749 -0.000005 0.000007 0.000017
Al -3.229774 3.671488 -2.752197 -0.000016 0.000008 0.000028
Ga -0.017999 -1.894574 2.473619 0.000032 -0.000013 -0.000067
Ga -0.018572 -1.899323 7.683204 -0.000008 0.000015 -0.000017
Ga -0.021584 -1.896674 -2.759843 0.000033 0.000023 0.000007
Ga -0.011784 1.820063 5.086659 -0.000021 -0.000034 0.000005
Ga -0.019078 1.821318 -5.376701 -0.000006 0.000042 -0.000004
Ga -0.029786 1.818653 -0.147498 0.000001 -0.000028 -0.000017
Ga 3.190323 -3.758834 5.092769 0.000008 0.000031 0.000025
Ga 3.203189 -3.755058 -5.373381 0.000009 0.000008 -0.000011
Al 3.187354 -3.759879 -0.160759 0.000016 -0.000040 -0.000006
Ga 1.581883 -0.965135 5.078459 0.000011 -0.000012 -0.000002
Ga 1.597121 -0.962840 -5.381723 0.000045 0.000017 -0.000022
Ga 1.591651 -0.972416 -0.136652 0.000009 0.000005 0.000027
Ga 3.189333 1.818117 5.082535 0.000008 -0.000029 -0.000010
Ga 3.194152 1.808054 -5.384944 -0.000016 -0.000015 -0.000028
Ga 3.190730 1.815998 -0.134892 0.000005 0.000048 0.000028
Ga 6.415988 -3.757360 5.090555 -0.000042 -0.000043 -0.000025
Ga 6.403985 -3.754489 -5.381561 -0.000011 -0.000054 -0.000048
Ga 6.406386 -3.757246 -0.148366 -0.000004 0.000036 0.000032
Ga 4.803893 -0.968899 5.078468 -0.000004 -0.000022 0.000036
Al 4.803661 -0.969332 -5.365768 0.000013 -0.000004 -0.000002
Ga 4.799126 -0.978488 -0.150591 -0.000029 -0.000023 0.000031
Ga -3.248565 1.827672 5.079931 -0.000009 -0.000028 -0.000026
Ga -3.240759 1.816228 -5.348166 0.000011 0.000041 -0.000005
Ga -3.228803 1.830350 -0.171743 0.000007 0.000009 0.000006
Al -0.021390 -3.755724 5.076731 0.000001 -0.000003 -0.000028
Ga -0.016242 -3.759978 -5.353830 -0.000020 0.000002 0.000009
Ga -0.006442 -3.761377 -0.158220 0.000011 0.000022 0.000013
Ga -1.628976 -0.977522 5.084192 0.000006 -0.000039 0.000010
Ga -1.639298 -0.964512 -5.363496 -0.000003 -0.000009 0.000008
Ga -1.632398 -0.961731 -0.158593 0.000009 0.000050 0.000027
N 1.584227 0.890010 4.386859 0.000024 0.000040 0.000008
N 1.583243 0.890503 -6.064106 0.000028 0.000006 0.000042
N 1.585043 0.888128 -0.786074 0.000045 0.000038 0.000005
N -0.028023 3.678062 4.434110 0.000055 0.000040 0.000025
N -0.024918 3.673579 -6.060606 -0.000004 -0.000005 0.000046
N -0.068152 3.698156 -0.761991 0.000031 0.000036 -0.000030
N 3.192233 -1.903361 4.440620 0.000009 0.000008 0.000012
N 3.240660 -1.875361 -5.987875 -0.000050 0.000010 -0.000013
N 3.193839 -1.946947 -0.771264 0.000042 0.000052 -0.000017
N -4.853438 0.891386 4.439037 -0.000038 0.000038 -0.000005
N -4.844529 0.841283 -5.977663 -0.000030 0.000058 -0.000017
N -4.852624 0.888075 -0.786551 0.000006 0.000023 -0.000001
N -6.420421 3.699944 4.470912 -0.000013 0.000008 0.000014
N -6.455101 3.679868 -6.010796 -0.000026 -0.000012 0.000025
N -6.460513 3.673774 -0.781986 0.000007 0.000023 -0.000022
N -3.241265 -1.900020 4.443176 -0.000001 -0.000033 0.000007
N -3.283553 -1.872047 -5.980232 0.000031 -0.000016 0.000010
N -3.243261 -1.898083 -0.795025 0.000010 0.000045 -0.000001
N -1.629895 0.891748 4.451572 -0.000001 0.000016 -0.000016
N -1.632947 0.892883 -6.005658 0.000009 0.000007 0.000006
N -1.628059 0.890170 -0.843026 0.000009 0.000007 0.000009
N -3.280637 3.704519 4.456240 -0.000002 -0.000041 -0.000003
N -3.242956 3.674988 -6.009651 -0.000006 -0.000016 0.000017
N -3.197456 3.701738 -0.826798 -0.000010 0.000033 -0.000024
N -0.021749 -1.946067 4.462476 0.000001 0.000020 0.000026
N -0.023235 -1.902521 -6.004362 -0.000004 -0.000009 0.000015
N -0.019786 -1.896845 -0.782482 -0.000000 0.000018 0.000023
N 0.017613 1.791927 1.838852 -0.000012 -0.000061 -0.000031
N 0.022699 1.843400 7.082111 -0.000001 0.000010 -0.000002
N -0.063297 1.797276 -3.388270 0.000030 0.000048 -0.000013
N 3.190651 -3.757986 1.765391 -0.000015 -0.000028 -0.000026
N 3.239069 -3.779932 7.078584 0.000008 -0.000031 -0.000011
N 3.155814 -3.782792 -3.389310 0.000030 -0.000014 0.000030
N 1.585105 -0.919748 1.850821 -0.000006 -0.000036 0.000045
N 1.587566 -0.916988 7.070698 0.000033 -0.000043 0.000007
N 1.588409 -0.967261 -3.403554 -0.000007 -0.000012 -0.000009
N 3.150829 1.796645 1.851759 0.000012 -0.000020 -0.000000
N 3.152520 1.790132 7.072059 0.000003 -0.000010 0.000004
N 3.191972 1.814953 -3.406676 0.000014 -0.000002 0.000037
N 6.416817 -3.758150 1.830746 0.000032 -0.000084 -0.000053
N 6.369556 -3.778272 7.077429 0.000015 -0.000000 -0.000001
N 6.408003 -3.762625 -3.397901 0.000030 -0.000000 0.000041
N 4.803721 -0.970383 1.826401 0.000019 -0.000044 -0.000034
N 4.803969 -0.968035 7.051701 0.000006 -0.000050 -0.000026
N 4.799426 -0.969616 -3.446696 0.000019 -0.000012 0.000018
N -3.237328 1.821730 1.817143 0.000012 -0.000081 -0.000003
N -3.245589 1.816265 7.057247 -0.000048 -0.000022 -0.000009
N -3.198283 1.845941 -3.352900 0.000005 -0.000003 -0.000008
N -0.021632 -3.757727 1.822614 -0.000057 -0.000086 0.000035
N -0.022306 -3.756476 6.996821 0.000008 -0.000018 0.000027
N 0.024358 -3.783247 -3.368442 -0.000018 0.000016 -0.000025
N -1.630076 -0.965692 1.824509 0.000002 -0.000058 -0.000030
N -1.636468 -0.969724 7.062364 -0.000060 -0.000045 0.000031
N -1.630433 -0.917767 -3.378144 -0.000008 -0.000022 -0.000007
