108
Energy=-9.859700e+05 Lattice="9.462421e+00 0.000000e+00 0.000000e+00 -4.735763e+00 8.188859e+00 0.000000e+00 -7.974404e-04 -3.718077e-03 1.524524e+01" Stress="9.552899e-04 -2.880252e-04 -1.415324e-04 -2.963207e-04 -1.302966e-04 -2.350737e-04 -1.217776e-04 -2.292462e-04 2.481165e-03" Properties=species:S:1:pos:R:3:forces:R:3 Config_type=AlGaN_super3_12_1_47.xyz
Al 1.563327e+00 8.683029e-01 2.386687e+00 -9.184539e-05 -2.823289e-04 -2.813198e-04
Al 1.547665e+00 8.699730e-01 7.500246e+00 -4.206755e-05 1.182536e-04 1.436879e-04
Al 1.553709e+00 8.611192e-01 -2.711373e+00 2.280171e-04 1.288518e-06 -2.153883e-04
Al -1.345175e-02 3.603777e+00 2.435661e+00 -2.465766e-04 2.266571e-05 -9.337236e-05
Al -1.102930e-02 3.595316e+00 7.464083e+00 -2.423101e-05 1.370515e-04 1.172178e-04
Al -2.836245e-02 3.588973e+00 -2.715171e+00 -4.532856e-05 6.403343e-05 -2.897609e-04
Al 3.135889e+00 -1.849571e+00 2.381774e+00 -8.064442e-05 -9.493054e-05 -1.496847e-04
Al 3.136939e+00 -1.854033e+00 7.492934e+00 -8.205318e-05 8.661755e-05 -1.075735e-04
Al 3.125517e+00 -1.843880e+00 -2.693176e+00 2.906827e-05 9.134904e-05 -6.944328e-05
Al -4.764844e+00 8.652950e-01 2.374243e+00 1.096365e-04 -5.018221e-05 -3.287118e-04
Al -4.753627e+00 8.645124e-01 7.503552e+00 1.282552e-06 1.653055e-04 1.861313e-04
Al -4.759929e+00 8.683867e-01 -2.699708e+00 -5.972033e-05 9.220358e-06 3.489704e-05
Al -6.334489e+00 3.598766e+00 2.393554e+00 -1.953588e-04 -6.425206e-05 -4.936707e-04
Al -6.340958e+00 3.606499e+00 7.488848e+00 -1.278324e-04 -2.128648e-05 6.732326e-05
Ga -6.327079e+00 3.590783e+00 -2.699900e+00 -2.181634e-04 -9.444507e-05 1.533474e-05
Al -3.174244e+00 -1.859777e+00 2.395914e+00 4.576462e-05 1.445193e-05 1.669999e-05
Al -3.169125e+00 -1.863681e+00 7.486104e+00 -5.214612e-05 8.766467e-06 4.083408e-05
Ga -3.180287e+00 -1.846912e+00 -2.704556e+00 -1.169010e-04 -5.875207e-05 1.139752e-04
Ga -1.604906e+00 8.590448e-01 2.407566e+00 3.997248e-04 -1.286883e-04 1.626811e-05
Al -1.597498e+00 8.625208e-01 7.477070e+00 3.042513e-04 -1.633827e-04 1.167473e-04
Al -1.600187e+00 8.751250e-01 -2.708823e+00 2.525517e-04 -1.746565e-04 -2.981713e-04
Ga -3.190997e+00 3.601950e+00 2.410082e+00 3.458667e-04 1.091361e-05 -1.224237e-04
Ga -3.185443e+00 3.598387e+00 7.472273e+00 1.254277e-04 3.510538e-05 8.792476e-05
Al -3.182192e+00 3.597029e+00 -2.697837e+00 -3.168040e-04 -1.201683e-04 -2.775646e-04
Al -2.620107e-02 -1.858707e+00 2.382401e+00 6.382400e-06 -1.964588e-04 -1.071985e-04
Al -2.970736e-02 -1.855602e+00 7.490934e+00 6.171417e-05 -1.856212e-05 8.459715e-05
Al -7.968034e-03 -1.847756e+00 -2.700988e+00 4.019464e-05 7.481702e-05 3.302287e-04
Al -2.980485e-02 1.784856e+00 4.952885e+00 -2.517481e-04 -2.640517e-05 -9.623696e-05
Al -2.148729e-02 1.772874e+00 -5.236506e+00 -5.414693e-05 1.700284e-04 1.039634e-04
Ga -2.036706e-02 1.765496e+00 -1.582627e-01 -1.615454e-04 2.811079e-04 3.039051e-04
Al 3.142688e+00 -3.684885e+00 4.944335e+00 -1.680832e-04 -1.101423e-04 1.840973e-04
Ga 3.140082e+00 -3.675752e+00 -5.217374e+00 -1.409191e-05 1.660746e-04 -6.552742e-05
Ga 3.125602e+00 -3.673302e+00 -1.616132e-01 1.205033e-04 -1.718736e-04 3.163090e-04
Ga 1.542519e+00 -9.581029e-01 4.942729e+00 -4.671287e-04 6.749475e-05 1.829348e-04
Al 1.551059e+00 -9.431198e-01 -5.231077e+00 -3.493095e-04 1.972612e-04 1.722333e-04
Al 1.554821e+00 -9.478273e-01 -1.592062e-01 -2.944237e-04 9.471641e-05 3.497402e-04
Ga 3.132272e+00 1.794605e+00 4.946023e+00 1.288360e-04 -1.549198e-04 3.224935e-04
Al 3.131054e+00 1.778582e+00 -5.244529e+00 1.853338e-05 -3.605186e-05 -2.956123e-04
Al 3.141901e+00 1.765144e+00 -1.469645e-01 1.425298e-04 1.375283e-04 -4.783393e-05
Al 6.293851e+00 -3.677169e+00 4.936951e+00 9.337552e-07 1.277591e-04 -5.101746e-05
Al 6.294579e+00 -3.679196e+00 -5.254157e+00 9.742065e-05 1.208846e-04 -1.100612e-04
Ga 6.292172e+00 -3.676064e+00 -1.205052e-01 8.847645e-05 -1.049131e-04 1.837545e-05
Ga 4.724885e+00 -9.531322e-01 4.943810e+00 -2.305532e-04 6.318065e-05 1.397823e-04
Al 4.712212e+00 -9.383872e-01 -5.242731e+00 -1.140818e-04 1.043080e-05 1.923668e-04
Al 4.705096e+00 -9.306642e-01 -1.444337e-01 2.866668e-04 1.717823e-04 3.387524e-04
Al -3.174100e+00 1.776920e+00 4.956146e+00 8.617689e-05 -3.482966e-04 -2.225754e-04
Al -3.181916e+00 1.767637e+00 -5.221551e+00 5.605021e-06 -5.781864e-05 1.000092e-04
Al -3.194851e+00 1.770375e+00 -1.780378e-01 2.607028e-06 -9.824485e-06 -5.432390e-04
Al -3.302928e-02 -3.669889e+00 4.940688e+00 9.209279e-05 -1.058970e-04 -3.171884e-05
Al -3.076986e-02 -3.668259e+00 -5.229287e+00 -6.839109e-05 -2.436254e-05 2.196146e-04
Al -1.908389e-02 -3.671246e+00 -1.540434e-01 5.193794e-05 -2.913325e-05 -3.020899e-04
Al -1.596740e+00 -9.561974e-01 4.955248e+00 7.094104e-05 -2.946699e-04 -7.825662e-05
Al -1.592050e+00 -9.445122e-01 -5.245441e+00 -2.148008e-04 -6.382168e-05 2.266921e-04
Al -1.593286e+00 -9.491832e-01 -1.580493e-01 2.491473e-04 4.547040e-05 -1.721868e-04
N 1.514281e+00 8.934761e-01 4.297852e+00 2.997534e-04 -1.912804e-04 1.673361e-04
N 1.549182e+00 8.713305e-01 -5.830144e+00 1.078993e-04 -5.911499e-05 -3.700351e-06
N 1.598437e+00 8.473461e-01 -7.886713e-01 -9.852170e-05 -4.028135e-04 2.681711e-04
N -2.220985e-02 3.597466e+00 4.355080e+00 1.319220e-05 2.229348e-05 -5.429437e-05
N 1.471041e-02 3.575236e+00 -5.865313e+00 -1.049845e-04 -2.756948e-04 -1.907388e-04
N -1.731546e-02 3.598584e+00 -8.196823e-01 -3.969760e-05 -2.222150e-05 2.062907e-04
N 3.133600e+00 -1.901206e+00 4.293085e+00 1.054872e-04 6.399736e-05 -1.734983e-04
N 3.131390e+00 -1.812597e+00 -5.845815e+00 -4.122864e-05 -1.880624e-05 -1.191445e-04
N 3.135864e+00 -1.804512e+00 -7.745778e-01 -5.234608e-04 -5.762705e-05 1.854777e-05
N -4.715736e+00 8.954700e-01 4.284850e+00 6.006904e-04 1.295743e-04 2.299603e-04
N -4.750666e+00 8.751156e-01 -5.832664e+00 2.961958e-04 6.419503e-05 -4.621733e-05
N -4.761431e+00 8.671149e-01 -7.735613e-01 2.215224e-04 9.562560e-05 -1.621066e-04
N -6.329996e+00 3.645289e+00 4.308264e+00 -6.891693e-05 -3.606523e-05 2.710464e-04
N -6.328853e+00 3.604416e+00 -5.837204e+00 1.631178e-05 -6.520332e-06 -6.214911e-05
N -6.295398e+00 3.574376e+00 -7.238412e-01 8.650971e-05 -1.843657e-04 1.424386e-05
N -3.130143e+00 -1.877791e+00 4.315821e+00 6.114013e-05 -3.192167e-05 -4.559185e-05
N -3.171541e+00 -1.856345e+00 -5.837211e+00 -3.584950e-06 2.004465e-04 -1.045071e-04
N -3.178758e+00 -1.812972e+00 -7.271110e-01 -4.032104e-04 1.976020e-04 -6.864245e-05
N -1.601966e+00 8.655175e-01 4.391941e+00 -1.000741e-04 4.039157e-04 1.752301e-04
N -1.602624e+00 8.759231e-01 -5.842422e+00 1.951225e-04 -7.448756e-05 -1.322889e-04
N -1.641184e+00 8.455042e-01 -7.905644e-01 -1.518031e-05 1.464101e-04 5.350396e-04
N -3.182942e+00 3.599266e+00 4.399591e+00 2.041433e-05 1.129771e-04 8.887780e-05
N -3.220301e+00 3.577056e+00 -5.800644e+00 3.963244e-05 -1.122119e-04 1.149579e-04
N -3.225231e+00 3.577347e+00 -7.822938e-01 3.572097e-05 -7.652806e-05 6.551815e-04
N -6.497757e-02 -1.879749e+00 4.301494e+00 9.155509e-06 1.420961e-04 6.551930e-05
N -2.056762e-02 -1.856933e+00 -5.838710e+00 1.355055e-04 -8.119370e-05 -2.582773e-04
N -1.984211e-02 -1.855414e+00 -7.713015e-01 2.223802e-04 -1.327107e-04 3.923510e-05
N 1.340052e-02 1.806392e+00 1.819844e+00 -7.771291e-05 -9.488145e-05 -3.414674e-04
N -2.025914e-02 1.774012e+00 6.874496e+00 -6.865530e-05 1.228911e-04 -7.443024e-05
N -2.405356e-02 1.775387e+00 -3.311620e+00 -1.395577e-06 8.422098e-05 -2.445536e-05
N 3.176690e+00 -3.663781e+00 1.819842e+00 -1.233531e-05 9.571961e-05 -1.498903e-04
N 3.177312e+00 -3.652213e+00 6.861156e+00 2.521330e-05 -6.511585e-05 9.226175e-06
N 3.132170e+00 -3.673718e+00 -3.239911e+00 2.138107e-04 5.166272e-05 -5.348228e-05
N 1.552709e+00 -9.506275e-01 1.775360e+00 9.967350e-06 2.497516e-04 -5.125278e-04
N 1.554171e+00 -9.504988e-01 6.925003e+00 -1.013698e-04 -1.577646e-04 2.777877e-05
N 1.555950e+00 -9.505776e-01 -3.309623e+00 -3.281268e-04 8.275782e-05 -2.253376e-04
N 3.129232e+00 1.778264e+00 1.780391e+00 -5.619673e-05 -6.516176e-05 -6.989346e-05
N 3.130662e+00 1.778579e+00 6.932990e+00 4.859988e-05 -1.491905e-04 7.002478e-05
N 3.130198e+00 1.732299e+00 -3.332581e+00 1.185188e-04 -1.032494e-04 3.183669e-04
N 6.282531e+00 -3.682611e+00 1.854416e+00 -8.786676e-05 1.528588e-04 1.126877e-05
N 6.292573e+00 -3.677627e+00 6.865575e+00 -2.123131e-05 1.706981e-05 -1.069961e-05
N 6.250669e+00 -3.699904e+00 -3.349192e+00 -3.782112e-05 -3.179207e-05 4.882063e-05
N 4.710907e+00 -9.497915e-01 1.783010e+00 -1.236869e-04 1.148645e-05 -2.600647e-04
N 4.712615e+00 -9.489467e-01 6.925989e+00 -2.193971e-05 -1.873693e-04 -1.444109e-05
N 4.667159e+00 -9.242533e-01 -3.329857e+00 -1.134158e-04 2.486411e-05 -1.097213e-04
N -3.216376e+00 1.757564e+00 1.734462e+00 -2.571045e-06 5.004676e-05 3.442131e-04
N -3.182408e+00 1.725558e+00 6.863237e+00 -1.966139e-04 -1.562454e-04 -5.600674e-05
N -3.181460e+00 1.776663e+00 -3.299271e+00 5.884463e-05 -2.155409e-05 -3.726508e-05
N -5.995880e-02 -3.655691e+00 1.761578e+00 3.587573e-04 3.872818e-04 2.592181e-04
N -6.932256e-02 -3.651180e+00 6.854692e+00 1.608137e-04 3.024064e-04 -6.404455e-05
N 1.774292e-02 -3.647896e+00 -3.318379e+00 4.277117e-05 -1.764650e-04 -8.108046e-05
N -1.597843e+00 -9.947127e-01 1.756422e+00 -4.750208e-05 2.061318e-04 2.942579e-04
N -1.597052e+00 -9.542583e-01 6.879893e+00 -1.639298e-04 4.087643e-05 -2.113666e-04
N -1.554139e+00 -9.254126e-01 -3.329567e+00 5.298682e-05 2.585861e-05 -2.079788e-04
