108
Energy=-1077520.669192 Lattice="9.476396 0.000000 0.000000 -4.742820 8.203431 0.000000 -0.004628 0.003604 15.265807" Stress="0.000006 0.000003 -0.000000 0.000003 0.000001 -0.000002 -0.000000 -0.000002 0.000015" Properties=species:S:1:pos:R:3:forces:R:3
Al 1.552686 0.829032 2.413515 0.001744 0.011532 -0.004904
Al 1.561460 0.879860 7.487357 -0.001029 -0.000462 -0.000132
Al 1.546348 0.893802 -2.705338 0.001678 -0.005144 -0.000506
Al -0.063171 3.583811 2.400237 0.014056 0.007119 -0.008122
Al -0.030753 3.609061 7.483517 0.001113 -0.000500 0.003148
Al -0.023357 3.589618 -2.696700 -0.000250 0.001352 0.001880
Al 3.103339 -1.880447 2.397669 0.012353 0.005843 -0.001961
Al 3.149955 -1.862172 7.442244 -0.001613 -0.000422 0.008962
Ga 3.141864 -1.874778 -2.679227 -0.001104 0.001263 0.000196
Al -4.734004 0.857908 2.465649 -0.009476 0.012080 -0.014324
Al -4.777046 0.875112 7.473747 0.000775 0.000404 0.002105
Al -4.753584 0.872286 -2.728930 -0.000303 0.010293 0.006905
Ga -6.355799 3.607142 2.427143 -0.002126 -0.002931 -0.002986
Al -6.366952 3.592255 7.484398 0.001052 0.001467 0.000978
Al -6.333235 3.595442 -2.705516 -0.001047 0.001106 0.001694
Ga -3.164004 -1.860022 2.395823 -0.001558 -0.002433 0.000520
Al -3.187155 -1.854724 7.446763 0.001104 -0.001290 0.009593
Al -3.154171 -1.866058 -2.685038 -0.002989 0.002998 0.000072
Ga -1.596220 0.880180 2.365514 -0.003717 0.001089 0.001728
Al -1.620575 0.872682 7.493568 0.001429 0.000713 0.002409
Al -1.603163 0.879260 -2.702316 0.000401 -0.001471 0.000102
Al -3.180900 3.621307 2.398341 0.003386 -0.011417 0.002373
Ga -3.179559 3.606966 7.499599 0.000559 -0.000415 0.002268
Al -3.178754 3.597343 -2.706686 -0.000259 -0.000193 -0.000775
Al -0.006438 -1.840475 2.416490 -0.002671 -0.006395 -0.004051
Ga -0.038569 -1.837404 7.492979 0.001321 -0.001523 0.002539
Al -0.041742 -1.868171 -2.695637 0.006365 0.003173 -0.000647
Ga -0.018427 1.781558 4.955861 -0.002560 -0.001324 0.001041
Al -0.032915 1.783188 -5.249832 -0.000108 0.001098 0.001005
Al -0.025536 1.778476 -0.164890 0.001188 0.003583 -0.005019
Al 3.140050 -3.684255 4.926761 -0.001606 0.000585 0.001347
Al 3.137003 -3.699347 -5.236257 0.002228 -0.002643 0.003786
Al 3.142310 -3.709285 -0.147728 0.003552 0.002336 0.000949
Al 1.570884 -0.950041 4.936890 -0.001260 -0.000661 0.000312
Ga 1.566161 -0.948731 -5.242135 0.000763 0.000960 0.004255
Al 1.541715 -0.951608 -0.149434 0.001189 0.000868 -0.000235
Al 3.125517 1.760994 4.952526 -0.000676 0.007367 -0.001970
Al 3.139963 1.792723 -5.247562 -0.001069 -0.001493 0.002817
Ga 3.122143 1.767479 -0.172349 0.004414 0.001152 0.012817
Al 6.270208 -3.681691 4.963238 -0.000197 0.000997 0.001579
Ga 6.305201 -3.689785 -5.237970 -0.001895 0.001279 0.000695
Al 6.289749 -3.687882 -0.177266 -0.001345 -0.000015 -0.000409
Al 4.710918 -0.948541 4.950385 -0.000080 -0.002116 -0.002665
Ga 4.736484 -0.939708 -5.242587 -0.001553 -0.002040 0.001400
Ga 4.729276 -0.951989 -0.147643 0.000523 0.003001 -0.000009
Al -3.211144 1.785109 4.959272 0.009323 -0.001647 -0.003388
Al -3.178457 1.787545 -5.232908 0.000753 -0.000995 0.000504
Al -3.149829 1.804241 -0.171215 -0.011701 -0.006915 0.000957
Ga -0.023362 -3.670750 4.942755 -0.000620 -0.001469 -0.000011
Al -0.019311 -3.697237 -5.218037 -0.000490 0.003925 -0.000909
Ga -0.006067 -3.672694 -0.138354 -0.002528 -0.001640 -0.002034
Al -1.610328 -0.958610 4.958404 0.000273 0.008721 -0.003629
Al -1.579619 -0.937636 -5.224640 -0.009229 0.004706 0.003963
Al -1.582585 -0.936423 -0.179013 -0.003834 -0.001630 -0.001367
N 1.586048 0.837791 4.325347 0.000421 0.001883 -0.000679
N 1.559290 0.920102 -5.862982 0.000898 0.000545 -0.001950
N 1.508764 0.844825 -0.788904 0.000588 -0.000594 0.000372
N -0.035447 3.643840 4.318332 0.002359 0.000613 -0.003490
N -0.066082 3.589021 -5.863116 0.001280 -0.001528 -0.001703
N -0.028412 3.600789 -0.768523 -0.000376 -0.000360 -0.001310
N 3.131805 -1.866111 4.331567 0.001252 -0.000074 -0.001229
N 3.146869 -1.928413 -5.866101 0.000478 0.007016 -0.011675
N 3.098371 -1.893829 -0.709030 -0.000910 -0.000563 0.003333
N -4.769948 0.870586 4.361528 0.002373 0.000168 0.003684
N -4.765524 0.920958 -5.868631 0.001640 0.001605 -0.002034
N -4.725190 0.888224 -0.821278 0.004816 0.005962 0.002535
N -6.406989 3.609673 4.395665 0.002969 -0.009405 0.000238
N -6.302304 3.581303 -5.858267 0.001341 0.001323 -0.002245
N -6.377401 3.628939 -0.792570 0.003301 -0.001512 -0.000954
N -3.179779 -1.868115 4.389306 -0.001300 0.001729 0.001434
N -3.120291 -1.828985 -5.869956 -0.001415 -0.002582 -0.009499
N -3.135810 -1.882650 -0.772814 0.002482 0.000759 -0.001810
N -1.634339 0.864456 4.338976 -0.007469 -0.004843 0.005406
N -1.607046 0.872363 -5.840348 -0.000103 0.000559 -0.001488
N -1.597934 0.884412 -0.770625 -0.000052 -0.001691 -0.001486
N -3.151336 3.586967 4.321987 0.000195 -0.001460 0.000097
N -3.177962 3.611501 -5.784781 -0.003000 -0.001263 -0.001230
N -3.135128 3.595583 -0.785514 -0.001984 -0.001194 -0.001857
N -0.020256 -1.798648 4.334012 -0.001385 -0.000879 -0.003337
N -0.069161 -1.857313 -5.796576 0.006620 -0.012124 -0.003509
N -0.018970 -1.814649 -0.779815 0.000436 -0.002184 -0.002438
N 0.013160 1.796176 1.729852 0.005475 0.000580 0.012968
N -0.030996 1.777851 6.934765 0.000229 0.001335 0.000212
N -0.024834 1.781034 -3.316452 -0.000533 0.001240 -0.001229
N 3.125578 -3.698838 1.787540 0.002588 0.002636 0.000070
N 3.175242 -3.669704 6.845852 -0.000126 0.001312 -0.002371
N 3.146821 -3.735239 -3.321079 0.000631 0.000083 -0.000651
N 1.546768 -0.960641 1.789029 0.002811 -0.000580 -0.001700
N 1.586725 -0.928931 6.842457 0.004123 0.001273 0.006372
N 1.532167 -0.926248 -3.273883 -0.004040 -0.000699 0.001223
N 3.130062 1.739529 1.875121 0.004109 -0.007386 -0.011388
N 3.125708 1.783383 6.874310 0.000333 -0.001512 -0.001153
N 3.136404 1.782269 -3.317630 -0.000942 0.000065 -0.001109
N 6.271423 -3.692569 1.724363 -0.010654 -0.006647 0.007938
N 6.285625 -3.689210 6.885738 -0.001211 0.001008 0.001004
N 6.300593 -3.688317 -3.253879 -0.001052 -0.000225 -0.001080
N 4.709770 -0.901311 1.827162 -0.012280 -0.011817 0.005520
N 4.715529 -0.942324 6.869124 -0.001846 -0.000170 0.000197
N 4.756258 -0.907030 -3.258381 0.003984 -0.014501 -0.005238
N -3.228164 1.811151 1.757578 0.001025 0.001002 0.001658
N -3.191406 1.746166 6.868857 -0.000503 -0.000780 -0.000520
N -3.177717 1.781312 -3.314402 0.000216 0.000364 -0.000728
N 0.029004 -3.682517 1.845748 -0.006189 0.013052 -0.000422
N -0.063243 -3.699704 6.906576 -0.001031 -0.000415 -0.000475
N -0.020677 -3.689572 -3.294414 0.000990 0.000135 -0.000418
N -1.546430 -0.969810 1.724627 0.000297 -0.002044 0.004713
N -1.638399 -0.917067 6.858761 -0.002877 -0.000049 -0.001034
N -1.595654 -0.946691 -3.298412 -0.001629 0.001007 -0.000383
