108
Energy=-1214847.402298 Lattice="9.491695 0.000000 0.000000 -4.750346 8.216795 0.000000 -0.022349 -0.006459 15.292580" Stress="0.000003 -0.000001 -0.000005 -0.000001 0.000002 -0.000002 -0.000005 -0.000002 0.000001" Properties=species:S:1:pos:R:3:forces:R:3
Al 1.563882 0.888561 2.395713 -0.000153 -0.003677 0.000545
Al 1.552878 0.877801 7.471470 0.000719 -0.000318 0.000886
Al 1.557651 0.882062 -2.675489 -0.001992 -0.001905 -0.000371
Al -0.034373 3.605111 2.393336 0.000935 0.000499 -0.001256
Al -0.035380 3.597089 7.477723 -0.001906 -0.000720 0.002052
Al -0.023206 3.596413 -2.669839 -0.000087 0.000215 -0.000205
Al 3.149249 -1.874630 2.401266 -0.001275 0.005002 -0.000053
Al 3.135584 -1.860555 7.484589 0.000374 -0.001072 0.000750
Ga 3.155506 -1.854958 -2.692403 -0.000203 -0.000282 0.001192
Al -4.797115 0.869244 2.398201 0.002125 -0.000745 0.000418
Al -4.796695 0.872397 7.491695 0.000386 -0.000364 0.000364
Al -4.757760 0.868726 -2.689782 -0.000743 0.001143 -0.001346
Al -6.362516 3.591375 2.386611 0.001615 0.001086 -0.000155
Al -6.354914 3.589699 7.489836 -0.000083 -0.000094 0.000465
Ga -6.349009 3.603947 -2.673467 0.000175 0.000845 0.000236
Ga -3.205953 -1.863445 2.402362 0.000757 0.000265 0.000478
Ga -3.214531 -1.869098 7.482319 0.000421 0.000345 0.000526
Al -3.200293 -1.856982 -2.679697 0.000217 -0.000318 -0.000066
Al -1.588120 0.887413 2.413253 -0.000218 -0.000858 -0.000087
Ga -1.611787 0.895712 7.504285 0.000928 -0.000512 0.001434
Al -1.602310 0.899657 -2.709933 0.000983 -0.000154 -0.001010
Ga -3.177905 3.622085 2.408086 -0.000628 -0.000191 0.000862
Al -3.206295 3.610518 7.484800 0.000858 0.000500 -0.000101
Al -3.183898 3.602870 -2.691272 0.000379 -0.000296 0.000482
Ga -0.011296 -1.863716 2.416427 0.000657 -0.000027 -0.000412
Ga -0.014030 -1.877226 7.486245 0.000375 -0.000014 0.000814
Ga -0.005670 -1.862660 -2.690929 0.000402 0.000013 0.000626
Al -0.021458 1.780712 4.933573 0.000545 -0.000475 -0.000682
Al -0.002940 1.789297 -5.232035 -0.002709 -0.001138 -0.000987
Al -0.017794 1.790518 -0.138865 0.001227 0.000869 -0.001536
Al 3.140583 -3.681650 4.961392 -0.000067 0.000406 0.000155
Ga 3.145571 -3.695640 -5.257347 -0.000237 0.000126 0.000420
Al 3.150741 -3.686539 -0.156500 -0.000208 0.000465 0.000502
Al 1.567974 -0.949766 4.939792 -0.000169 0.000298 -0.000518
Al 1.576570 -0.940951 -5.264436 -0.000705 0.000694 0.000987
Al 1.576402 -0.944754 -0.130131 -0.000773 -0.000125 0.001239
Al 3.128603 1.777906 4.943191 -0.000021 -0.000210 0.000994
Ga 3.145622 1.771483 -5.256150 -0.000209 -0.000028 0.001036
Al 3.126384 1.776622 -0.135776 0.000701 0.001028 -0.002619
Ga 6.298983 -3.710088 4.942967 0.000482 0.000402 0.000019
Ga 6.309851 -3.695773 -5.243269 0.000052 -0.000138 0.000628
Al 6.295437 -3.700787 -0.142431 0.000131 -0.000064 0.000438
Al 4.694168 -0.949714 4.942902 0.000208 0.000601 -0.000074
Al 4.727054 -0.937331 -5.247871 -0.000463 0.000275 0.001069
Al 4.708324 -0.954409 -0.145747 -0.000434 -0.000144 0.001905
Ga -3.198397 1.780028 4.939804 -0.000292 0.000002 -0.000170
Al -3.194783 1.796720 -5.239726 0.000791 0.000267 -0.000392
Ga -3.194021 1.788095 -0.148661 0.000152 0.000640 0.001423
Al -0.035900 -3.687569 4.953325 0.002504 -0.004213 0.000076
Al -0.000362 -3.698594 -5.256201 -0.000299 -0.000046 0.000719
Al -0.017210 -3.695317 -0.140344 -0.000508 -0.000111 0.001542
Al -1.596842 -0.949322 4.941392 -0.000826 0.001048 0.000034
Ga -1.595313 -0.942088 -5.219230 0.000168 0.000126 -0.000137
Ga -1.605661 -0.949517 -0.158606 0.000718 0.000042 -0.000277
N 1.554327 0.876040 4.326441 0.000346 -0.000622 -0.000573
N 1.520157 0.856017 -5.896307 -0.000116 -0.000244 -0.001152
N 1.551360 0.873463 -0.747536 0.000378 -0.000511 -0.000424
N -0.078759 3.587003 4.313449 -0.000410 0.000327 -0.000823
N -0.017944 3.565250 -5.901262 0.000201 -0.001542 -0.000176
N -0.025315 3.606187 -0.748173 -0.000284 -0.000353 -0.000248
N 3.136556 -1.874062 4.330287 0.000390 -0.000136 -0.000546
N 3.154984 -1.817293 -5.878067 0.000149 0.000441 -0.001206
N 3.139678 -1.862103 -0.712328 0.000259 -0.000016 -0.000961
N -4.824142 0.849670 4.313740 -0.000370 -0.000751 -0.000502
N -4.724365 0.852787 -5.878457 0.000755 -0.000048 -0.001078
N -4.812862 0.850662 -0.772289 -0.000341 -0.000629 -0.000461
N -6.318118 3.581300 4.309635 0.000211 0.000136 -0.000727
N -6.305032 3.631907 -5.886264 0.000465 0.000262 -0.000963
N -6.352522 3.611086 -0.694956 -0.000044 -0.000324 0.000137
N -3.197234 -1.821943 4.378172 -0.000045 -0.000029 0.000693
N -3.216420 -1.838525 -5.842221 -0.000378 0.000181 -0.000634
N -3.234675 -1.888322 -0.760771 -0.000613 -0.000475 -0.000004
N -1.565222 0.854327 4.321335 0.000043 -0.000859 0.000858
N -1.601000 0.927192 -5.809732 0.002062 0.001877 0.001522
N -1.565760 0.909337 -0.803905 0.000523 0.000153 0.001172
N -3.185873 3.665335 4.375999 -0.002525 0.000555 0.001303
N -3.219741 3.594925 -5.889735 -0.000575 -0.001687 0.000348
N -3.191552 3.658018 -0.769853 0.000802 0.000312 -0.000643
N -0.021015 -1.875415 4.395996 0.000274 0.003051 0.000650
N 0.024090 -1.885462 -5.823292 0.000821 -0.000200 -0.000289
N 0.026775 -1.887551 -0.715408 0.000919 -0.000070 -0.000681
N -0.019176 1.790226 1.784937 -0.001097 -0.000967 0.000646
N 0.009809 1.802824 6.845844 -0.000728 0.000652 -0.000831
N -0.004725 1.791164 -3.305269 -0.000788 0.000457 -0.000339
N 3.184094 -3.659503 1.765240 0.001073 -0.004130 -0.000817
N 3.138288 -3.692715 6.892858 -0.000651 0.000517 -0.000467
N 3.152099 -3.738222 -3.272663 -0.000330 -0.000501 0.000012
N 1.604374 -0.934204 1.788659 0.000441 0.003679 0.001139
N 1.599619 -0.931220 6.858410 -0.000661 0.000645 -0.000829
N 1.571630 -0.898665 -3.348810 -0.000025 0.001277 -0.000060
N 3.136831 1.784003 1.776887 -0.000386 -0.000842 0.002341
N 3.129555 1.781408 6.878530 -0.000025 -0.000042 -0.000929
N 3.136364 1.737419 -3.274082 0.002772 -0.000311 0.000295
N 6.301737 -3.738827 1.781609 -0.000682 -0.000156 0.000606
N 6.297413 -3.751135 6.917875 0.001604 0.000858 -0.000974
N 6.267923 -3.670767 -3.261321 -0.000028 -0.000018 -0.000044
N 4.677175 -0.933310 1.772576 0.000468 0.002271 -0.000747
N 4.669623 -0.928303 6.856771 -0.000868 0.000591 -0.000775
N 4.766746 -0.923960 -3.328433 0.000343 0.000009 -0.000419
N -3.184090 1.743089 1.841754 -0.002251 -0.001920 -0.001935
N -3.241767 1.801681 6.910999 -0.000554 0.000357 0.000311
N -3.191941 1.792923 -3.304755 -0.000509 0.000103 -0.000380
N -0.056726 -3.714627 1.769999 -0.001551 -0.000876 -0.001623
N -0.037144 -3.743229 6.863926 0.000059 -0.000243 -0.000419
N 0.022566 -3.717894 -3.340435 0.000030 -0.000564 -0.001182
N -1.600535 -0.905227 1.810113 -0.001811 0.000913 0.000361
N -1.608989 -0.947875 6.846717 -0.000532 0.000055 -0.001246
N -1.639447 -0.929382 -3.246459 -0.000986 0.000426 0.000855
