108
Energy=-1352171.680671 Lattice="9.477201 0.000000 0.000000 -4.750387 8.210473 0.000000 0.014615 0.025270 15.286243" Stress="-0.000091 0.000019 0.000002 0.000019 -0.000073 0.000002 0.000002 0.000002 -0.000070" Properties=species:S:1:pos:R:3:forces:R:3
Al 1.566060 0.888333 2.417042 -0.002546 -0.001056 -0.000230
Al 1.540536 0.978362 7.565883 0.012779 -0.031785 -0.035012
Al 1.555973 0.866168 -2.702713 -0.000290 -0.000272 0.002180
Al -0.026839 3.565245 2.423716 0.004707 0.043847 0.011723
Al -0.007883 3.625304 7.498173 -0.003466 0.000962 -0.005011
Al -0.016533 3.588461 -2.721748 -0.000766 0.000273 0.002698
Al 3.164313 -1.853700 2.443924 0.004431 -0.009411 -0.003134
Al 3.160428 -1.866196 7.502342 0.000261 -0.000413 -0.008454
Ga 3.165315 -1.880262 -2.731305 -0.001273 -0.001352 0.000612
Al -4.770052 0.898308 2.426646 -0.005750 -0.008614 -0.002697
Al -4.786094 0.907458 7.500265 0.000594 -0.009770 -0.004422
Al -4.780583 0.885789 -2.718155 0.000284 -0.008526 0.002974
Ga -6.356909 3.614801 2.408439 -0.002006 -0.000252 0.001381
Al -6.346351 3.627495 7.495401 -0.001019 0.002193 -0.001894
Al -6.352056 3.591858 -2.708677 -0.000270 0.000187 0.003856
Ga -3.177100 -1.861042 2.420093 -0.003836 -0.001475 -0.000133
Al -3.181605 -1.862436 7.486836 0.001020 0.000888 -0.000889
Al -3.164281 -1.889696 -2.716742 -0.002444 0.002144 0.001021
Ga -1.636422 0.922132 2.416857 0.005208 -0.003686 -0.002648
Ga -1.629757 0.903333 7.505611 0.008313 -0.005638 -0.005731
Al -1.649489 0.891314 -2.710248 0.012092 -0.006693 -0.001758
Ga -3.215126 3.619747 2.413814 0.013450 0.002638 -0.002435
Al -3.205284 3.624960 7.509225 0.008742 0.004629 -0.003169
Al -3.210010 3.597550 -2.712232 0.007299 0.006074 0.000034
Al -0.017428 -1.853402 2.424688 0.008054 0.002376 0.000718
Ga -0.012837 -1.868781 7.493282 0.013095 0.008669 -0.004151
Ga -0.038578 -1.870295 -2.714198 0.008121 0.003769 0.001289
Al -0.003802 1.802036 4.965193 -0.005284 -0.003348 -0.002313
Ga -0.014213 1.773275 -5.254001 -0.010966 -0.001131 0.005679
Al -0.011354 1.784727 -0.140377 -0.004931 0.003597 -0.001732
Ga 3.170715 -3.682483 4.971705 -0.006804 -0.000407 -0.002417
Al 3.158341 -3.708456 -5.262710 -0.007822 -0.001428 0.000692
Al 3.177938 -3.704568 -0.203905 -0.006025 -0.001307 0.022057
Al 1.581803 -0.953174 4.966084 -0.000888 0.004455 -0.022179
Al 1.592235 -0.979072 -5.262033 -0.008042 0.001446 0.000760
Al 1.603264 -0.972326 -0.187002 -0.008136 0.004623 0.017442
Al 3.113159 1.800100 4.973090 0.000025 -0.000949 0.000213
Ga 3.117245 1.777766 -5.259864 0.003036 0.002226 0.007029
Al 3.135412 1.784845 -0.152423 0.002888 -0.001376 0.000848
Al 6.303464 -3.689546 4.963009 -0.001827 0.000997 -0.000782
Ga 6.301768 -3.697060 -5.260649 -0.000677 0.001135 0.003840
Al 6.294299 -3.701933 -0.207307 0.001212 -0.000241 0.021282
Al 4.722885 -0.949767 4.973329 -0.001676 0.004386 -0.002565
Ga 4.737254 -0.979915 -5.264694 -0.001247 0.007454 0.001141
Al 4.734497 -0.967853 -0.209549 -0.000994 0.011329 0.020447
Ga -3.215486 1.809211 4.976286 -0.000105 -0.001730 -0.000853
Ga -3.210169 1.787293 -5.252816 -0.000061 0.000837 0.001909
Al -3.161199 1.803209 -0.241867 -0.022936 -0.003269 0.029108
Ga -0.031711 -3.680581 4.969842 -0.000489 0.003054 0.000750
Ga -0.027359 -3.694355 -5.251114 0.000287 0.000534 0.002387
Ga -0.019442 -3.700142 -0.145868 -0.001436 0.000765 0.000853
Ga -1.595954 -0.956927 4.966529 -0.000373 0.007523 -0.003065
Al -1.597885 -0.970186 -5.252553 -0.001110 0.005572 0.000114
Ga -1.605626 -0.958276 -0.140707 -0.000821 0.007195 -0.001028
N 1.552793 0.898709 4.358438 -0.000226 -0.006293 -0.006084
N 1.551569 0.853243 -5.881722 -0.001136 -0.020222 0.003523
N 1.560246 0.879452 -0.770227 -0.002282 -0.008304 0.002494
N -0.002169 3.602567 4.357848 0.010095 -0.007693 -0.004372
N -0.035397 3.604788 -5.871595 -0.010139 0.003503 -0.008720
N -0.016673 3.595131 -0.795261 -0.000420 -0.001296 -0.002690
N 3.157832 -1.847444 4.370322 0.001533 0.012149 -0.012033
N 3.146602 -1.897271 -5.862219 -0.014106 -0.004483 -0.005035
N 3.165857 -1.881705 -0.784989 -0.002790 -0.000742 0.015730
N -4.799509 0.897023 4.363424 -0.010449 -0.013782 -0.004996
N -4.786640 0.879526 -5.875073 0.001369 -0.008947 -0.012295
N -4.766344 0.890554 -0.798400 0.000488 -0.007553 0.000964
N -6.366447 3.611217 4.365292 -0.010064 -0.007972 0.008155
N -6.355621 3.601564 -5.875078 0.000166 -0.001335 -0.013964
N -6.359079 3.594688 -0.777586 -0.011277 -0.005895 -0.006634
N -3.186983 -1.875778 4.370709 -0.011827 -0.003396 0.009852
N -3.152338 -1.873329 -5.877063 0.010101 0.006671 -0.009637
N -3.182122 -1.885911 -0.792128 -0.010360 -0.005399 -0.004611
N -1.627684 0.916306 4.368856 0.021969 0.000016 0.004716
N -1.640933 0.863924 -5.845770 0.010873 -0.017423 0.007563
N -1.645695 0.920588 -0.781234 0.023403 -0.002909 -0.005578
N -3.213690 3.623405 4.361826 0.009789 0.003895 -0.001161
N -3.200125 3.611203 -5.864094 0.018924 0.008684 -0.007594
N -3.188711 3.594638 -0.782550 0.019086 0.004699 -0.009354
N -0.001770 -1.849997 4.355099 0.010116 0.007291 -0.015692
N -0.024100 -1.861819 -5.844627 0.006207 0.018126 0.009971
N -0.018648 -1.864817 -0.763173 0.019754 0.010859 0.002345
N -0.016945 1.906009 1.802910 0.012003 -0.056215 -0.019544
N 0.019957 1.805297 6.882299 -0.005696 0.007683 0.001554
N -0.012973 1.774499 -3.304026 -0.006955 -0.003919 0.013218
N 3.204086 -3.710849 1.833689 -0.007672 0.016469 -0.021586
N 3.167445 -3.682997 6.917521 -0.005264 -0.007295 0.017121
N 3.163165 -3.721484 -3.333479 -0.007534 -0.015610 -0.003959
N 1.601866 -0.963231 1.848385 -0.011959 0.007355 -0.018731
N 1.637866 -1.026479 6.774298 -0.008917 0.029907 0.047853
N 1.593232 -0.941092 -3.340921 -0.009375 0.010662 -0.006774
N 3.137339 1.781741 1.774596 -0.002460 -0.013155 -0.003432
N 3.122106 1.822113 6.908061 0.000203 -0.003054 -0.001224
N 3.122669 1.779206 -3.306151 -0.000671 -0.000306 0.010617
N 6.278308 -3.694134 1.820616 -0.009422 -0.006287 -0.028353
N 6.307691 -3.678173 6.892416 0.000356 -0.000311 0.000531
N 6.306481 -3.706734 -3.308226 -0.000068 0.000374 0.013407
N 4.718848 -0.924751 1.829594 -0.011596 0.006300 -0.022581
N 4.726828 -0.952757 6.898518 0.001953 0.008719 0.002727
N 4.755112 -0.965856 -3.318285 0.010218 0.013751 0.010127
N -3.249559 1.786434 1.790481 0.001787 -0.002181 -0.023623
N -3.218433 1.817556 6.916865 -0.009569 0.005529 0.009030
N -3.214099 1.791575 -3.307824 0.001993 -0.000546 0.014147
N -0.029636 -3.654026 1.797482 -0.000262 0.012153 0.003735
N -0.026255 -3.696280 6.913194 0.000784 -0.015954 0.008850
N -0.030787 -3.713063 -3.304504 0.001186 -0.012610 0.008602
N -1.573672 -0.956159 1.803592 0.009935 0.004570 0.005236
N -1.605508 -0.969971 6.903736 -0.011922 0.005069 0.006449
N -1.624184 -0.961893 -3.326031 -0.009452 0.015006 -0.004590
