108
Energy=-757091.028462 Lattice="9.468042 0.000000 0.000000 -4.740892 8.189112 0.000000 -0.001133 0.002906 15.263499" Stress="0.000038 0.000002 0.000007 0.000002 0.000072 0.000003 0.000007 0.000003 0.000097" Properties=species:S:1:pos:R:3:forces:R:3
Al 1.562636 0.884697 2.406957 0.000586 -0.004654 0.004181
Al 1.555641 0.890362 7.488815 0.000255 -0.006955 -0.000398
Al 1.561538 0.890311 -2.717631 -0.000050 -0.006458 0.001111
Al -0.017081 3.600304 2.402800 -0.009391 -0.003137 0.008407
Al -0.013447 3.603227 7.476374 -0.000601 -0.000661 -0.001875
Al -0.023780 3.584599 -2.705688 0.000354 -0.000723 0.003368
Al 3.162987 -1.865476 2.409538 -0.003291 0.000540 0.001531
Al 3.161878 -1.865611 7.484853 0.000168 -0.001118 0.000081
Al 3.173722 -1.873233 -2.714051 0.000419 0.000161 0.002246
Al -4.769023 0.891388 2.402640 0.000652 -0.008330 0.003342
Al -4.773968 0.892040 7.483665 0.001350 -0.007701 0.000325
Al -4.769664 0.885637 -2.707021 0.001889 -0.007668 0.002822
Al -6.321902 3.607907 2.419092 -0.031798 -0.012583 0.014153
Al -6.338895 3.604116 7.484228 -0.001396 0.000524 0.000135
Al -6.327015 3.592324 -2.719629 -0.007757 0.002501 -0.007920
Al -3.166641 -1.870415 2.422627 -0.041251 -0.022667 0.018728
Al -3.170025 -1.860767 7.482576 -0.000287 -0.000367 -0.000116
Al -3.166847 -1.852283 -2.724873 -0.003117 -0.006326 -0.010336
Al -1.628351 0.889598 2.411365 0.003364 -0.011652 0.006001
Al -1.637020 0.897375 7.484441 0.009382 -0.004535 -0.001080
Al -1.635091 0.891205 -2.733385 0.009317 -0.002255 -0.014911
Al -3.202578 3.609590 2.409961 0.010617 0.000433 0.007099
Al -3.207904 3.607871 7.481736 0.008814 0.003235 -0.000524
Al -3.196052 3.596296 -2.712808 0.007155 0.002187 0.001454
Al -0.074618 -1.896018 2.445714 0.012906 0.007991 0.000021
Al -0.032555 -1.862313 7.491019 0.006927 0.003324 -0.000787
Ga -0.027394 -1.864747 -2.726444 0.007271 0.003954 -0.003507
Al -0.010588 1.795730 4.953470 -0.007358 -0.002785 0.001618
Al -0.009299 1.781311 -5.250047 -0.007233 -0.002725 -0.000845
Al -0.015501 1.779372 -0.122331 -0.003210 0.001117 -0.017876
Al 3.165212 -3.683649 4.954831 -0.007672 -0.003898 0.001287
Ga 3.161734 -3.689491 -5.254083 -0.008175 -0.003079 0.001219
Al 3.158481 -3.690071 -0.139348 -0.005915 -0.000641 -0.006585
Ga 1.595566 -0.966021 4.960594 -0.010075 0.005431 -0.003358
Al 1.600034 -0.963905 -5.254781 -0.009993 0.004392 -0.000988
Al 1.592722 -0.963515 -0.194618 -0.005927 0.005585 0.014454
Al 3.127645 1.797642 4.953887 0.000059 0.000410 0.001849
Al 3.131904 1.786713 -5.252585 -0.000603 -0.001501 0.002698
Al 3.127858 1.770730 -0.115484 0.000148 0.005515 -0.016079
Al 6.298467 -3.676558 4.957377 0.000560 -0.000206 -0.001196
Ga 6.298713 -3.686403 -5.252674 -0.000787 0.000737 0.005101
Ga 6.297167 -3.673984 -0.185457 -0.002224 0.000076 0.013492
Al 4.734587 -0.961892 4.955630 -0.000326 0.007034 0.001082
Al 4.732657 -0.957838 -5.253915 -0.001644 0.006933 0.002528
Al 4.714790 -0.963249 -0.100652 0.004665 0.004851 -0.021439
Al -3.201956 1.798796 4.951269 0.000926 0.000401 0.001338
Al -3.206042 1.791286 -5.256628 0.001306 -0.000773 0.002529
Al -3.198429 1.789932 -0.121569 0.000824 0.000329 -0.016688
Al -0.033649 -3.676874 4.963561 0.000936 -0.001669 -0.000905
Al -0.028094 -3.685079 -5.257091 0.000918 0.002799 0.001541
Ga -0.033529 -3.685195 -0.157997 -0.000119 -0.000863 0.011598
Al -1.602675 -0.957968 4.963853 -0.002282 0.007999 -0.000828
Al -1.599602 -0.956684 -5.261554 0.000502 0.007353 -0.000427
Ga -1.613716 -0.917393 -0.183494 -0.003281 0.001704 0.008439
N 1.556974 0.908222 4.347001 0.000211 0.004230 -0.007964
N 1.558645 0.886864 -5.850661 0.000829 -0.007923 0.000428
N 1.555029 0.886273 -0.772723 0.000358 -0.007288 0.003991
N -0.012507 3.604174 4.349829 -0.002669 -0.001775 -0.003939
N -0.010548 3.582130 -5.883973 -0.001588 -0.014814 -0.005980
N -0.032143 3.585175 -0.768897 -0.011351 -0.006936 -0.002394
N 3.178112 -1.878242 4.348276 0.010764 -0.005714 -0.010209
N 3.164618 -1.857312 -5.858100 -0.000791 0.013892 -0.005711
N 3.163238 -1.874547 -0.768713 -0.002320 0.000364 0.002062
N -4.772563 0.892261 4.348003 0.001163 -0.007870 -0.004921
N -4.772713 0.887123 -5.852773 0.001414 -0.007417 -0.000786
N -4.768082 0.883021 -0.751930 0.000951 -0.006683 0.002967
N -6.338725 3.606675 4.357396 -0.001554 -0.001732 -0.000611
N -6.326222 3.592845 -5.856244 0.012079 -0.007105 -0.006308
N -6.341821 3.598531 -0.840336 0.001739 -0.019604 0.015547
N -3.169427 -1.861448 4.358958 -0.002182 0.000321 -0.000310
N -3.169987 -1.853487 -5.858868 -0.000156 0.014130 -0.006067
N -3.174211 -1.853995 -0.859052 -0.015984 0.010921 0.019806
N -1.633941 0.897587 4.353768 0.009595 -0.004982 -0.003375
N -1.636474 0.893599 -5.854818 0.008783 -0.004483 0.001865
N -1.621547 0.948530 -0.880282 0.003571 -0.001300 0.040083
N -3.202975 3.611892 4.352676 0.009427 0.002071 -0.002123
N -3.217857 3.597031 -5.860500 -0.002581 -0.003518 -0.004473
N -3.188719 3.593027 -0.769978 0.015988 -0.002014 0.000468
N -0.052710 -1.872894 4.366091 -0.001886 -0.000539 -0.005035
N -0.030778 -1.866266 -5.850248 0.007680 0.003233 0.001285
N -0.025341 -1.850260 -0.777026 0.017732 0.009491 0.014613
N -0.004220 1.787452 1.780731 -0.013714 -0.009682 0.004712
N -0.010845 1.791807 6.884120 -0.007258 -0.005143 -0.002197
N -0.009990 1.782794 -3.324364 -0.005884 -0.004024 -0.001616
N 3.158167 -3.676897 1.778869 -0.010886 -0.004204 0.005326
N 3.160415 -3.681059 6.884510 -0.008533 -0.001908 -0.001362
N 3.164742 -3.691197 -3.304803 -0.009863 -0.001473 0.016071
N 1.586479 -0.941181 1.854222 -0.015522 -0.008875 -0.018085
N 1.594267 -0.964327 6.906136 -0.009751 0.005108 0.015128
N 1.616337 -0.960601 -3.327606 0.001698 0.010539 0.000223
N 3.133841 1.796298 1.784703 -0.001259 -0.001062 0.004075
N 3.126759 1.794306 6.884878 0.000221 -0.001781 -0.002376
N 3.132766 1.788502 -3.319929 0.000764 -0.002476 -0.001661
N 6.247089 -3.697952 1.876190 0.021905 0.004841 -0.014352
N 6.298934 -3.677182 6.886067 0.000611 0.000292 -0.002110
N 6.269356 -3.697427 -3.301989 0.010184 0.004309 0.012763
N 4.737656 -0.962592 1.787033 -0.004378 0.006914 0.007808
N 4.730848 -0.959871 6.883893 -0.001934 0.008357 -0.001014
N 4.735310 -0.962980 -3.321279 -0.003480 0.009160 -0.001748
N -3.199412 1.795489 1.785828 0.006331 -0.002777 0.002243
N -3.204477 1.797888 6.882475 0.001017 -0.001286 -0.003103
N -3.200739 1.791290 -3.323401 -0.001199 -0.000209 -0.002554
N -0.073950 -3.739586 1.923959 0.025062 0.024675 -0.027964
N -0.031766 -3.676274 6.888086 0.001152 0.001244 -0.001961
N -0.022225 -3.698611 -3.329249 0.001115 -0.011965 -0.005289
N -1.712443 -1.067012 1.884911 0.058209 0.051596 -0.026177
N -1.599345 -0.957101 6.889662 0.000320 0.008417 -0.000558
N -1.608662 -0.951182 -3.339686 -0.010660 0.012869 -0.004234
