108
Energy=-1.901480e+06 Lattice="9.573685e+00 0.000000e+00 0.000000e+00 -4.788620e+00 8.290514e+00 0.000000e+00 -1.820961e-03 -4.862521e-04 1.549353e+01" Stress="1.724614e-04 -6.275414e-05 -7.053623e-06 -6.827045e-05 1.373181e-04 -3.565784e-05 -3.269294e-06 -3.346968e-05 -3.364806e-04" Properties=species:S:1:pos:R:3:forces:R:3 Config_type=AlGaN_super3_32_1_17.xyz
Al 1.592913e+00 8.972245e-01 2.416221e+00 6.606616e-05 6.726124e-06 -4.718465e-05
Al 1.563742e+00 9.026806e-01 7.595963e+00 1.663343e-07 5.813851e-06 -9.141600e-06
Ga 1.583091e+00 8.934500e-01 -2.710490e+00 -5.262101e-06 2.440894e-05 -1.231242e-05
Al -3.330480e-03 3.639114e+00 2.429231e+00 -2.146477e-05 4.310060e-06 -1.027149e-05
Al -3.105077e-02 3.626862e+00 7.627801e+00 -8.046944e-06 1.979931e-05 3.810819e-06
Ga -8.871017e-03 3.643513e+00 -2.752916e+00 -1.623630e-05 -8.433889e-06 -6.426786e-06
Ga 3.170041e+00 -1.872769e+00 2.439941e+00 -1.108112e-05 2.488894e-05 5.473540e-05
Ga 3.180227e+00 -1.885417e+00 7.607335e+00 -1.056980e-05 5.754027e-06 9.869214e-06
Ga 3.174040e+00 -1.877207e+00 -2.734990e+00 -4.057751e-05 1.355575e-05 -7.146306e-06
Al -4.828859e+00 8.982380e-01 2.434742e+00 -9.397631e-06 -2.278825e-06 9.345345e-06
Ga -4.820156e+00 8.809667e-01 7.586844e+00 -1.080237e-05 2.414886e-05 -2.616965e-06
Al -4.813786e+00 8.905336e-01 -2.720011e+00 -5.568872e-06 2.162735e-05 -2.640065e-05
Al -6.423651e+00 3.617466e+00 2.423881e+00 -1.535015e-05 -2.734011e-05 -1.478706e-05
Ga -6.415674e+00 3.628512e+00 7.594506e+00 -1.658743e-05 -5.630822e-06 5.726058e-06
Al -6.416372e+00 3.636616e+00 -2.716210e+00 -5.580986e-06 6.059963e-06 -2.729818e-06
Ga -3.209856e+00 -1.890655e+00 2.431733e+00 -1.676649e-05 -1.410939e-05 2.450030e-05
Ga -3.224948e+00 -1.876979e+00 7.601277e+00 -2.581507e-05 -1.202001e-06 -1.216731e-06
Ga -3.215961e+00 -1.894714e+00 -2.723712e+00 -8.829868e-06 1.096558e-05 3.639381e-06
Ga -1.623350e+00 8.826723e-01 2.431671e+00 -2.025675e-05 -2.012449e-07 3.045243e-05
Al -1.604815e+00 8.935943e-01 7.591986e+00 -2.687927e-06 -1.325563e-06 2.201280e-05
Ga -1.623768e+00 8.894119e-01 -2.715870e+00 -1.038164e-05 2.648135e-06 -4.407596e-06
Ga -3.218597e+00 3.628675e+00 2.424292e+00 -6.775600e-06 -1.812565e-05 3.953732e-05
Al -3.200736e+00 3.639293e+00 7.610824e+00 1.381326e-06 4.861672e-06 1.441294e-05
Ga -3.219086e+00 3.633662e+00 -2.722271e+00 -2.680205e-05 -1.888669e-05 3.537770e-06
Ga -2.857680e-02 -1.871523e+00 2.433023e+00 -3.690806e-05 -5.572246e-05 4.424504e-06
Ga -2.617992e-02 -1.874568e+00 7.587290e+00 -2.440598e-05 -8.545934e-06 2.014795e-05
Ga -2.246925e-02 -1.882110e+00 -2.705554e+00 -2.471543e-05 -1.554333e-06 3.533619e-05
Ga -8.581847e-03 1.800234e+00 5.017651e+00 3.074819e-05 1.559399e-05 2.067935e-05
Al -2.077541e-02 1.814667e+00 -5.342702e+00 1.410217e-05 -6.016820e-06 -2.211371e-06
Ga -1.611417e-02 1.799662e+00 -1.238470e-01 5.831083e-05 5.158438e-05 -6.288977e-05
Ga 3.183262e+00 -3.728032e+00 5.035465e+00 -1.080184e-05 6.626631e-06 3.673308e-07
Al 3.187263e+00 -3.730371e+00 -5.333706e+00 -3.463886e-06 1.279854e-05 1.006320e-05
Ga 3.177944e+00 -3.725765e+00 -1.392283e-01 4.423296e-05 -7.101275e-08 1.637080e-04
Ga 1.580283e+00 -9.384586e-01 5.020499e+00 -4.890163e-07 -8.939768e-06 4.006600e-05
Ga 1.583957e+00 -9.485897e-01 -5.328040e+00 5.850578e-06 -8.970565e-06 2.806784e-05
Al 1.570208e+00 -9.476249e-01 -1.297824e-01 -3.773327e-06 -3.137331e-05 -3.865371e-06
Al 3.166045e+00 1.791679e+00 4.989895e+00 -7.304897e-06 1.027108e-05 -3.487922e-05
Ga 3.159567e+00 1.802917e+00 -5.295633e+00 7.358100e-06 -3.687139e-07 -1.189020e-05
Al 3.176545e+00 1.806854e+00 -1.450192e-01 -2.509358e-04 7.048741e-05 -6.295161e-05
Ga 6.359296e+00 -3.725405e+00 5.011146e+00 2.845906e-05 7.383991e-06 -6.856122e-06
Al 6.343671e+00 -3.729113e+00 -5.319332e+00 2.427604e-05 7.793568e-06 3.166017e-06
Al 6.373322e+00 -3.734765e+00 -1.352304e-01 -2.627993e-05 -5.082594e-05 -2.271884e-05
Al 4.770220e+00 -9.450345e-01 4.994125e+00 2.739916e-06 6.647936e-06 -5.993713e-08
Al 4.766159e+00 -9.690942e-01 -5.291857e+00 2.227715e-06 2.284513e-06 1.462749e-06
Ga 4.770395e+00 -9.404139e-01 -1.435197e-01 -1.361822e-06 -7.048333e-05 1.944124e-05
Ga -3.227119e+00 1.785195e+00 5.032688e+00 2.316513e-05 1.059457e-05 -2.857122e-06
Ga -3.204050e+00 1.800121e+00 -5.329445e+00 2.710843e-05 -1.076019e-05 -1.150321e-05
Al -3.231264e+00 1.786447e+00 -1.422808e-01 2.642874e-05 -7.540241e-06 6.824002e-06
Ga -3.551277e-02 -3.733577e+00 5.007955e+00 2.542563e-05 -1.420942e-05 2.511342e-05
Ga -2.287144e-02 -3.729866e+00 -5.299699e+00 -3.366156e-06 6.216343e-06 1.489764e-05
Ga -4.441475e-02 -3.728236e+00 -1.433943e-01 -8.725494e-06 8.650054e-06 -3.488454e-05
Al -1.631473e+00 -9.560265e-01 5.030540e+00 1.121938e-05 7.400645e-06 1.446058e-05
Ga -1.629208e+00 -9.519152e-01 -5.315596e+00 8.403522e-06 -3.134742e-05 1.853638e-05
Al -1.619928e+00 -9.602373e-01 -1.480065e-01 -4.807880e-06 -2.646455e-05 6.639335e-06
N 1.614784e+00 9.064646e-01 4.335376e+00 -6.205520e-05 1.998335e-05 3.061782e-05
N 1.539608e+00 9.149837e-01 -5.979771e+00 1.410941e-05 8.380247e-06 -9.252133e-06
N 1.614923e+00 8.627652e-01 -7.279497e-01 6.570896e-05 8.493248e-06 8.018483e-05
N -2.195829e-02 3.643345e+00 4.336278e+00 9.297687e-06 -1.545803e-05 1.045903e-05
N -2.054967e-02 3.644053e+00 -5.935584e+00 -1.196288e-05 -6.529803e-06 -1.098079e-05
N 2.240644e-02 3.666095e+00 -7.711060e-01 -1.714139e-05 2.197203e-05 -3.134048e-05
N 3.206785e+00 -1.862294e+00 4.416423e+00 -2.018454e-06 1.340880e-05 -1.261860e-05
N 3.219665e+00 -1.903152e+00 -5.900708e+00 -1.928949e-05 1.596560e-05 -7.789700e-06
N 3.128706e+00 -1.856878e+00 -7.527676e-01 3.606570e-06 1.115992e-05 -2.493730e-05
N -4.851892e+00 8.658580e-01 4.365336e+00 2.397271e-05 -2.504882e-05 3.119283e-05
N -4.817288e+00 8.295267e-01 -5.928374e+00 -6.158975e-06 1.192719e-06 -4.066803e-06
N -4.813507e+00 9.318888e-01 -7.964518e-01 9.138831e-05 -6.441035e-05 -2.058629e-05
N -6.413254e+00 3.592069e+00 4.347665e+00 -2.405911e-05 1.386921e-05 -7.742789e-06
N -6.447800e+00 3.665073e+00 -5.925350e+00 7.411762e-06 -1.950883e-05 -1.016677e-06
N -6.455983e+00 3.618013e+00 -7.889603e-01 3.957065e-05 -1.713449e-05 3.785451e-05
N -3.208874e+00 -1.837022e+00 4.419450e+00 -7.041296e-06 -5.150368e-06 7.508237e-06
N -3.260255e+00 -1.903902e+00 -5.902936e+00 -1.090366e-05 5.152159e-06 1.509070e-05
N -3.175838e+00 -1.914706e+00 -7.335167e-01 2.823278e-06 2.694717e-05 -3.832861e-06
N -1.619419e+00 8.363901e-01 4.411076e+00 5.663268e-06 -1.244474e-05 -8.808416e-06
N -1.573798e+00 9.039874e-01 -5.984171e+00 -1.329818e-05 1.178331e-05 -4.671452e-06
N -1.657942e+00 8.646068e-01 -7.292041e-01 -2.635931e-05 -1.480460e-05 -1.392572e-05
N -3.210165e+00 3.638420e+00 4.392524e+00 5.828645e-06 -1.490133e-05 -1.915923e-05
N -3.175924e+00 3.671278e+00 -5.964421e+00 -4.581119e-06 -2.088800e-05 -1.428279e-05
N -3.213653e+00 3.596611e+00 -7.423416e-01 -7.184515e-06 2.380478e-06 -2.092473e-05
N -6.569019e-02 -1.852479e+00 4.417393e+00 8.353234e-06 -7.142154e-06 -2.375398e-05
N -2.562916e-02 -1.882685e+00 -5.939850e+00 -9.610490e-07 -3.601045e-06 -2.794499e-05
N -1.841116e-02 -1.831709e+00 -7.231546e-01 1.360620e-05 -1.220270e-05 -4.104202e-05
N 1.775021e-02 1.824389e+00 1.852732e+00 -1.520699e-05 -8.728836e-05 1.280981e-04
N -1.990736e-02 1.808903e+00 7.015484e+00 -2.861544e-06 -1.396160e-06 1.564005e-05
N -2.146215e-02 1.795585e+00 -3.416933e+00 9.362217e-06 2.122068e-05 -9.806422e-06
N 3.214962e+00 -3.748388e+00 1.832536e+00 -3.767902e-05 1.550674e-05 -2.012786e-04
N 3.176698e+00 -3.775839e+00 7.021314e+00 2.253136e-06 1.285481e-05 -1.836684e-06
N 3.168246e+00 -3.728200e+00 -3.412650e+00 2.469922e-05 7.609146e-06 -9.463604e-06
N 1.573361e+00 -9.127806e-01 1.786934e+00 -4.115454e-05 6.748754e-05 1.364072e-05
N 1.578864e+00 -9.053917e-01 6.999146e+00 8.462878e-08 1.132190e-05 -8.495191e-06
N 1.571495e+00 -9.529608e-01 -3.358566e+00 6.941065e-06 -6.062479e-06 -3.746893e-05
N 3.173922e+00 1.803101e+00 1.790432e+00 2.354419e-05 6.584861e-06 5.820240e-06
N 3.122746e+00 1.777360e+00 6.914568e+00 2.141473e-05 -6.945361e-06 2.727091e-05
N 3.208866e+00 1.827148e+00 -3.313606e+00 -3.621455e-06 -1.376773e-05 2.212386e-05
N 6.364011e+00 -3.774332e+00 1.792635e+00 4.528973e-05 5.641443e-05 1.325779e-05
N 6.309929e+00 -3.751524e+00 6.990493e+00 1.795851e-05 1.052891e-05 9.721418e-07
N 6.406011e+00 -3.749870e+00 -3.400490e+00 -4.888854e-06 -4.165345e-06 -1.289525e-05
N 4.767008e+00 -9.063013e-01 1.831233e+00 2.279832e-05 -2.197047e-05 -1.395423e-05
N 4.763461e+00 -9.577871e-01 6.903221e+00 1.726416e-05 -1.231046e-05 -9.045817e-06
N 4.768730e+00 -9.096383e-01 -3.368682e+00 3.018697e-06 -9.143562e-06 -9.096369e-06
N -3.263393e+00 1.770316e+00 1.775929e+00 2.358018e-05 3.212283e-05 1.016334e-05
N -3.177128e+00 1.824645e+00 7.017853e+00 -2.406906e-06 -1.154589e-05 -9.033830e-06
N -3.254231e+00 1.776588e+00 -3.350151e+00 1.440702e-05 -2.269322e-06 1.683695e-05
N -7.323269e-02 -3.749337e+00 1.834632e+00 1.856547e-05 8.676118e-06 4.284413e-05
N 1.771609e-02 -3.755593e+00 6.988510e+00 -9.647723e-06 1.344436e-05 -2.857091e-05
N -6.518128e-02 -3.749026e+00 -3.315843e+00 8.879583e-06 5.453626e-06 -8.625640e-06
N -1.621925e+00 -9.596656e-01 1.754025e+00 4.189933e-05 3.600603e-05 -3.744657e-05
N -1.626715e+00 -9.115391e-01 6.947797e+00 1.423659e-05 -5.154454e-08 -2.353480e-05
N -1.619070e+00 -9.571866e-01 -3.346820e+00 1.745485e-05 -1.895229e-05 -3.311772e-05
