108
Energy=-1.260623e+06 Lattice="9.493055e+00 0.000000e+00 0.000000e+00 -4.749937e+00 8.215321e+00 0.000000e+00 -1.302370e-03 -8.715284e-04 1.530987e+01" Stress="-8.725448e-04 -2.719750e-04 4.692662e-06 -2.724285e-04 -1.682203e-03 1.130971e-04 8.591949e-06 1.069493e-04 -1.996440e-04" Properties=species:S:1:pos:R:3:forces:R:3 Config_type=AlGaN_super3_18_2_19.xyz
Al 1.570226e+00 8.796930e-01 2.403167e+00 6.594992e-04 3.718133e-04 -3.697133e-04
Al 1.553486e+00 8.806006e-01 7.505348e+00 1.647819e-05 -6.943380e-05 -1.107965e-04
Al 1.559755e+00 8.829311e-01 -2.703075e+00 -3.313828e-05 -6.759756e-04 -2.474764e-04
Al -2.570932e-02 3.618385e+00 2.415546e+00 -5.250614e-05 -3.386849e-04 -7.239135e-05
Al -2.832167e-02 3.605716e+00 7.483534e+00 -2.277880e-04 2.435847e-05 2.540708e-04
Al -1.473597e-02 3.600432e+00 -2.695862e+00 -3.224549e-04 -8.726752e-05 -3.386641e-04
Al 3.150144e+00 -1.873999e+00 2.403770e+00 -1.692167e-03 -2.374650e-05 -9.942539e-05
Al 3.147422e+00 -1.874906e+00 7.518630e+00 -2.873392e-04 1.322969e-04 1.015340e-04
Ga 3.144331e+00 -1.861459e+00 -2.713629e+00 -1.175974e-04 1.821113e-04 1.715405e-04
Al -4.780636e+00 8.813407e-01 2.405642e+00 -9.918921e-04 -9.436476e-04 1.380632e-03
Al -4.783238e+00 8.700821e-01 7.498178e+00 1.202013e-04 -3.103626e-04 2.760925e-04
Al -4.782897e+00 8.775417e-01 -2.695002e+00 1.237319e-04 -1.888166e-09 1.013825e-05
Ga -6.366097e+00 3.594919e+00 2.428413e+00 -2.218155e-04 2.471640e-05 1.601238e-04
Al -6.349599e+00 3.610207e+00 7.473093e+00 -2.162412e-04 -1.190605e-06 4.170233e-04
Al -6.361154e+00 3.598836e+00 -2.693723e+00 -4.551746e-05 -1.156200e-04 1.231457e-04
Al -3.197720e+00 -1.878636e+00 2.431262e+00 -2.065968e-04 -2.116611e-04 1.037077e-04
Al -3.189325e+00 -1.868046e+00 7.492089e+00 -2.085023e-04 -2.621296e-05 2.318530e-04
Ga -3.198865e+00 -1.875157e+00 -2.705255e+00 -6.591784e-05 1.886717e-04 -1.706838e-07
Ga -1.607873e+00 8.912948e-01 2.420382e+00 4.081974e-04 -3.836562e-04 -7.120299e-05
Al -1.594794e+00 8.780060e-01 7.484312e+00 4.606091e-04 -1.766335e-04 8.355352e-05
Ga -1.598040e+00 8.975651e-01 -2.687136e+00 3.780407e-04 -2.457007e-04 2.507875e-06
Al -3.172079e+00 3.620219e+00 2.420521e+00 1.146016e-04 -1.540710e-03 -6.716856e-04
Al -3.188653e+00 3.627269e+00 7.503372e+00 1.168128e-04 -1.766081e-04 2.175293e-04
Ga -3.186718e+00 3.611663e+00 -2.707966e+00 2.439407e-04 -2.050900e-04 9.749015e-05
Ga -1.031512e-02 -1.858760e+00 2.440167e+00 7.840391e-05 -1.304703e-04 -1.377494e-05
Al -2.123030e-02 -1.873283e+00 7.495718e+00 -2.741709e-05 -7.752503e-05 1.453146e-04
Ga -6.940717e-03 -1.864088e+00 -2.713311e+00 7.551919e-05 1.788967e-04 -1.039746e-04
Al -1.027373e-02 1.797894e+00 4.961626e+00 -4.897742e-04 -2.298256e-04 -2.034959e-04
Al -1.874855e-02 1.792055e+00 -5.269985e+00 6.025153e-05 1.415156e-04 3.234224e-04
Al -6.622162e-03 1.800576e+00 -1.402273e-01 -3.349444e-04 -1.131715e-04 -7.892574e-05
Al 3.149048e+00 -3.699620e+00 4.961302e+00 -1.966037e-04 3.956688e-04 -2.067066e-05
Al 3.149715e+00 -3.688090e+00 -5.284361e+00 -1.050120e-04 -4.037187e-05 3.317938e-04
Al 3.158504e+00 -3.703810e+00 -1.281515e-01 -5.520945e-04 -4.748478e-04 1.982182e-04
Ga 1.563273e+00 -9.464032e-01 4.978525e+00 -3.111969e-04 6.924969e-05 2.740980e-04
Al 1.566938e+00 -9.534169e-01 -5.294904e+00 -6.383685e-05 3.174096e-05 2.185573e-04
Al 1.571819e+00 -9.366281e-01 -1.292533e-01 -3.164653e-04 3.659677e-04 2.166152e-04
Al 3.123680e+00 1.791247e+00 4.974437e+00 6.405306e-04 8.308219e-05 -2.170243e-04
Ga 3.132707e+00 1.781484e+00 -5.255057e+00 1.399424e-04 2.851926e-06 3.915485e-04
Al 3.127963e+00 1.779558e+00 -1.627873e-01 4.060691e-04 2.008451e-04 -3.036307e-04
Al 6.303772e+00 -3.698720e+00 4.973142e+00 -1.261398e-04 9.789066e-05 9.948350e-06
Ga 6.298992e+00 -3.701683e+00 -5.277167e+00 4.035146e-06 -1.959679e-04 6.292777e-05
Al 6.294196e+00 -3.712766e+00 -1.394932e-01 -3.245061e-04 1.904441e-04 -1.423814e-04
Ga 4.723438e+00 -9.626702e-01 4.954486e+00 5.245257e-05 3.191417e-04 -2.232081e-04
Al 4.711881e+00 -9.548712e-01 -5.277904e+00 -5.284141e-05 1.084611e-04 7.967181e-05
Ga 4.717197e+00 -9.458326e-01 -1.138125e-01 6.081659e-05 -7.655277e-05 -9.366011e-06
Ga -3.195647e+00 1.802011e+00 4.975962e+00 1.448097e-04 -2.764429e-04 2.287092e-04
Ga -3.188822e+00 1.792951e+00 -5.287854e+00 1.365828e-04 -4.080157e-05 2.818789e-04
Al -3.197054e+00 1.796968e+00 -1.265498e-01 3.892123e-04 2.158651e-04 1.760006e-04
Al -2.176069e-02 -3.696569e+00 4.976274e+00 -1.536693e-04 2.067999e-04 -2.681197e-04
Al -1.311227e-02 -3.685476e+00 -5.280281e+00 -5.272137e-04 -3.087332e-04 -3.911245e-04
Ga -1.909569e-02 -3.703137e+00 -1.347218e-01 1.871293e-04 -8.058642e-05 6.138326e-04
Al -1.608116e+00 -9.622833e-01 4.985182e+00 -2.134261e-04 -2.514963e-04 5.360107e-05
Ga -1.593555e+00 -9.486875e-01 -5.289484e+00 -3.166557e-05 3.042610e-06 1.682963e-04
Ga -1.602318e+00 -9.463955e-01 -1.299384e-01 -7.009752e-05 1.997122e-04 5.126362e-04
N 1.558278e+00 9.210027e-01 4.323908e+00 2.624226e-04 5.671717e-05 6.404404e-05
N 1.516797e+00 8.587574e-01 -5.894454e+00 -7.589951e-05 8.271446e-05 1.628191e-04
N 1.552231e+00 8.686183e-01 -7.704942e-01 1.044499e-04 3.088152e-05 -3.645699e-06
N -2.350739e-02 3.612694e+00 4.347630e+00 -1.896987e-04 5.255587e-05 -2.235977e-04
N -6.491846e-02 3.584486e+00 -5.912266e+00 -2.050829e-04 -4.898938e-05 -1.876075e-04
N -2.577511e-02 3.609880e+00 -7.653059e-01 -2.944032e-04 9.451967e-05 -8.081472e-05
N 3.135870e+00 -1.917029e+00 4.312388e+00 2.909647e-05 -3.106633e-04 -1.807198e-04
N 3.146787e+00 -1.870155e+00 -5.871563e+00 -7.237051e-05 7.976845e-06 -2.173469e-04
N 3.104257e+00 -1.892336e+00 -7.234766e-01 -2.755552e-04 -7.813167e-05 1.707948e-05
N -4.818051e+00 9.031071e-01 4.321196e+00 -3.046681e-04 2.052604e-04 -6.490001e-04
N -4.780990e+00 8.293416e-01 -5.911026e+00 1.183870e-04 -1.610006e-04 -5.399529e-04
N -4.768055e+00 9.164030e-01 -7.722334e-01 -1.436490e-04 2.785207e-04 3.302468e-04
N -6.357710e+00 3.608830e+00 4.414720e+00 1.637397e-04 -9.092555e-05 1.724562e-04
N -6.311590e+00 3.630587e+00 -5.923635e+00 4.559928e-04 2.690940e-04 -1.850427e-04
N -6.395699e+00 3.590260e+00 -7.703653e-01 6.327759e-05 -1.631994e-04 -3.236870e-05
N -3.144464e+00 -1.896921e+00 4.347122e+00 2.455203e-04 -8.308957e-05 5.223707e-05
N -3.227311e+00 -1.845929e+00 -5.909566e+00 -2.972340e-04 2.559418e-04 -2.559352e-04
N -3.192738e+00 -1.913271e+00 -7.374640e-01 2.059464e-05 -2.997530e-04 1.558606e-04
N -1.568331e+00 8.526575e-01 4.399994e+00 6.737416e-04 3.700362e-04 3.293812e-05
N -1.558369e+00 9.044679e-01 -5.918300e+00 2.123069e-04 -2.019509e-04 -1.748308e-04
N -1.605325e+00 9.316588e-01 -7.051098e-01 5.459431e-04 3.465733e-05 3.289410e-04
N -3.185406e+00 3.661671e+00 4.337208e+00 4.337190e-05 3.493886e-04 -3.003940e-05
N -3.186159e+00 3.667829e+00 -5.893485e+00 1.589774e-04 8.404263e-05 -2.191969e-06
N -3.142911e+00 3.592587e+00 -7.307587e-01 4.962839e-04 2.106520e-04 3.846586e-04
N -6.058557e-02 -1.884987e+00 4.409549e+00 3.769654e-04 -4.498013e-04 1.832493e-05
N 2.071111e-02 -1.891285e+00 -5.900042e+00 1.237437e-04 -8.922191e-05 -1.307362e-04
N 2.660345e-02 -1.840828e+00 -7.409424e-01 1.675390e-04 -7.897261e-05 2.165948e-04
N 2.335690e-02 1.813596e+00 1.781892e+00 1.271154e-04 6.883855e-04 7.986083e-05
N -1.557436e-02 1.787371e+00 6.875698e+00 -3.360637e-05 1.733922e-04 -2.938176e-04
N 2.080408e-02 1.810531e+00 -3.340747e+00 -3.733591e-05 4.797116e-04 -9.921898e-05
N 3.152031e+00 -3.696593e+00 1.797935e+00 -3.948847e-04 -3.887306e-05 -1.592377e-04
N 3.144363e+00 -3.690325e+00 6.885463e+00 -1.501993e-04 1.481726e-04 -3.147317e-04
N 3.192700e+00 -3.717595e+00 -3.364884e+00 2.353534e-04 -1.387178e-04 -2.924981e-05
N 1.601910e+00 -9.240527e-01 1.791652e+00 6.559753e-04 -3.783996e-04 -1.293609e-04
N 1.568508e+00 -9.510148e-01 6.955730e+00 6.331486e-05 -4.938375e-05 2.029602e-04
N 1.565936e+00 -9.014372e-01 -3.376007e+00 -1.380495e-04 8.279370e-04 3.386736e-05
N 3.140824e+00 1.740924e+00 1.757799e+00 -7.596793e-04 -4.134957e-04 2.600464e-05
N 3.133409e+00 1.779247e+00 6.891291e+00 1.741588e-04 -9.953640e-05 -3.230204e-04
N 3.138445e+00 1.784992e+00 -3.265489e+00 9.324797e-05 1.198320e-04 2.647159e-04
N 6.265942e+00 -3.674615e+00 1.783163e+00 -4.015449e-05 4.781972e-04 4.974050e-04
N 6.301366e+00 -3.692398e+00 6.892183e+00 1.764189e-04 -8.258196e-05 -9.714247e-05
N 6.307828e+00 -3.744594e+00 -3.296588e+00 3.007265e-05 -1.473293e-04 5.360755e-05
N 4.728063e+00 -9.506928e-01 1.869311e+00 4.031626e-04 5.949088e-04 -3.040256e-04
N 4.718937e+00 -9.578048e-01 6.930271e+00 5.971631e-05 6.289311e-04 2.613802e-04
N 4.724093e+00 -9.012335e-01 -3.358928e+00 -2.514783e-04 -4.299260e-05 -1.781356e-04
N -3.235704e+00 1.813263e+00 1.797192e+00 9.775718e-04 1.192235e-03 -9.691087e-04
N -3.194239e+00 1.791760e+00 6.954245e+00 -1.625391e-04 9.271799e-05 4.500979e-05
N -3.231926e+00 1.761328e+00 -3.315571e+00 5.697812e-05 -9.049726e-06 -6.024540e-05
N 1.360280e-02 -3.714970e+00 1.832499e+00 3.051507e-04 -5.419845e-05 -5.335101e-04
N -1.664008e-02 -3.693825e+00 6.888418e+00 1.950137e-04 -6.200294e-05 -1.543143e-04
N -6.667180e-02 -3.717258e+00 -3.358029e+00 -6.960175e-05 -2.086406e-04 -3.173450e-05
N -1.646506e+00 -9.755120e-01 1.835446e+00 -1.138158e-05 8.039290e-05 -8.761643e-04
N -1.606320e+00 -9.549764e-01 6.904842e+00 -1.966590e-04 -6.066175e-05 -1.175221e-04
N -1.604589e+00 -9.446423e-01 -3.322625e+00 -1.429639e-04 4.764239e-05 2.025677e-04
