108
Energy=-1031745.386452 Lattice="9.465543 0.000000 0.000000 -4.747247 8.195212 0.000000 0.016537 0.008795 15.242623" Stress="-0.000005 -0.000003 0.000004 -0.000003 -0.000005 0.000001 0.000004 0.000001 0.000004" Properties=species:S:1:pos:R:3:forces:R:3
Al 1.554596 0.878863 2.409229 -0.000475 0.001753 -0.000619
Al 1.556966 0.879660 7.446042 0.000496 -0.000879 0.000299
Al 1.533655 0.878749 -2.679361 0.001560 -0.004240 -0.002066
Al -0.026211 3.594696 2.365540 -0.000250 -0.000355 0.000747
Al -0.015368 3.588321 7.490420 -0.002180 -0.000676 -0.000859
Al -0.048233 3.589746 -2.687758 -0.001634 -0.000213 0.001148
Al 3.134997 -1.860434 2.409009 0.003126 0.001479 -0.002621
Al 3.148737 -1.851007 7.456041 -0.000280 0.001370 0.001888
Al 3.133834 -1.874712 -2.691112 -0.003966 -0.002621 -0.000481
Al -4.755352 0.881604 2.407264 0.000040 0.001019 -0.001212
Al -4.764448 0.871540 7.450788 0.000890 0.000648 0.000517
Ga -4.770421 0.881399 -2.673939 -0.000344 -0.002301 0.000578
Al -6.336328 3.599454 2.370351 -0.001035 0.000137 0.001189
Al -6.339579 3.590756 7.475740 0.000581 -0.000621 0.000155
Ga -6.347733 3.599693 -2.664178 -0.000209 -0.000113 -0.000205
Al -3.160783 -1.853795 2.400881 -0.000791 -0.000772 -0.000574
Ga -3.158969 -1.850561 7.473800 -0.000171 0.000446 0.000431
Ga -3.177700 -1.864349 -2.694838 -0.000132 0.000419 0.000929
Al -1.603206 0.878504 2.388665 0.001729 -0.000315 -0.000274
Al -1.586545 0.872350 7.449635 0.001287 0.000599 0.001334
Al -1.592892 0.875750 -2.673869 0.003044 -0.001773 0.001098
Al -3.182017 3.602945 2.375555 0.000791 -0.000688 -0.000152
Ga -3.174003 3.607080 7.470772 0.000511 -0.000587 0.000270
Al -3.178937 3.601066 -2.669539 0.003321 0.007140 0.001018
Al -0.019137 -1.854082 2.395316 0.002427 0.002327 -0.002177
Al -0.010939 -1.836995 7.451095 0.000865 0.000159 -0.000973
Al -0.027857 -1.854875 -2.663061 0.003270 0.002637 0.000987
Al -0.021644 1.771024 4.919421 -0.001163 0.000183 0.001432
Al -0.028946 1.778098 -5.236079 -0.000440 -0.000312 0.001517
Al -0.025288 1.788684 -0.148955 -0.003291 0.000537 0.001974
Ga 3.154094 -3.681080 4.917769 -0.000568 -0.000996 0.000830
Al 3.164163 -3.683856 -5.222105 -0.001632 0.000567 0.001888
Al 3.141493 -3.694306 -0.149852 -0.001348 0.000373 0.001176
Al 1.569154 -0.935302 4.923368 -0.001707 0.000616 0.001337
Ga 1.558627 -0.952780 -5.237491 -0.000801 0.001280 0.001884
Ga 1.555444 -0.950528 -0.138988 -0.001337 0.000662 -0.001778
Al 3.136101 1.772732 4.919742 -0.000959 -0.000233 0.001319
Al 3.108951 1.772621 -5.254943 0.000022 -0.000098 0.000253
Al 3.115525 1.790620 -0.114090 0.000474 -0.000832 0.001570
Ga 6.296711 -3.689122 4.921610 -0.000190 0.000031 0.000584
Al 6.279865 -3.702390 -5.237344 -0.000203 0.002248 0.000979
Al 6.290613 -3.686760 -0.127951 -0.001177 0.000096 0.001289
Al 4.718643 -0.930123 4.915057 0.000223 -0.000895 0.000544
Al 4.704451 -0.956538 -5.241822 -0.000561 0.000121 0.001062
Ga 4.716801 -0.953480 -0.115764 -0.000835 0.000949 0.000085
Al -3.178709 1.765860 4.918743 0.000707 0.000884 0.000161
Ga -3.178450 1.765090 -5.225158 -0.000182 -0.000171 -0.000530
Al -3.167530 1.793835 -0.131812 -0.002445 -0.001044 -0.001733
Ga -0.018973 -3.676656 4.918210 -0.000024 -0.000634 0.000325
Ga -0.034003 -3.672787 -5.224957 0.000449 -0.000244 0.000545
Al -0.026360 -3.693139 -0.130091 0.004352 0.003295 0.000560
Al -1.585565 -0.927044 4.909665 -0.001121 -0.000088 0.001191
Al -1.599030 -0.947399 -5.230310 0.000353 0.002509 0.000532
Al -1.593363 -0.944119 -0.130346 -0.000194 0.000475 0.001149
N 1.554325 0.876594 4.330053 0.000880 -0.000507 -0.000059
N 1.538371 0.909321 -5.873215 0.000420 0.000582 -0.001377
N 1.542799 0.925529 -0.751157 0.004039 -0.000906 -0.007094
N -0.025855 3.551807 4.272586 0.000532 -0.000559 -0.001767
N -0.036653 3.588673 -5.833036 0.000356 0.000065 -0.000724
N -0.030360 3.603832 -0.753602 0.000441 -0.000304 -0.000037
N 3.140107 -1.815431 4.313785 0.000390 0.001084 -0.000846
N 3.169295 -1.888781 -5.863907 0.001498 -0.000790 -0.000977
N 3.138967 -1.904982 -0.785096 0.000789 -0.001215 0.000710
N -4.755638 0.877839 4.323493 0.000320 0.000561 -0.000198
N -4.804795 0.846521 -5.864458 0.000305 -0.000477 -0.001028
N -4.770528 0.918826 -0.701985 0.002013 0.001779 -0.000370
N -6.339260 3.554127 4.277928 0.000861 0.000101 -0.001294
N -6.381306 3.573224 -5.851789 -0.001212 0.000243 -0.000750
N -6.344296 3.602520 -0.682302 -0.002019 -0.001527 -0.000086
N -3.164585 -1.816522 4.317576 0.000024 0.001055 -0.000707
N -3.170468 -1.856371 -5.783166 -0.002106 -0.003289 0.001033
N -3.138391 -1.880874 -0.714550 0.002250 -0.000801 -0.000882
N -1.601067 0.880006 4.310479 0.000859 -0.000115 -0.000302
N -1.570324 0.846929 -5.867743 0.001293 -0.000906 -0.001029
N -1.601029 0.873835 -0.746734 0.000009 -0.001192 -0.000138
N -3.182579 3.560424 4.284539 0.000338 -0.001391 0.000677
N -3.148341 3.625283 -5.810357 0.000289 -0.000026 0.000083
N -3.190333 3.606682 -0.744102 0.000894 -0.000758 0.001546
N -0.012677 -1.809801 4.305436 0.000901 0.000864 -0.000842
N -0.067908 -1.833418 -5.890515 0.000737 -0.000484 0.001682
N -0.063991 -1.886693 -0.745669 -0.001213 0.000514 -0.001928
N -0.020382 1.771332 1.772759 -0.000742 0.002064 0.001243
N -0.018785 1.785416 6.848131 -0.000673 0.000928 -0.000715
N -0.033594 1.778252 -3.300028 0.000449 -0.000604 -0.000045
N 3.143701 -3.678463 1.782324 -0.000501 0.001258 -0.001358
N 3.195709 -3.655341 6.886597 0.001227 -0.001641 0.000078
N 3.138113 -3.688188 -3.294022 0.000223 -0.000539 -0.000063
N 1.573176 -0.928169 1.826038 -0.003185 -0.006648 0.005745
N 1.573923 -0.948336 6.853002 -0.000813 0.000607 -0.000422
N 1.555276 -0.969025 -3.249966 -0.001589 0.007524 0.003702
N 3.128617 1.775227 1.801761 0.000008 0.000970 -0.000472
N 3.136638 1.785529 6.846143 -0.000047 0.000387 -0.000123
N 3.087752 1.765487 -3.344673 -0.002773 -0.001764 0.001461
N 6.293925 -3.675917 1.794905 0.000370 0.000145 -0.001258
N 6.296993 -3.727621 6.897891 0.001313 0.000241 0.000241
N 6.244111 -3.718790 -3.316136 0.001646 0.001204 -0.004228
N 4.725880 -0.935919 1.851988 -0.003803 -0.004709 0.003197
N 4.690210 -0.926434 6.835182 -0.001330 0.000477 -0.001240
N 4.661814 -0.969470 -3.323942 0.002723 0.001569 -0.002736
N -3.179630 1.780544 1.785347 0.000791 0.001362 0.000619
N -3.174527 1.739670 6.842278 -0.000384 -0.000969 -0.001125
N -3.135368 1.806397 -3.246863 -0.003099 -0.002888 -0.001382
N -0.009961 -3.673250 1.796575 -0.000168 -0.000249 -0.001997
N -0.052234 -3.653478 6.893043 -0.000921 -0.000207 -0.000319
N 0.020106 -3.647356 -3.246153 -0.001707 -0.004979 -0.000537
N -1.591259 -0.943028 1.792639 0.000035 0.000032 -0.000183
N -1.551220 -0.921291 6.825137 0.000077 0.000368 -0.001365
N -1.559176 -0.925395 -3.309550 0.000105 0.001208 -0.000532
