108
Energy=-1214846.238924 Lattice="9.479528 0.000000 0.000000 -4.748196 8.207019 0.000000 -0.000361 0.013713 15.303079" Stress="-0.000036 0.000012 0.000001 0.000012 -0.000035 -0.000003 0.000001 -0.000002 0.000008" Properties=species:S:1:pos:R:3:forces:R:3
Al 1.545553 0.906891 2.435805 -0.004431 -0.011083 0.007013
Al 1.558736 0.882997 7.508926 0.001208 0.006491 0.002306
Al 1.557631 0.873695 -2.758362 0.001884 -0.003619 0.004259
Al -0.010041 3.599680 2.433000 -0.002699 0.061585 0.016808
Al -0.022200 3.608457 7.509977 -0.002571 -0.003464 0.003420
Al -0.018129 3.600182 -2.743719 0.003412 -0.002878 0.002339
Al 3.167964 -1.861276 2.417538 0.003334 -0.010260 0.002947
Al 3.141897 -1.866840 7.498113 0.006922 -0.001460 0.003751
Ga 3.166052 -1.880679 -2.743522 -0.003677 -0.001351 0.005933
Al -4.793718 0.925792 2.454312 -0.005724 -0.022748 0.002333
Al -4.781650 0.898153 7.504674 0.002741 -0.004196 -0.000458
Al -4.781498 0.870835 -2.740505 -0.001405 -0.001082 0.003333
Al -6.347581 3.599132 2.434552 -0.012266 0.007861 0.008028
Al -6.339264 3.608343 7.515586 -0.001616 -0.000959 0.002256
Al -6.364334 3.589829 -2.736924 0.002181 0.001855 -0.002215
Ga -3.179295 -1.861660 2.411891 -0.002588 -0.002122 -0.000028
Ga -3.182861 -1.862161 7.496986 0.000691 0.001045 -0.001245
Al -3.175539 -1.875091 -2.729065 -0.000745 -0.004003 0.004541
Al -1.617364 0.901112 2.440570 0.017376 -0.002783 0.004524
Al -1.613359 0.892610 7.510902 0.001821 0.005001 -0.009297
Ga -1.632509 0.883792 -2.739463 0.007808 0.000988 0.003314
Ga -3.206432 3.585694 2.440183 0.010726 0.009181 0.000493
Al -3.192623 3.615336 7.506790 0.005149 -0.000570 0.000239
Ga -3.207046 3.599002 -2.754452 0.003693 0.003374 0.005741
Al -0.035072 -1.879942 2.422804 0.004065 0.002598 0.004188
Ga -0.008355 -1.845412 7.507641 0.000678 0.000639 -0.000836
Ga -0.034322 -1.866766 -2.741483 0.009045 -0.001299 0.004878
Al -0.026370 1.791316 4.982354 -0.002281 -0.000663 0.001953
Al -0.025292 1.783118 -5.279933 -0.000833 0.001066 -0.005070
Ga -0.019494 1.779552 -0.128196 -0.002208 0.008352 -0.000282
Al 3.157544 -3.695554 4.979401 -0.001422 0.001777 -0.000056
Al 3.150059 -3.700276 -5.286277 -0.001183 -0.001194 -0.004547
Al 3.164069 -3.697080 -0.178997 -0.002910 -0.000896 0.012396
Ga 1.585741 -0.956292 4.972738 -0.006523 0.002840 -0.003797
Al 1.584845 -0.959211 -5.278829 -0.002748 0.003682 -0.000069
Ga 1.584613 -0.971181 -0.113836 -0.003099 -0.000666 -0.007765
Al 3.137957 1.799861 4.985615 -0.002359 -0.000583 0.001481
Al 3.129015 1.788962 -5.276030 -0.000887 -0.000797 0.001319
Ga 3.120576 1.780899 -0.139257 0.000793 0.002049 0.003550
Ga 6.306266 -3.695081 4.983361 0.000005 0.000563 -0.001325
Al 6.305980 -3.703198 -5.265897 -0.000866 -0.004859 0.002166
Al 6.297360 -3.691765 -0.194571 -0.001771 0.000093 0.012038
Al 4.726057 -0.939857 4.980368 -0.001590 0.002124 -0.000801
Ga 4.730578 -0.964265 -5.271544 -0.003538 0.005612 -0.000486
Al 4.732003 -0.971921 -0.187267 -0.001271 0.003747 0.010601
Al -3.196738 1.800685 4.995608 -0.000665 -0.001820 0.002033
Al -3.195087 1.799658 -5.287829 -0.004209 -0.000052 -0.002523
Ga -3.201935 1.774134 -0.116933 -0.002298 0.000733 -0.004957
Al -0.012436 -3.691304 4.986515 -0.005101 0.003549 -0.000822
Al -0.020232 -3.699889 -5.276260 -0.000931 0.000983 -0.004218
Ga -0.042051 -3.685138 -0.122136 0.000469 -0.001336 -0.007839
Al -1.607114 -0.926355 4.963137 0.001455 0.000143 0.000846
Ga -1.597775 -0.952355 -5.275772 0.000183 0.006275 -0.000840
Al -1.599903 -0.959434 -0.175620 -0.004695 0.001406 0.009573
N 1.553735 0.919183 4.369831 -0.001054 0.000609 -0.005544
N 1.553307 0.876195 -5.871296 0.000302 -0.003662 -0.000326
N 1.548464 0.867029 -0.810204 -0.000391 -0.005039 -0.004961
N -0.044602 3.590383 4.369720 -0.006917 -0.000744 -0.005329
N -0.018357 3.604057 -5.869102 -0.000589 -0.000703 -0.001937
N -0.023576 3.623651 -0.800258 -0.000875 0.005476 -0.008352
N 3.182214 -1.880577 4.358070 0.006594 -0.004609 -0.005434
N 3.128779 -1.887026 -5.883939 -0.006033 -0.004429 -0.003537
N 3.173660 -1.894693 -0.766609 0.005231 -0.002463 0.002554
N -4.776419 0.897297 4.392675 0.002595 -0.004258 -0.004762
N -4.775008 0.906526 -5.881508 0.000918 0.002745 -0.003020
N -4.780577 0.847330 -0.801567 0.001191 -0.008173 -0.003497
N -6.314918 3.596887 4.371823 0.006720 -0.002003 -0.006723
N -6.346293 3.603466 -5.863228 0.000381 0.000787 -0.002409
N -6.377729 3.615952 -0.817300 -0.003695 0.001228 -0.001855
N -3.176172 -1.833282 4.394897 -0.001633 0.008036 0.000665
N -3.172432 -1.912687 -5.859472 0.000694 -0.003793 0.001058
N -3.174428 -1.873772 -0.785844 0.001564 0.001616 0.000530
N -1.628960 0.902879 4.383865 0.006590 -0.002858 -0.007318
N -1.638376 0.926244 -5.917470 0.009480 -0.001769 0.012451
N -1.628253 0.853896 -0.765766 0.007034 -0.007953 0.005779
N -3.193429 3.616740 4.417951 0.003727 0.000143 0.002406
N -3.195930 3.612287 -5.874482 0.002955 0.001247 -0.001219
N -3.181920 3.621471 -0.766748 0.009231 0.002407 0.003498
N -0.065244 -1.878104 4.359971 0.001873 -0.001479 -0.003565
N 0.008062 -1.873760 -5.842564 0.007352 -0.004503 0.002976
N -0.047917 -1.853838 -0.765306 -0.001397 0.005085 0.001980
N 0.052837 1.980162 1.863838 -0.020833 -0.100865 -0.017650
N -0.015689 1.790953 6.913884 -0.002978 -0.002046 -0.002897
N 0.012982 1.785376 -3.376064 -0.003031 0.003719 0.005333
N 3.175383 -3.684156 1.799625 0.000000 0.001361 -0.006935
N 3.157239 -3.688431 6.910083 -0.005109 0.000708 -0.001524
N 3.186475 -3.723122 -3.391277 -0.001800 -0.003039 0.003462
N 1.595773 -1.026060 1.840245 -0.017765 0.027149 0.011503
N 1.624094 -0.914842 6.936363 -0.004684 -0.001512 -0.000598
N 1.586106 -0.941379 -3.365716 -0.005546 0.008506 -0.002288
N 3.079560 1.815249 1.895802 0.020710 -0.010495 -0.015067
N 3.131170 1.801276 6.915059 -0.000745 -0.000837 -0.003564
N 3.129873 1.777958 -3.346774 0.000669 -0.000205 0.000779
N 6.315348 -3.731942 1.791041 0.000109 0.005316 -0.008085
N 6.298257 -3.726928 6.938585 0.004633 -0.003257 0.001964
N 6.301454 -3.694904 -3.337341 -0.000049 0.001512 0.000864
N 4.691408 -0.928937 1.788638 -0.002935 0.011955 -0.007089
N 4.696037 -0.934755 6.901271 -0.006764 0.007463 -0.004219
N 4.759224 -0.949232 -3.317083 0.006322 0.007313 0.006486
N -3.197807 1.705245 1.859750 -0.002077 0.011310 -0.003263
N -3.193395 1.796389 6.918715 -0.000623 0.000062 -0.003821
N -3.234177 1.764387 -3.377930 -0.003146 -0.003264 -0.003201
N -0.078443 -3.699207 1.829411 0.004299 0.005460 0.005518
N -0.017235 -3.704506 6.905560 -0.001001 -0.004972 -0.004153
N -0.056500 -3.703805 -3.390239 -0.006602 -0.004735 0.006075
N -1.569381 -0.925985 1.806832 0.010670 0.010262 -0.011209
N -1.596478 -0.897128 6.881567 0.000710 0.002486 -0.005277
N -1.627128 -0.968733 -3.329418 -0.008812 0.000839 0.003624
