108
Energy=-2542336.975235 Lattice="9.656102 0.000000 0.000000 -4.828395 8.361272 0.000000 -0.001718 -0.001174 15.671105" Stress="-0.000000 0.000000 0.000000 0.000000 -0.000000 -0.000000 -0.000000 -0.000000 -0.000000" Properties=species:S:1:pos:R:3:forces:R:3
Al 1.582912 0.896857 2.459698 -0.000007 -0.000027 0.000036
Al 1.585127 0.890003 7.686477 -0.000036 -0.000007 -0.000003
Ga 1.595990 0.889624 -2.752088 -0.000031 0.000034 0.000007
Al -0.018905 3.667592 2.465442 -0.000003 -0.000004 -0.000005
Ga -0.019272 3.663894 7.684572 -0.000010 0.000013 0.000013
Ga -0.021826 3.674060 -2.752987 -0.000053 0.000056 0.000006
Ga 3.198520 -1.893774 2.473200 0.000023 -0.000047 0.000033
Ga 3.204875 -1.883267 7.684931 0.000009 0.000063 0.000001
Ga 3.204747 -1.886219 -2.764604 -0.000067 0.000094 -0.000006
Ga -4.856130 0.888673 2.467286 -0.000035 -0.000097 -0.000042
Ga -4.861668 0.874130 7.686745 -0.000020 0.000004 0.000005
Al -4.847337 0.884679 -2.759084 -0.000009 0.000055 -0.000019
Ga -6.475351 3.664397 2.463528 -0.000010 -0.000014 0.000028
Ga -6.466518 3.665436 7.685016 -0.000031 0.000016 0.000057
Ga -6.457634 3.664787 -2.752431 0.000023 0.000076 0.000053
Ga -3.245570 -1.898410 2.459780 -0.000070 -0.000013 -0.000054
Ga -3.257419 -1.891149 7.690980 -0.000029 0.000037 -0.000024
Ga -3.247001 -1.885854 -2.754185 0.000033 0.000112 0.000037
Ga -1.628700 0.894011 2.440158 0.000020 -0.000127 0.000047
Ga -1.621996 0.891433 7.685013 0.000008 -0.000035 0.000037
Ga -1.642587 0.887464 -2.731707 -0.000013 0.000030 0.000016
Ga -3.234088 3.666144 2.449912 -0.000019 -0.000123 0.000055
Ga -3.242123 3.674529 7.691206 -0.000006 0.000013 0.000027
Ga -3.242988 3.662997 -2.740354 -0.000003 0.000023 0.000002
Ga -0.025425 -1.884975 2.458105 -0.000013 -0.000051 -0.000012
Ga -0.018344 -1.890978 7.684439 -0.000030 0.000028 0.000013
Ga -0.023799 -1.892401 -2.742741 0.000000 0.000084 0.000014
Ga -0.013954 1.816755 5.056022 -0.000006 0.000061 -0.000031
Ga -0.017918 1.813076 -5.372472 -0.000024 0.000036 -0.000033
Ga -0.031221 1.813917 -0.123832 0.000026 -0.000005 0.000007
Ga 3.204605 -3.752142 5.063722 -0.000013 0.000113 0.000034
Ga 3.200854 -3.746708 -5.369579 0.000006 0.000054 0.000026
Ga 3.196884 -3.763205 -0.132806 0.000016 -0.000071 0.000038
Ga 1.595460 -0.955956 5.075032 -0.000000 0.000094 0.000033
Ga 1.596673 -0.961497 -5.381544 -0.000014 0.000036 0.000030
Ga 1.580292 -0.964833 -0.131998 -0.000039 0.000002 0.000013
Ga 3.189615 1.801610 5.075496 -0.000014 0.000053 0.000012
Ga 3.199965 1.802441 -5.371516 0.000014 -0.000006 0.000018
Ga 3.210941 1.809925 -0.144535 0.000011 0.000013 -0.000006
Ga 6.402365 -3.748187 5.064530 0.000003 0.000109 0.000012
Ga 6.410299 -3.745203 -5.371159 -0.000022 0.000041 0.000073
Ga 6.414639 -3.747975 -0.132915 0.000013 0.000021 0.000044
Al 4.805495 -0.968456 5.068915 0.000011 0.000084 0.000008
Al 4.806117 -0.961563 -5.353939 0.000012 0.000053 -0.000002
Ga 4.819009 -0.952620 -0.157029 0.000035 -0.000020 0.000025
Ga -3.248528 1.808705 5.074776 0.000041 0.000031 0.000006
Ga -3.249580 1.806108 -5.357900 0.000020 0.000003 -0.000019
Al -3.246776 1.803322 -0.158124 0.000017 -0.000002 -0.000005
Ga -0.023025 -3.757402 5.070398 0.000017 0.000098 0.000010
Ga -0.021326 -3.754726 -5.359908 0.000013 0.000048 -0.000008
Ga -0.021566 -3.754190 -0.144611 -0.000021 -0.000019 0.000075
Ga -1.646570 -0.968511 5.074894 0.000002 0.000055 0.000003
Ga -1.641897 -0.966921 -5.369044 0.000008 0.000052 0.000032
Al -1.637980 -0.961314 -0.145304 0.000018 0.000011 0.000041
N 1.587416 0.888973 4.375269 -0.000008 -0.000097 -0.000028
N 1.587125 0.892669 -6.062621 0.000008 -0.000072 -0.000003
N 1.585545 0.892083 -0.777563 0.000006 -0.000013 -0.000009
N -0.023992 3.674397 4.384515 0.000005 -0.000116 0.000007
N -0.022550 3.674702 -6.008217 -0.000000 -0.000087 -0.000008
N -0.021157 3.673681 -0.777678 -0.000030 0.000003 -0.000014
N 3.236003 -1.871238 4.458964 -0.000000 -0.000103 -0.000042
N 3.246487 -1.868404 -5.991490 -0.000024 -0.000051 -0.000015
N 3.196748 -1.896757 -0.780207 0.000018 0.000078 -0.000059
N -4.852388 0.842184 4.453049 0.000020 -0.000106 -0.000001
N -4.850037 0.835954 -5.997257 -0.000011 -0.000057 -0.000025
N -4.810365 0.912408 -0.830192 -0.000019 0.000021 -0.000017
N -6.464310 3.671214 4.443690 0.000011 -0.000083 -0.000033
N -6.460387 3.673731 -6.001877 0.000024 -0.000059 -0.000043
N -6.462704 3.674447 -0.773829 0.000013 -0.000026 -0.000009
N -3.284849 -1.870672 4.445088 0.000046 -0.000097 0.000005
N -3.290670 -1.867986 -5.989099 0.000024 -0.000047 -0.000006
N -3.199652 -1.874027 -0.767691 -0.000037 0.000021 -0.000040
N -1.635545 0.889268 4.424073 -0.000000 -0.000083 0.000019
N -1.633071 0.892550 -6.007427 0.000029 -0.000054 0.000017
N -1.671280 0.866630 -0.734832 0.000011 -0.000004 0.000006
N -3.241096 3.671091 4.430613 -0.000001 -0.000097 0.000007
N -3.240662 3.673331 -5.999161 0.000001 -0.000051 0.000012
N -3.239202 3.626209 -0.753978 0.000028 0.000035 0.000023
N -0.024586 -1.892020 4.440054 -0.000008 -0.000106 -0.000024
N -0.022827 -1.896372 -6.007013 0.000032 -0.000050 -0.000044
N -0.063816 -1.870032 -0.756029 0.000057 0.000042 -0.000056
N 0.019487 1.843307 1.865528 -0.000020 -0.000025 -0.000048
N 0.022478 1.791984 7.048952 0.000002 0.000025 0.000023
N -0.024627 1.811981 -3.389539 0.000028 -0.000032 0.000016
N 3.240427 -3.777863 1.853150 -0.000008 0.000037 -0.000003
N 3.197866 -3.754908 7.048961 -0.000000 -0.000026 -0.000033
N 3.193761 -3.756011 -3.388488 0.000047 -0.000056 0.000003
N 1.588747 -0.920403 1.851955 -0.000029 0.000028 -0.000064
N 1.589215 -0.917921 7.066781 -0.000005 0.000030 -0.000001
N 1.585644 -0.966617 -3.399623 -0.000002 -0.000035 0.000023
N 3.157942 1.788916 1.840792 -0.000035 -0.000003 0.000005
N 3.151722 1.788377 7.065481 0.000008 -0.000011 -0.000017
N 3.239300 1.789561 -3.380166 -0.000015 -0.000043 -0.000029
N 6.371002 -3.778397 1.850746 -0.000029 -0.000038 0.000036
N 6.411435 -3.753468 7.047235 -0.000021 -0.000017 -0.000007
N 6.416407 -3.753190 -3.390121 -0.000012 -0.000039 -0.000073
N 4.803476 -0.965323 1.816050 -0.000003 0.000035 0.000023
N 4.805694 -0.969049 6.985010 -0.000007 -0.000019 -0.000014
N 4.807614 -0.918137 -3.422731 0.000021 -0.000069 -0.000022
N -3.251064 1.811607 1.765055 0.000029 0.000172 -0.000038
N -3.245306 1.814351 7.054105 0.000011 0.000023 -0.000044
N -3.281194 1.791349 -3.370981 -0.000006 -0.000007 -0.000004
N -0.025811 -3.756210 1.833055 0.000053 0.000025 -0.000026
N -0.024183 -3.757457 7.050105 0.000039 0.000012 -0.000027
N -0.019424 -3.754660 -3.378935 -0.000027 -0.000034 0.000002
N -1.636285 -0.970799 1.773934 0.000030 0.000164 -0.000013
N -1.637696 -0.970885 7.053530 0.000021 0.000052 -0.000008
N -1.631197 -0.965696 -3.391020 -0.000014 -0.000025 -0.000038
