108
Energy=-2496561.377218 Lattice="9.650374 0.000000 0.000000 -4.825413 8.357112 0.000000 -0.002902 -0.003049 15.657913" Stress="-0.000000 0.000000 0.000000 0.000000 -0.000000 0.000000 -0.000000 -0.000000 -0.000000" Properties=species:S:1:pos:R:3:forces:R:3
Al 1.578773 0.903636 2.470894 0.000007 -0.000006 0.000002
Al 1.595221 0.894531 7.670858 -0.000000 0.000009 0.000001
Ga 1.584976 0.896070 -2.759488 -0.000005 0.000002 -0.000006
Al -0.024004 3.660586 2.471320 0.000011 -0.000011 -0.000003
Al -0.031003 3.674902 7.660490 0.000006 -0.000005 -0.000012
Ga -0.022522 3.666422 -2.747531 -0.000005 -0.000007 -0.000004
Ga 3.191458 -1.903766 2.484709 0.000001 -0.000001 -0.000000
Al 3.191382 -1.908217 7.657488 -0.000003 0.000008 -0.000013
Ga 3.192026 -1.896744 -2.756613 -0.000003 -0.000007 -0.000001
Ga -4.864676 0.890970 2.484413 -0.000004 0.000001 -0.000001
Ga -4.878988 0.886329 7.676976 -0.000008 -0.000004 0.000005
Ga -4.858695 0.892207 -2.772227 -0.000004 -0.000010 -0.000006
Ga -6.471447 3.659637 2.483050 -0.000008 0.000002 0.000015
Ga -6.476364 3.648312 7.672732 -0.000002 0.000002 -0.000002
Ga -6.459457 3.665390 -2.767438 0.000005 -0.000001 -0.000002
Ga -3.245751 -1.905861 2.472659 0.000014 0.000022 0.000004
Ga -3.254670 -1.908261 7.678365 -0.000009 0.000010 0.000004
Ga -3.243549 -1.899931 -2.759777 -0.000006 -0.000009 -0.000004
Ga -1.609018 0.901610 2.461197 0.000002 0.000006 0.000003
Ga -1.617468 0.895283 7.675002 -0.000003 0.000002 -0.000005
Ga -1.620224 0.897497 -2.743265 -0.000003 -0.000004 0.000008
Ga -3.223794 3.678485 2.487165 0.000002 0.000003 -0.000007
Ga -3.218589 3.683750 7.666606 -0.000001 -0.000005 -0.000008
Ga -3.236698 3.676805 -2.759070 0.000004 -0.000004 -0.000009
Ga -0.015584 -1.888135 2.474953 -0.000005 0.000001 -0.000019
Ga -0.010549 -1.888539 7.678773 -0.000001 0.000005 -0.000005
Ga -0.016495 -1.895662 -2.758689 -0.000002 0.000001 -0.000002
Ga -0.005479 1.831097 5.074591 -0.000006 -0.000006 -0.000013
Ga -0.004342 1.824090 -5.400956 -0.000006 0.000002 -0.000007
Al -0.014000 1.821879 -0.118124 0.000008 -0.000008 -0.000003
Al 3.207109 -3.757426 5.080024 0.000000 -0.000003 -0.000001
Ga 3.204453 -3.749620 -5.390056 0.000002 0.000000 -0.000017
Ga 3.203300 -3.764768 -0.130814 0.000006 -0.000027 -0.000001
Ga 1.599143 -0.954495 5.083758 -0.000004 -0.000006 -0.000003
Ga 1.601614 -0.953438 -5.398967 -0.000007 -0.000004 -0.000003
Ga 1.582718 -0.951870 -0.127193 0.000012 -0.000025 -0.000002
Al 3.178930 1.809210 5.071755 0.000003 0.000004 -0.000002
Al 3.185051 1.813770 -5.382463 -0.000007 -0.000005 -0.000013
Ga 3.179223 1.814004 -0.131929 -0.000015 -0.000008 0.000003
Ga 6.394315 -3.770102 5.073548 0.000001 0.000007 -0.000001
Ga 6.406841 -3.768663 -5.386279 0.000002 -0.000003 0.000007
Ga 6.401626 -3.767517 -0.128103 -0.000001 -0.000010 0.000002
Ga 4.788842 -0.969471 5.089117 0.000006 0.000006 -0.000004
Ga 4.788461 -0.964484 -5.389771 0.000005 -0.000001 -0.000002
Ga 4.799448 -0.966233 -0.137231 0.000002 0.000009 -0.000000
Ga -3.245356 1.822876 5.075408 0.000002 -0.000002 0.000003
Ga -3.247250 1.817388 -5.374219 0.000002 0.000001 -0.000009
Ga -3.234155 1.817848 -0.138912 0.000006 -0.000004 -0.000002
Ga -0.020194 -3.763490 5.079539 0.000009 0.000010 0.000002
Ga -0.027373 -3.763248 -5.379583 -0.000001 -0.000003 -0.000007
Ga -0.023174 -3.756421 -0.137090 -0.000002 -0.000028 -0.000000
Ga -1.631023 -0.967400 5.075579 0.000013 -0.000003 0.000004
Ga -1.630085 -0.964938 -5.363354 -0.000002 0.000001 -0.000005
Ga -1.626598 -0.960552 -0.143140 0.000012 -0.000007 -0.000024
N 1.622272 0.913891 4.397978 0.000002 0.000004 0.000008
N 1.633579 0.917501 -6.060327 0.000005 0.000002 0.000006
N 1.540532 0.916782 -0.769525 -0.000001 0.000001 -0.000001
N -0.068953 3.693344 4.398487 -0.000006 0.000001 0.000001
N -0.026020 3.676996 -6.079649 -0.000000 -0.000003 0.000007
N -0.022970 3.620789 -0.761071 0.000000 0.000005 0.000004
N 3.191195 -1.948198 4.467128 -0.000004 -0.000007 0.000001
N 3.193606 -1.902357 -6.079567 -0.000004 0.000008 0.000004
N 3.188720 -1.898477 -0.772759 0.000002 0.000012 -0.000006
N -4.894340 0.911604 4.468159 -0.000006 -0.000007 -0.000002
N -4.895335 0.917317 -5.994447 -0.000000 0.000003 0.000009
N -4.854086 0.892693 -0.786300 0.000005 0.000015 -0.000012
N -6.459520 3.623199 4.467469 -0.000002 -0.000006 0.000006
N -6.458114 3.620213 -5.998330 0.000003 0.000000 0.000005
N -6.459250 3.670661 -0.781560 -0.000001 0.000013 -0.000006
N -3.243988 -1.899087 4.449442 -0.000017 -0.000002 0.000001
N -3.238727 -1.897621 -6.003319 -0.000000 0.000004 0.000000
N -3.241113 -1.901819 -0.775449 -0.000005 0.000017 0.000004
N -1.623245 0.895101 4.441685 -0.000007 -0.000001 0.000003
N -1.628936 0.891137 -6.008181 0.000000 -0.000008 0.000004
N -1.581228 0.920135 -0.749228 -0.000003 0.000017 0.000009
N -3.192726 3.701368 4.470825 0.000002 -0.000005 0.000004
N -3.233725 3.676647 -6.014373 -0.000001 -0.000001 0.000020
N -3.237312 3.676416 -0.778414 -0.000001 0.000022 -0.000004
N -0.015920 -1.895420 4.451609 -0.000005 0.000003 -0.000000
N -0.020453 -1.894360 -6.003326 -0.000004 0.000009 0.000003
N -0.016960 -1.896170 -0.776201 -0.000004 0.000019 0.000009
N 0.025310 1.844347 1.820148 -0.000006 0.000002 -0.000008
N 0.025184 1.841301 7.070684 -0.000003 -0.000001 0.000004
N -0.018997 1.819929 -3.418786 0.000002 -0.000007 -0.000005
N 3.239231 -3.779225 1.850470 -0.000004 0.000009 0.000004
N 3.240988 -3.733753 7.013424 -0.000002 0.000001 0.000009
N 3.201166 -3.753247 -3.405248 0.000004 -0.000001 0.000007
N 1.589169 -0.914435 1.861589 -0.000010 0.000022 0.000011
N 1.628375 -0.938114 7.078113 0.000001 -0.000002 0.000007
N 1.590589 -0.962148 -3.410816 0.000002 0.000000 0.000003
N 3.149609 1.791531 1.847943 0.000001 0.000012 -0.000007
N 3.144143 1.787623 6.991233 0.000004 -0.000003 0.000001
N 3.186371 1.814965 -3.457623 0.000002 0.000002 0.000000
N 6.367020 -3.782795 1.860036 -0.000009 -0.000002 -0.000001
N 6.364616 -3.783610 7.056159 0.000007 -0.000011 0.000003
N 6.405233 -3.758910 -3.401937 0.000002 0.000008 0.000005
N 4.797833 -0.967004 1.841138 -0.000007 -0.000016 0.000015
N 4.757940 -0.992126 7.067901 0.000010 -0.000002 0.000001
N 4.797561 -0.970127 -3.406014 0.000008 0.000006 0.000005
N -3.243709 1.817048 1.844145 0.000003 -0.000010 -0.000000
N -3.245949 1.811994 7.050296 0.000000 0.000003 -0.000002
N -3.236542 1.815500 -3.391195 0.000003 -0.000003 0.000006
N -0.023966 -3.758339 1.847182 0.000007 -0.000003 0.000009
N -0.028900 -3.758492 7.054038 0.000004 -0.000010 0.000003
N -0.023537 -3.755184 -3.398548 0.000001 0.000002 0.000010
N -1.632421 -0.968251 1.835041 0.000001 0.000002 0.000009
N -1.634319 -0.970689 7.047220 0.000006 -0.000001 0.000001
N -1.630791 -0.963533 -3.382636 0.000004 -0.000001 0.000002
