108
Energy=-2313459.336031 Lattice="9.629948 0.000000 0.000000 -4.821760 8.336035 0.000000 0.008537 0.002067 15.598114" Stress="-0.000000 -0.000000 0.000002 -0.000000 -0.000001 0.000001 0.000002 0.000001 -0.000000" Properties=species:S:1:pos:R:3:forces:R:3
Al 1.576602 0.898886 2.465107 0.000246 -0.000244 0.000202
Al 1.580818 0.879888 7.646345 0.000272 -0.000224 0.000852
Al 1.575956 0.874990 -2.762248 0.000486 -0.000322 0.000503
Al -0.025592 3.657146 2.437344 -0.000086 0.000347 0.000450
Ga -0.017304 3.656690 7.646109 -0.000082 -0.000222 0.000938
Ga -0.019209 3.663369 -2.738538 0.000182 0.000171 0.001227
Ga 3.187808 -1.905106 2.437393 0.000287 -0.000481 0.000661
Al 3.185130 -1.883128 7.657124 0.000178 -0.000002 0.000513
Ga 3.170839 -1.889237 -2.742700 0.000181 -0.000022 0.000908
Ga -4.839856 0.901065 2.445791 0.000518 -0.000288 -0.000111
Ga -4.851759 0.883096 7.653068 0.000517 -0.000131 0.000237
Ga -4.850958 0.891093 -2.733931 0.000366 -0.000095 0.000179
Ga -6.452773 3.660893 2.435678 -0.000005 0.000330 0.000577
Ga -6.445788 3.664732 7.670338 0.000263 -0.000098 0.000516
Ga -6.461715 3.665233 -2.753567 0.000315 0.000244 0.000809
Ga -3.231123 -1.902715 2.445768 0.000346 -0.000346 0.000482
Ga -3.236308 -1.897817 7.663513 0.000268 0.000347 0.000499
Ga -3.235337 -1.908456 -2.746321 0.000250 -0.000047 0.000609
Ga -1.616162 0.913572 2.450541 0.000457 -0.000500 0.000349
Ga -1.609319 0.899022 7.638853 0.000750 -0.000301 0.000376
Ga -1.629985 0.894098 -2.727510 0.000690 -0.000488 0.000219
Al -3.215938 3.665202 2.428827 0.000180 -0.000330 0.000216
Ga -3.232556 3.679056 7.662925 0.000459 -0.000321 0.000740
Ga -3.239803 3.666515 -2.734360 0.000149 0.000089 0.000935
Ga -0.004948 -1.885938 2.455762 0.000282 -0.000332 0.000319
Ga 0.004308 -1.886443 7.673050 0.000488 0.000025 0.000420
Ga -0.009396 -1.885085 -2.770211 0.000593 -0.000258 0.000591
Al -0.007865 1.817325 5.032801 -0.000390 0.000150 0.000636
Ga -0.009681 1.805845 -5.341964 -0.000560 0.000235 0.001062
Ga -0.020672 1.821118 -0.142156 -0.000121 0.000550 0.000339
Ga 3.201517 -3.757013 5.039072 -0.000343 0.000101 0.000861
Ga 3.184472 -3.734421 -5.357599 -0.000337 0.000020 0.000681
Al 3.195294 -3.763208 -0.134367 -0.000544 0.000021 0.001124
Ga 1.593037 -0.950134 5.061712 -0.000750 0.000516 0.000639
Al 1.585556 -0.966343 -5.365232 -0.000456 0.000193 0.000496
Ga 1.584981 -0.965040 -0.142890 -0.000269 0.000737 0.000185
Ga 3.168161 1.811937 5.054680 -0.000154 0.000012 0.000773
Ga 3.163117 1.814270 -5.347013 -0.000121 0.000028 0.000601
Ga 3.168772 1.809621 -0.153345 0.000322 -0.000082 0.000692
Ga 6.394696 -3.756336 5.038028 -0.000150 -0.000021 0.000992
Al 6.403210 -3.748467 -5.348333 -0.000054 -0.000109 0.000447
Al 6.382074 -3.750686 -0.137770 -0.000092 -0.000144 0.001341
Ga 4.794861 -0.970108 5.062071 -0.000298 0.000027 0.000397
Ga 4.778327 -0.979624 -5.348018 -0.000327 0.000082 0.000503
Ga 4.794789 -0.979933 -0.152933 -0.000262 0.000923 0.000305
Ga -3.222608 1.825894 5.038604 -0.000158 -0.000007 0.000614
Ga -3.243008 1.822475 -5.344811 -0.000167 -0.000053 0.000748
Al -3.233504 1.826263 -0.135251 -0.000607 -0.000048 0.001237
Ga -0.008106 -3.747594 5.037347 -0.000161 0.000029 0.000862
Al -0.027963 -3.739126 -5.338617 -0.000205 0.000038 0.000283
Ga -0.016619 -3.755592 -0.145031 0.000497 0.000177 0.000430
Ga -1.615806 -0.957204 5.057657 -0.000505 0.000219 0.000213
Ga -1.621564 -0.978739 -5.345140 -0.000509 0.000246 0.000144
Ga -1.637160 -0.971439 -0.151815 -0.000055 0.000644 0.000364
N 1.542769 0.909734 4.387106 0.000265 -0.000191 -0.000754
N 1.570787 0.839125 -6.024194 0.000435 -0.000414 -0.000757
N 1.571382 0.878445 -0.845329 0.000554 -0.000187 -0.000486
N -0.023479 3.618666 4.374122 0.000043 -0.000254 -0.000893
N 0.011208 3.681245 -5.963206 0.000295 0.000129 -0.000767
N -0.028496 3.710242 -0.743823 0.000242 0.000125 -0.000930
N 3.190549 -1.894909 4.415175 0.000245 -0.000205 -0.000486
N 3.142310 -1.870127 -6.015501 0.000086 -0.000014 -0.000684
N 3.178596 -1.948129 -0.753049 0.000377 -0.000525 -0.000455
N -4.839380 0.890074 4.427110 0.000302 0.000105 -0.000426
N -4.849431 0.886582 -5.970453 0.000258 0.000012 -0.000496
N -4.803453 0.912284 -0.749047 0.000823 0.000053 -0.000396
N -6.443075 3.664847 4.412812 0.000091 0.000053 -0.000799
N -6.448837 3.711869 -5.934279 0.000110 0.000260 -0.000457
N -6.495606 3.690321 -0.760406 -0.000051 0.000252 -0.000462
N -3.226284 -1.891672 4.423146 0.000229 -0.000007 -0.000564
N -3.236774 -1.940971 -5.954318 0.000195 -0.000135 -0.000392
N -3.234551 -1.950517 -0.764401 0.000273 -0.000209 -0.000336
N -1.584371 0.916882 4.437936 0.000733 -0.000073 -0.000271
N -1.631393 0.891748 -5.979286 0.000604 -0.000225 -0.000605
N -1.674628 0.914027 -0.744873 0.000635 -0.000196 -0.000114
N -3.228074 3.669177 4.352401 0.000429 -0.000054 -0.000778
N -3.285384 3.692193 -5.956159 0.000136 0.000090 -0.000603
N -3.197771 3.642719 -0.742329 0.000801 0.000011 -0.000605
N -0.012185 -1.885726 4.429863 0.000507 -0.000239 -0.000529
N 0.018826 -1.917012 -5.932969 0.000648 -0.000264 -0.000211
N -0.020687 -1.895075 -0.788535 0.000428 -0.000348 -0.000434
N 0.030193 1.837075 1.847366 -0.000702 -0.000196 -0.000097
N 0.029841 1.791665 6.970598 -0.000163 0.000148 -0.000962
N 0.014403 1.788001 -3.352916 -0.000250 0.000150 -0.000729
N 3.199774 -3.796751 1.804618 -0.000111 0.000065 -0.001226
N 3.198056 -3.699809 7.036323 -0.000178 0.000380 -0.000726
N 3.190301 -3.746359 -3.378425 -0.000171 0.000033 -0.000867
N 1.592586 -0.908432 1.838897 -0.000924 0.000314 -0.000108
N 1.633022 -0.939648 7.053021 -0.000375 0.000336 -0.000415
N 1.590531 -0.919688 -3.431790 -0.000638 0.000728 -0.000750
N 3.141347 1.786635 1.833502 -0.000705 -0.000152 -0.000546
N 3.142297 1.794223 7.044421 -0.000393 -0.000014 -0.000657
N 3.138064 1.788356 -3.358490 -0.000417 -0.000182 -0.000567
N 6.358218 -3.768418 1.790846 -0.000099 -0.000135 -0.001208
N 6.405302 -3.746994 7.013115 -0.000072 -0.000109 -0.000753
N 6.393602 -3.748459 -3.433938 -0.000136 -0.000236 -0.000873
N 4.798796 -0.963663 1.820744 -0.000811 -0.000009 -0.000377
N 4.757663 -0.991961 7.046267 -0.000526 -0.000024 -0.000480
N 4.787106 -0.969305 -3.366175 -0.000401 0.000162 -0.000514
N -3.230493 1.859945 1.793661 -0.000278 0.000369 -0.001124
N -3.232148 1.820822 7.018759 -0.000461 0.000064 -0.000395
N -3.238288 1.813574 -3.371472 -0.000331 -0.000002 -0.000570
N 0.027535 -3.764330 1.839501 -0.000690 -0.000356 -0.000374
N -0.015960 -3.742353 7.017870 -0.000392 -0.000011 -0.000692
N -0.022078 -3.749219 -3.416526 -0.000218 -0.000236 -0.000586
N -1.618629 -0.960664 1.827257 -0.000912 0.000090 -0.000364
N -1.616997 -0.969202 7.036910 -0.000566 -0.000025 -0.000220
N -1.631090 -0.963059 -3.368413 -0.000549 0.000317 -0.000317
