108
Energy=-2.359235e+06 Lattice="9.633704e+00 0.000000e+00 0.000000e+00 -4.817875e+00 8.340835e+00 0.000000e+00 -3.077963e-03 5.443547e-04 1.562040e+01" Stress="4.600698e-05 -4.543797e-05 -1.515031e-04 -4.155333e-05 1.254504e-05 3.562497e-05 -1.516280e-04 3.342668e-05 5.445593e-05" Properties=species:S:1:pos:R:3:forces:R:3 Config_type=AlGaN_super3_42_2_10.xyz
Al 1.581148e+00 8.900835e-01 2.463145e+00 1.683622e-04 4.807990e-05 1.655580e-04
Al 1.575091e+00 9.095845e-01 7.636410e+00 1.087391e-04 -3.219434e-05 9.092731e-05
Ga 1.583673e+00 8.838195e-01 -2.734101e+00 1.758804e-04 -1.477757e-05 1.212407e-04
Al -1.000040e-02 3.656740e+00 2.463211e+00 1.489452e-05 -4.927728e-05 2.078117e-04
Al -6.555559e-03 3.658026e+00 7.642641e+00 -1.973731e-07 -5.961547e-05 1.182100e-04
Ga -2.368299e-02 3.670498e+00 -2.743446e+00 8.227772e-05 -9.896672e-05 1.700256e-04
Ga 3.189896e+00 -1.879993e+00 2.462840e+00 1.577716e-04 -8.283362e-05 1.739348e-04
Ga 3.205093e+00 -1.892343e+00 7.639318e+00 7.044706e-05 -6.767518e-05 1.167028e-04
Ga 3.179087e+00 -1.898839e+00 -2.734312e+00 8.081494e-05 -8.370765e-05 7.641523e-05
Al -4.851650e+00 8.805429e-01 2.476865e+00 1.156610e-04 1.206515e-04 2.408863e-05
Ga -4.853107e+00 8.792256e-01 7.647289e+00 1.734166e-04 -3.216748e-05 1.476754e-04
Ga -4.838657e+00 8.972302e-01 -2.753643e+00 1.925115e-04 -4.325807e-06 3.064806e-05
Ga -6.463633e+00 3.655565e+00 2.452791e+00 1.681124e-04 -8.360446e-05 2.251351e-04
Al -6.465288e+00 3.666019e+00 7.650424e+00 8.392326e-05 -4.831362e-05 7.356512e-05
Ga -6.448501e+00 3.667718e+00 -2.736327e+00 9.221225e-05 -9.056855e-05 7.644814e-05
Ga -3.249474e+00 -1.901047e+00 2.464238e+00 9.613638e-05 1.753148e-05 2.581570e-04
Al -3.244130e+00 -1.903642e+00 7.639240e+00 9.020262e-05 -2.709627e-05 7.545941e-05
Ga -3.234118e+00 -1.903995e+00 -2.734064e+00 1.009792e-04 -6.404429e-05 1.467515e-04
Ga -1.618061e+00 9.009330e-01 2.475012e+00 1.270878e-04 -3.293487e-05 1.067572e-04
Ga -1.612208e+00 8.935697e-01 7.640266e+00 1.108483e-04 -9.079905e-05 5.026905e-05
Ga -1.632168e+00 8.981823e-01 -2.746298e+00 1.351717e-04 -1.250538e-04 1.119061e-04
Ga -3.231558e+00 3.661995e+00 2.465049e+00 5.876813e-05 -1.314931e-04 2.119579e-05
Ga -3.235656e+00 3.669781e+00 7.656286e+00 9.401130e-05 -1.412018e-04 1.001241e-04
Al -3.231854e+00 3.666081e+00 -2.746254e+00 4.275760e-05 -1.141718e-04 -6.367259e-06
Ga -1.188578e-02 -1.883127e+00 2.455658e+00 7.035794e-05 -2.070136e-04 1.497875e-04
Ga -3.324184e-02 -1.894346e+00 7.660762e+00 7.625302e-05 -1.409543e-04 7.511810e-05
Ga -1.188988e-02 -1.894292e+00 -2.742904e+00 8.303872e-05 -1.571179e-04 1.537572e-04
Al -9.642333e-03 1.821908e+00 5.050239e+00 8.749768e-05 4.259813e-05 5.257495e-05
Ga -1.378324e-02 1.817130e+00 -5.374281e+00 4.232090e-05 5.564864e-05 1.522572e-04
Ga -7.498531e-03 1.817734e+00 -1.219331e-01 -1.311094e-05 1.038674e-04 1.807840e-04
Ga 3.209761e+00 -3.753548e+00 5.053662e+00 3.750116e-05 9.129440e-05 9.252960e-05
Ga 3.195385e+00 -3.752520e+00 -5.357875e+00 3.753772e-05 6.635542e-05 1.107636e-04
Ga 3.194429e+00 -3.746067e+00 -1.363531e-01 7.839331e-05 4.256873e-05 2.024721e-04
Ga 1.585937e+00 -9.469917e-01 5.060715e+00 1.867215e-05 1.719307e-05 1.684486e-04
Ga 1.586890e+00 -9.560686e-01 -5.376579e+00 -7.825876e-06 2.709106e-06 7.774228e-05
Al 1.584018e+00 -9.601697e-01 -1.224185e-01 -8.540372e-05 -5.894384e-05 -8.104257e-05
Ga 3.175193e+00 1.801039e+00 5.052334e+00 4.554470e-05 -7.043050e-06 9.853066e-05
Ga 3.177317e+00 1.817812e+00 -5.380977e+00 1.851865e-05 -5.558874e-05 7.204627e-05
Ga 3.179634e+00 1.805471e+00 -1.136564e-01 6.397848e-05 -1.400715e-05 2.910266e-04
Ga 6.382620e+00 -3.750430e+00 5.080380e+00 9.230986e-05 -2.832647e-05 1.568053e-04
Ga 6.399473e+00 -3.746011e+00 -5.398730e+00 3.528275e-05 -2.852899e-05 9.948573e-05
Al 6.393502e+00 -3.751029e+00 -1.228677e-01 -3.965798e-05 2.603535e-06 -8.015882e-06
Al 4.796792e+00 -9.622626e-01 5.055608e+00 2.408434e-05 -1.126597e-04 4.750272e-05
Ga 4.801992e+00 -9.734346e-01 -5.361806e+00 -3.838332e-05 -7.402532e-05 9.354688e-05
Ga 4.789888e+00 -9.693116e-01 -1.303593e-01 -3.179708e-05 1.873104e-05 1.652443e-04
Ga -3.238614e+00 1.801875e+00 5.051881e+00 5.855861e-05 5.489540e-06 9.768588e-05
Ga -3.233064e+00 1.818126e+00 -5.353614e+00 3.385644e-05 -3.356559e-05 9.492262e-07
Ga -3.239774e+00 1.817100e+00 -1.318645e-01 -1.034694e-05 -7.521381e-06 2.209405e-04
Ga -2.894805e-02 -3.747320e+00 5.070212e+00 3.381234e-05 -4.125063e-05 4.283559e-05
Ga -2.676732e-02 -3.754213e+00 -5.349044e+00 4.477372e-05 -3.593353e-05 9.920809e-05
Ga -2.033752e-02 -3.742883e+00 -1.555699e-01 3.623036e-05 1.427042e-04 1.933772e-04
Ga -1.637638e+00 -9.618528e-01 5.066204e+00 -2.552895e-05 -8.879549e-05 5.845750e-05
Ga -1.638266e+00 -9.693837e-01 -5.368166e+00 -2.333792e-05 -7.191349e-05 3.454843e-05
Ga -1.623990e+00 -9.741384e-01 -1.352813e-01 4.412349e-05 1.070434e-05 1.406942e-05
N 1.537476e+00 9.095408e-01 4.385364e+00 9.738056e-05 4.759543e-05 -9.698571e-05
N 1.579027e+00 8.907231e-01 -6.065516e+00 5.603852e-05 6.094865e-05 -6.622312e-05
N 1.584041e+00 8.388916e-01 -7.513505e-01 -2.808305e-06 1.010950e-04 -1.305980e-04
N -1.533508e-02 3.619522e+00 4.387898e+00 -2.470494e-05 6.454227e-05 -4.655551e-05
N -2.603953e-02 3.663128e+00 -6.056947e+00 1.692405e-05 -2.589034e-05 -9.016099e-05
N 2.070206e-02 3.690332e+00 -7.595864e-01 -3.605853e-05 -6.231439e-05 -1.783929e-04
N 3.226746e+00 -1.867329e+00 4.450638e+00 -3.353046e-05 -4.611201e-05 -1.053094e-04
N 3.194309e+00 -1.895789e+00 -6.000856e+00 1.480697e-05 6.711507e-07 -8.045864e-05
N 3.143676e+00 -1.869015e+00 -7.445220e-01 6.957906e-05 -3.718428e-05 -1.602129e-04
N -4.846096e+00 8.375451e-01 4.400969e+00 4.995782e-06 1.368410e-04 -1.244156e-05
N -4.839839e+00 8.838548e-01 -5.993807e+00 1.217541e-05 8.192144e-05 -6.252561e-05
N -4.843978e+00 8.887742e-01 -7.777085e-01 -2.068903e-05 4.947271e-05 -1.021587e-04
N -6.455292e+00 3.669442e+00 4.429417e+00 -1.021142e-04 2.039182e-05 -1.377919e-04
N -6.441696e+00 3.668016e+00 -6.051368e+00 -5.809358e-05 2.566921e-05 -9.315391e-05
N -6.493538e+00 3.685895e+00 -7.439002e-01 3.250807e-05 -6.887084e-05 -1.495709e-04
N -3.277803e+00 -1.877410e+00 4.446470e+00 2.461527e-05 -3.021828e-05 -1.487202e-04
N -3.237444e+00 -1.890187e+00 -6.061554e+00 -2.761984e-05 -1.001469e-05 -4.633245e-05
N -3.235081e+00 -1.946651e+00 -7.466624e-01 -3.191752e-05 2.046885e-05 -2.266800e-04
N -1.581698e+00 9.139591e-01 4.457561e+00 -8.407030e-05 -2.594688e-05 -1.021092e-04
N -1.625741e+00 8.905542e-01 -5.998554e+00 1.184545e-05 -1.909206e-07 -1.180856e-04
N -1.625028e+00 8.916148e-01 -7.636416e-01 1.696000e-05 -8.124074e-06 -1.455410e-04
N -3.235119e+00 3.670376e+00 4.435864e+00 -7.502275e-05 -5.997488e-05 -4.592424e-05
N -3.233976e+00 3.670480e+00 -5.991788e+00 -7.604093e-05 -5.092554e-05 -1.159657e-04
N -3.229106e+00 3.665543e+00 -8.243151e-01 -4.423584e-05 -6.772598e-05 5.595870e-05
N -2.038019e-02 -1.890356e+00 4.432742e+00 -8.197657e-05 -7.665246e-05 -8.553484e-05
N -2.338382e-02 -1.896478e+00 -5.984314e+00 -2.465715e-05 -7.344326e-05 -7.360389e-05
N 2.445640e-02 -1.863920e+00 -7.555327e-01 -6.058727e-05 -1.073309e-04 -1.754990e-04
N 2.246168e-02 1.838250e+00 1.864274e+00 -9.498772e-05 1.546394e-05 -2.833222e-04
N 2.327053e-02 1.842294e+00 6.986213e+00 -1.147785e-04 1.525586e-04 -1.983468e-05
N -1.673661e-02 1.814884e+00 -3.390992e+00 -4.412471e-05 2.128936e-04 -7.272230e-05
N 3.233986e+00 -3.772613e+00 1.853678e+00 -1.474094e-04 2.315569e-04 -2.256429e-04
N 3.236397e+00 -3.776569e+00 7.035368e+00 -6.855410e-05 1.560374e-04 -1.589091e-04
N 3.151735e+00 -3.772016e+00 -3.364387e+00 1.727617e-06 1.747363e-04 -1.153863e-04
N 1.585239e+00 -9.152166e-01 1.801428e+00 -1.062030e-04 1.046105e-04 1.221569e-04
N 1.581995e+00 -9.143815e-01 7.043249e+00 -1.209288e-04 3.532131e-05 -1.494037e-04
N 1.586820e+00 -9.617348e-01 -3.398542e+00 -1.041950e-04 6.820717e-05 -1.742939e-04
N 3.188085e+00 1.759429e+00 1.878120e+00 -1.680107e-04 7.579353e-05 -3.224936e-04
N 3.144765e+00 1.837232e+00 7.045853e+00 -5.223475e-05 3.565033e-05 -1.304274e-04
N 3.181300e+00 1.816779e+00 -3.395665e+00 -1.510094e-04 8.726470e-05 -4.063473e-05
N 6.354270e+00 -3.770825e+00 1.798270e+00 4.014302e-06 5.896664e-05 3.124186e-05
N 6.395820e+00 -3.748610e+00 7.076185e+00 -5.407452e-05 4.945021e-05 -1.332211e-04
N 6.401005e+00 -3.748242e+00 -3.412468e+00 -1.051667e-04 8.773855e-05 -1.501516e-04
N 4.794180e+00 -9.166439e-01 1.846094e+00 -1.238243e-04 -1.806743e-04 -1.770799e-04
N 4.837184e+00 -9.872168e-01 6.976873e+00 -1.878823e-04 5.051556e-05 -8.278769e-05
N 4.796041e+00 -9.718865e-01 -3.377927e+00 -1.327314e-04 -1.133335e-05 -8.478457e-05
N -3.279560e+00 1.787023e+00 1.856607e+00 -3.539459e-05 5.667440e-05 -2.110480e-04
N -3.238993e+00 1.810994e+00 7.021049e+00 -1.305958e-04 1.206760e-04 -2.372208e-05
N -3.233298e+00 1.863135e+00 -3.368425e+00 -1.544560e-04 5.544337e-05 -5.837993e-05
N -2.279318e-02 -3.748943e+00 1.821692e+00 -1.165182e-04 3.323856e-05 -2.106218e-04
N -6.856405e-02 -3.772236e+00 7.046681e+00 -5.208451e-05 1.221724e-04 -1.057394e-04
N 1.509989e-02 -3.774161e+00 -3.355772e+00 -1.657154e-04 1.542305e-04 -7.387324e-05
N -1.632505e+00 -9.640514e-01 1.840236e+00 -1.877605e-04 -1.702404e-05 1.003651e-05
N -1.672612e+00 -9.908915e-01 7.043697e+00 -9.410005e-05 5.761686e-05 -8.939464e-05
N -1.631417e+00 -9.682782e-01 -3.380338e+00 -1.947476e-04 2.797947e-06 -1.250600e-04
