108
Energy=-1.672602e+06 Lattice="9.543741e+00 0.000000e+00 0.000000e+00 -4.774224e+00 8.263987e+00 0.000000e+00 -2.859483e-03 -6.637397e-03 1.543150e+01" Stress="1.508384e-04 -8.331120e-05 -2.056837e-04 -9.670515e-05 -1.428429e-04 -2.290043e-04 -1.833316e-04 -2.335509e-04 -7.133163e-05" Properties=species:S:1:pos:R:3:forces:R:3 Config_type=AlGaN_super3_27_2_29.xyz
Al 1.580424e+00 8.746396e-01 2.454659e+00 5.746206e-05 -3.985918e-05 3.866375e-05
Al 1.578372e+00 8.885438e-01 7.557457e+00 -1.096676e-04 -3.449988e-04 -2.536674e-04
Al 1.563556e+00 8.965618e-01 -2.742075e+00 2.150921e-05 -3.152943e-05 5.977699e-05
Al -1.636308e-02 3.646631e+00 2.399248e+00 -6.491695e-05 2.571842e-06 2.937741e-06
Al -1.809713e-02 3.634113e+00 7.591813e+00 -2.485896e-05 1.152034e-05 -5.225251e-06
Ga -2.310620e-02 3.629396e+00 -2.722659e+00 2.883460e-07 -5.060784e-05 1.879714e-05
Al 3.172967e+00 -1.870769e+00 2.413659e+00 -6.203406e-05 6.260474e-05 -1.507245e-04
Al 3.162659e+00 -1.882390e+00 7.559181e+00 -1.517872e-05 -7.486711e-06 -7.077946e-06
Ga 3.166766e+00 -1.884560e+00 -2.698771e+00 -3.038880e-05 -1.892801e-05 1.135295e-04
Al -4.797814e+00 8.651509e-01 2.417866e+00 -9.723302e-05 -3.339971e-05 -8.335290e-05
Ga -4.819692e+00 8.753007e-01 7.562937e+00 5.109610e-05 -4.127893e-05 2.144856e-05
Ga -4.796267e+00 8.860441e-01 -2.710833e+00 1.705052e-05 -2.757558e-05 7.447161e-06
Ga -6.408568e+00 3.626390e+00 2.439624e+00 -1.089370e-05 -1.221925e-05 4.441530e-06
Al -6.401757e+00 3.617165e+00 7.548760e+00 -4.854435e-05 3.123905e-05 -8.044127e-05
Al -6.394368e+00 3.629183e+00 -2.714464e+00 -3.481241e-05 -3.189873e-05 3.515305e-05
Al -3.224166e+00 -1.882413e+00 2.417604e+00 3.601246e-05 -1.133366e-04 3.614258e-05
Al -3.210495e+00 -1.891581e+00 7.550487e+00 6.400188e-07 -2.852306e-05 2.974585e-05
Al -3.201511e+00 -1.878575e+00 -2.692155e+00 -2.479109e-05 -2.339201e-05 4.678324e-06
Ga -1.623419e+00 8.816649e-01 2.437852e+00 3.802102e-05 -5.525259e-05 2.060652e-05
Ga -1.611698e+00 8.722591e-01 7.553876e+00 3.556072e-05 -6.176252e-05 1.514756e-05
Al -1.606757e+00 8.881244e-01 -2.714149e+00 5.474628e-05 -6.232232e-05 3.708941e-05
Ga -3.194104e+00 3.625122e+00 2.431786e+00 -2.063408e-05 -4.234083e-05 -7.192269e-06
Ga -3.204376e+00 3.635448e+00 7.555081e+00 2.505246e-06 -7.725955e-05 -1.927349e-05
Al -3.193012e+00 3.630292e+00 -2.704998e+00 1.494102e-05 -4.985482e-05 3.407484e-05
Ga -1.602239e-02 -1.866122e+00 2.460005e+00 -1.956286e-05 -6.587621e-05 2.123751e-06
Ga -2.739257e-02 -1.879611e+00 7.539318e+00 1.329218e-05 6.798868e-06 -7.963812e-06
Ga -2.701537e-02 -1.872089e+00 -2.719822e+00 -4.020004e-06 -8.231487e-05 1.375158e-05
Ga -1.291136e-02 1.791616e+00 4.996068e+00 -2.771477e-05 4.024760e-06 4.693808e-05
Al -1.206613e-02 1.803770e+00 -5.300347e+00 -6.536485e-05 5.465209e-05 4.131055e-05
Ga -2.353539e-02 1.806064e+00 -1.390391e-01 -6.458443e-06 4.541618e-05 1.317270e-05
Ga 3.157053e+00 -3.709017e+00 4.991616e+00 -6.883083e-05 6.886468e-06 4.901783e-05
Al 3.164615e+00 -3.715228e+00 -5.301792e+00 -2.168022e-05 2.136847e-05 2.535952e-05
Al 3.166763e+00 -3.714001e+00 -1.306786e-01 -1.396386e-05 2.574209e-05 7.154566e-05
Al 1.574358e+00 -9.531523e-01 4.997798e+00 2.747641e-05 1.503984e-04 8.060285e-05
Ga 1.584969e+00 -9.399516e-01 -5.307902e+00 -7.722936e-05 -3.037225e-05 -3.335827e-05
Ga 1.585287e+00 -9.496080e-01 -1.294216e-01 -8.957021e-05 5.633651e-05 5.485097e-05
Al 3.164220e+00 1.789565e+00 4.988145e+00 -4.368696e-05 -3.878235e-05 -2.634964e-04
Al 3.139047e+00 1.807853e+00 -5.293433e+00 3.839465e-05 -1.122398e-05 3.829683e-05
Ga 3.156911e+00 1.794749e+00 -1.380703e-01 -1.811209e-05 -1.935084e-05 8.082316e-05
Ga 6.346047e+00 -3.712599e+00 5.014275e+00 4.650653e-06 -3.975050e-05 2.078357e-05
Ga 6.342152e+00 -3.720666e+00 -5.305611e+00 2.469387e-05 9.145489e-08 9.980585e-06
Al 6.328937e+00 -3.699732e+00 -1.485479e-01 2.051555e-05 -3.257629e-05 -1.949469e-05
Ga 4.748161e+00 -9.482150e-01 4.979814e+00 -2.392308e-05 -9.233053e-07 4.885777e-05
Ga 4.746892e+00 -9.657609e-01 -5.300895e+00 -7.094104e-05 -3.108054e-05 2.549482e-05
Al 4.759690e+00 -9.674871e-01 -1.212579e-01 -3.761336e-05 -3.541388e-05 4.329794e-05
Al -3.223080e+00 1.791082e+00 4.988144e+00 1.013853e-05 -2.207235e-05 -2.750103e-05
Ga -3.195567e+00 1.809995e+00 -5.269128e+00 2.240857e-05 -9.557266e-05 2.909944e-05
Al -3.201220e+00 1.800134e+00 -1.594774e-01 -4.421317e-06 -1.172936e-05 3.605778e-05
Al -2.722300e-02 -3.718026e+00 5.004228e+00 -3.184128e-06 -4.293595e-05 3.502189e-05
Ga -2.247279e-02 -3.732171e+00 -5.280115e+00 4.874338e-05 -8.714241e-06 2.540321e-06
Ga -1.686246e-02 -3.726786e+00 -1.576060e-01 -1.048109e-05 -7.037530e-06 4.946194e-05
Al -1.618297e+00 -9.650882e-01 4.989633e+00 -1.611833e-07 1.553821e-05 3.536822e-05
Ga -1.622167e+00 -9.485641e-01 -5.274650e+00 1.460398e-05 1.054921e-05 8.611769e-05
Ga -1.638847e+00 -9.534905e-01 -1.457846e-01 -4.756664e-05 -1.033414e-06 -1.014841e-07
N 1.610099e+00 8.526972e-01 4.368415e+00 6.345986e-05 -1.652735e-05 6.347295e-05
N 1.571561e+00 9.331252e-01 -5.946146e+00 4.713481e-05 5.874219e-05 9.896742e-05
N 1.566110e+00 8.833832e-01 -8.325417e-01 5.938936e-05 -2.450758e-05 -6.029852e-05
N -1.970785e-02 3.636287e+00 4.310030e+00 5.386287e-05 -9.157073e-06 -2.013865e-06
N -6.400681e-02 3.611132e+00 -5.915778e+00 -1.260447e-05 -2.675112e-05 -1.620217e-05
N -2.665087e-02 3.680812e+00 -7.365145e-01 -2.777623e-06 2.701465e-05 -1.137896e-05
N 3.118365e+00 -1.854513e+00 4.329256e+00 6.264112e-05 -8.594359e-06 1.173793e-04
N 3.159741e+00 -1.923368e+00 -5.956559e+00 1.371560e-05 2.052578e-05 -3.314737e-05
N 3.204474e+00 -1.901223e+00 -7.153277e-01 1.459380e-05 -8.296039e-06 -4.796303e-05
N -4.796146e+00 9.234341e-01 4.344090e+00 -2.247179e-05 7.306539e-05 2.130045e-04
N -4.837916e+00 9.108019e-01 -5.885358e+00 4.002196e-05 1.239006e-05 -4.555493e-05
N -4.758570e+00 8.504922e-01 -7.264228e-01 4.594495e-05 3.455255e-05 -5.364752e-05
N -6.353071e+00 3.609310e+00 4.414901e+00 2.694250e-05 -3.916068e-05 -3.151685e-05
N -6.382182e+00 3.584705e+00 -5.962157e+00 -3.567150e-05 -4.273298e-05 -3.449781e-05
N -6.435111e+00 3.652814e+00 -7.959056e-01 -1.546937e-05 7.651558e-05 -1.649783e-05
N -3.167668e+00 -1.862210e+00 4.332177e+00 1.810407e-05 -1.161535e-05 -4.664998e-05
N -3.197587e+00 -1.872926e+00 -5.976481e+00 -6.602469e-05 -2.436766e-05 -5.228667e-05
N -3.251140e+00 -1.899247e+00 -7.751003e-01 2.958603e-05 3.224504e-05 -9.883759e-06
N -1.656862e+00 8.572620e-01 4.417363e+00 3.560351e-05 -4.866172e-05 -2.994096e-05
N -1.573785e+00 9.043182e-01 -5.901290e+00 8.224021e-05 -4.807178e-05 -9.570793e-06
N -1.646491e+00 9.072818e-01 -7.962024e-01 4.485653e-05 -4.184726e-05 -3.040499e-05
N -3.244603e+00 3.608708e+00 4.411284e+00 6.190064e-06 -2.497644e-05 1.306379e-05
N -3.165636e+00 3.657725e+00 -5.906954e+00 1.653329e-05 3.286625e-05 -1.811186e-05
N -3.152645e+00 3.614198e+00 -7.790206e-01 2.846061e-05 -1.770317e-05 -4.515790e-05
N -1.833091e-02 -1.875824e+00 4.450657e+00 -6.514342e-05 -2.496405e-05 -1.823337e-05
N -2.424349e-02 -1.876264e+00 -5.912294e+00 2.891172e-05 -3.223103e-05 2.868221e-05
N -1.963260e-02 -1.868995e+00 -7.558058e-01 5.165586e-05 -4.535958e-05 -8.413209e-05
N 2.327447e-02 1.811869e+00 1.847647e+00 -7.096302e-05 1.215468e-04 7.438169e-06
N 1.953282e-02 1.823673e+00 6.976980e+00 2.391200e-05 8.724556e-05 6.630124e-05
N -2.281371e-02 1.752816e+00 -3.369669e+00 -3.320550e-06 8.414316e-05 -3.841548e-05
N 3.195753e+00 -3.690725e+00 1.790963e+00 4.948192e-05 -2.874705e-05 -3.148004e-05
N 3.208229e+00 -3.694333e+00 6.970225e+00 -2.060827e-05 4.309670e-05 -1.561591e-05
N 3.120622e+00 -3.732296e+00 -3.381648e+00 -3.776791e-05 9.749846e-05 -6.188008e-05
N 1.607892e+00 -9.293766e-01 1.848669e+00 -6.407979e-06 2.640640e-05 3.695534e-05
N 1.614988e+00 -9.323322e-01 6.928984e+00 3.723391e-05 1.560456e-04 -4.565255e-05
N 1.579602e+00 -9.094667e-01 -3.331283e+00 -3.128468e-05 8.833610e-05 -3.048927e-05
N 3.153425e+00 1.747944e+00 1.840572e+00 3.295003e-05 4.717671e-05 -9.086245e-06
N 3.113793e+00 1.813155e+00 6.907065e+00 8.695529e-06 1.462708e-04 2.045787e-04
N 3.116331e+00 1.826801e+00 -3.364331e+00 4.158376e-06 2.772338e-05 -3.737844e-05
N 6.304470e+00 -3.686754e+00 1.775309e+00 2.046833e-05 -2.601456e-06 6.723065e-06
N 6.331470e+00 -3.720330e+00 7.002048e+00 7.201146e-05 -4.947791e-05 4.446477e-05
N 6.384210e+00 -3.683388e+00 -3.317874e+00 1.979871e-05 3.183315e-05 -3.725783e-05
N 4.752412e+00 -9.587951e-01 1.810892e+00 -1.906375e-05 1.042091e-04 -5.776634e-06
N 4.746168e+00 -1.007648e+00 6.964829e+00 -2.131324e-05 1.319819e-05 -4.610318e-05
N 4.792863e+00 -9.838116e-01 -3.326158e+00 -2.497406e-05 -5.166349e-06 -3.233331e-05
N -3.245254e+00 1.773443e+00 1.760176e+00 4.952782e-05 5.902155e-05 -6.570084e-05
N -3.215255e+00 1.788774e+00 6.893636e+00 6.935177e-06 4.087047e-05 -1.500792e-05
N -3.162382e+00 1.823330e+00 -3.292678e+00 -9.500326e-06 5.922166e-05 -1.542803e-05
N -2.455191e-02 -3.713783e+00 1.810766e+00 3.107572e-05 3.137784e-06 -1.672619e-05
N -6.842845e-02 -3.744527e+00 6.913513e+00 1.619698e-05 5.939142e-06 -1.072880e-05
N -2.025130e-02 -3.767677e+00 -3.291953e+00 -7.294947e-06 4.771375e-05 -4.708476e-05
N -1.655115e+00 -9.828408e-01 1.827765e+00 2.681361e-05 7.268120e-05 -2.769671e-05
N -1.663492e+00 -9.865188e-01 6.899893e+00 -3.082021e-05 1.447853e-05 -7.400383e-05
N -1.662082e+00 -9.312176e-01 -3.292481e+00 -2.193727e-05 6.065461e-05 -7.794454e-07
