108
Energy=-6.655417e+05 Lattice="9.423173e+00 0.000000e+00 0.000000e+00 -4.712467e+00 8.160309e+00 0.000000e+00 -2.475115e-03 -7.531366e-04 1.512679e+01" Stress="7.536098e-05 -5.904886e-05 -9.371403e-05 -5.667502e-05 1.693284e-05 -3.123711e-05 -9.359748e-05 -3.405188e-05 4.481989e-04" Properties=species:S:1:pos:R:3:forces:R:3 Config_type=AlGaN_super3_5_0_24.xyz
Al 1.548409e+00 8.704481e-01 2.376517e+00 -3.202105e-05 -2.695998e-05 -1.560172e-04
Al 1.542190e+00 8.649189e-01 7.398495e+00 1.756138e-05 -4.814459e-06 4.722699e-06
Al 1.544898e+00 8.700640e-01 -2.660471e+00 -3.429208e-05 -1.799971e-05 7.410937e-05
Al -2.409200e-02 3.579941e+00 2.400702e+00 -3.123561e-04 -2.377087e-05 -1.232735e-04
Al -2.363360e-02 3.587189e+00 7.411770e+00 3.368343e-06 3.085627e-06 -5.237384e-05
Al -2.088090e-02 3.583247e+00 -2.698349e+00 -2.947278e-05 6.745021e-06 9.457396e-05
Al 3.121974e+00 -1.846912e+00 2.391182e+00 -1.002593e-04 -7.817330e-05 -1.832184e-04
Al 3.118305e+00 -1.852627e+00 7.408377e+00 -7.577651e-06 1.950244e-05 -4.914519e-05
Al 3.127684e+00 -1.845967e+00 -2.685309e+00 -7.262179e-05 -1.169423e-05 1.237054e-04
Al -4.739833e+00 8.647429e-01 2.361943e+00 9.431874e-06 -3.942834e-05 -1.509911e-04
Al -4.737852e+00 8.615105e-01 7.416558e+00 3.674686e-05 -1.141643e-05 3.538736e-05
Al -4.726733e+00 8.630704e-01 -2.663166e+00 2.120442e-05 2.662346e-06 2.747352e-05
Al -6.298632e+00 3.581830e+00 2.390844e+00 -8.459282e-05 -1.324344e-06 -1.206301e-04
Al -6.307405e+00 3.591614e+00 7.397625e+00 -3.192410e-05 1.889401e-05 -3.229375e-05
Al -6.304598e+00 3.587361e+00 -2.670263e+00 -2.010198e-05 -3.201703e-05 1.779390e-04
Al -3.164480e+00 -1.844090e+00 2.391295e+00 -5.718727e-05 4.051808e-05 -9.673484e-05
Al -3.165071e+00 -1.853092e+00 7.408127e+00 -2.237469e-05 6.805523e-06 -1.015022e-05
Al -3.171021e+00 -1.847971e+00 -2.685035e+00 -4.035293e-05 1.655252e-05 1.784692e-04
Al -1.589467e+00 8.663787e-01 2.366715e+00 9.685612e-05 -3.140920e-05 -1.674098e-04
Al -1.588549e+00 8.652959e-01 7.422993e+00 9.781773e-05 -2.718849e-05 -1.890613e-05
Al -1.596469e+00 8.753802e-01 -2.675233e+00 1.317456e-05 2.658663e-05 1.385670e-05
Al -3.168351e+00 3.588767e+00 2.380823e+00 -1.973991e-04 -6.990452e-05 -8.970915e-06
Al -3.164248e+00 3.594388e+00 7.421960e+00 2.869581e-05 -2.651703e-05 -5.460593e-05
Al -3.164923e+00 3.578536e+00 -2.685925e+00 -5.623727e-05 4.379490e-05 4.519456e-05
Al -2.344884e-02 -1.852889e+00 2.373801e+00 -1.279471e-05 7.606756e-05 -1.891780e-04
Al -2.269588e-02 -1.851638e+00 7.411196e+00 2.306478e-05 -9.831292e-07 -4.873166e-05
Ga -2.138439e-02 -1.852306e+00 -2.669050e+00 1.788566e-04 -6.090831e-05 -1.198232e-04
Al -1.675495e-02 1.772473e+00 4.898223e+00 -2.411883e-05 1.949996e-05 -4.342845e-06
Al -2.847355e-02 1.771312e+00 -5.198459e+00 -5.183615e-05 1.193246e-05 5.493282e-06
Al -2.296256e-02 1.761406e+00 -1.478119e-01 -1.182631e-04 -6.224677e-05 3.587595e-04
Al 3.121735e+00 -3.659247e+00 4.899657e+00 -4.385189e-05 1.016303e-05 -5.090610e-05
Al 3.119414e+00 -3.663394e+00 -5.198705e+00 -1.248289e-05 3.438427e-05 -7.788160e-05
Ga 3.111402e+00 -3.664620e+00 -1.479477e-01 -3.258335e-05 -1.639264e-04 4.129636e-04
Al 1.546551e+00 -9.465887e-01 4.890690e+00 -6.389046e-05 3.230997e-05 -6.567117e-05
Al 1.548621e+00 -9.491765e-01 -5.207897e+00 -8.603747e-05 5.531749e-05 -2.343714e-05
Al 1.551236e+00 -9.367294e-01 -1.323926e-01 -7.877246e-05 4.192899e-05 4.223080e-04
Al 3.110341e+00 1.771874e+00 4.896456e+00 -5.763600e-05 -3.060227e-05 -3.447013e-06
Ga 3.115772e+00 1.774145e+00 -5.189056e+00 -2.725228e-05 1.108892e-05 8.552162e-05
Al 3.121151e+00 1.768172e+00 -1.536108e-01 1.103158e-08 -5.952470e-05 2.737887e-04
Al 6.258709e+00 -3.665367e+00 4.892637e+00 -7.205847e-06 -7.519263e-06 -3.760417e-05
Al 6.258904e+00 -3.657381e+00 -5.200761e+00 -1.739815e-05 3.299064e-05 -5.752348e-05
Ga 6.266860e+00 -3.664064e+00 -1.369650e-01 4.771377e-05 -7.488288e-06 5.420032e-04
Al 4.684428e+00 -9.509798e-01 4.898598e+00 -6.308491e-05 2.067437e-05 -1.837771e-05
Al 4.694201e+00 -9.535978e-01 -5.197910e+00 -4.842587e-05 3.611946e-06 -1.140619e-05
Al 4.690284e+00 -9.349843e-01 -1.478379e-01 -1.313531e-04 1.137638e-04 3.113711e-04
Ga -3.164974e+00 1.772770e+00 4.898475e+00 -2.798919e-05 -4.063480e-05 8.444689e-05
Al -3.154801e+00 1.773742e+00 -5.197531e+00 2.367625e-05 -3.467032e-05 -6.464920e-05
Al -3.166323e+00 1.767821e+00 -1.486662e-01 -5.127738e-05 9.056054e-05 3.660956e-04
Al -2.546848e-02 -3.657003e+00 4.897831e+00 -3.209499e-05 3.264181e-05 -3.265526e-05
Al -1.891344e-02 -3.661232e+00 -5.208667e+00 -2.336269e-05 2.521226e-05 -2.589156e-05
Al -2.270177e-02 -3.672736e+00 -1.331261e-01 2.154076e-04 -2.176398e-05 1.818840e-04
Al -1.587696e+00 -9.513039e-01 4.896745e+00 -7.636592e-05 -6.764995e-06 -5.441132e-06
Al -1.595058e+00 -9.433206e-01 -5.206594e+00 -6.643807e-05 2.215203e-06 1.029597e-04
Al -1.595622e+00 -9.366394e-01 -1.402421e-01 -2.140858e-05 1.199991e-04 5.467368e-04
N 1.546587e+00 8.682296e-01 4.296133e+00 2.716631e-05 -4.700656e-05 3.177542e-05
N 1.506784e+00 8.459683e-01 -5.821128e+00 -5.701514e-05 -1.085194e-04 -6.605758e-05
N 1.544351e+00 8.644860e-01 -7.416489e-01 -1.344908e-06 8.815418e-06 1.286537e-04
N -2.523685e-02 3.583524e+00 4.312260e+00 -7.252496e-05 -1.402291e-05 1.069397e-05
N -2.145274e-02 3.587505e+00 -5.791634e+00 -3.231984e-05 -3.379035e-05 1.925882e-05
N -2.131388e-02 3.540729e+00 -7.908087e-01 -4.409365e-05 -1.103366e-04 -5.706385e-05
N 3.119200e+00 -1.850457e+00 4.304651e+00 4.662273e-05 1.354504e-05 4.850323e-05
N 3.121450e+00 -1.852599e+00 -5.799932e+00 -1.881463e-06 4.378799e-06 1.200469e-05
N 3.117952e+00 -1.802828e+00 -7.694182e-01 1.620227e-04 1.461890e-04 -1.274280e-04
N -4.777975e+00 8.426555e-01 4.274125e+00 1.638527e-05 -5.200834e-05 -5.325537e-05
N -4.695763e+00 8.428183e-01 -5.804480e+00 1.469013e-04 -8.720079e-05 -4.098755e-05
N -4.730930e+00 8.658216e-01 -7.432875e-01 9.310434e-05 -5.527390e-05 1.481926e-04
N -6.302055e+00 3.584806e+00 4.307688e+00 4.828164e-05 1.869753e-05 1.632991e-05
N -6.306817e+00 3.633888e+00 -5.820259e+00 1.680572e-05 7.297291e-05 -1.801094e-05
N -6.264587e+00 3.568239e+00 -7.603251e-01 1.183793e-04 5.058768e-05 -1.126820e-04
N -3.164104e+00 -1.847394e+00 4.306356e+00 4.334838e-05 6.551539e-05 1.636680e-07
N -3.163532e+00 -1.852760e+00 -5.801574e+00 3.222516e-05 5.518575e-05 5.033862e-05
N -3.163505e+00 -1.805392e+00 -7.690067e-01 5.518972e-05 7.481978e-05 -2.041384e-04
N -1.552246e+00 8.436482e-01 4.276402e+00 2.765423e-04 -1.106497e-04 -1.595254e-05
N -1.590287e+00 8.683224e-01 -5.793068e+00 1.440371e-04 -6.257141e-05 5.692342e-06
N -1.593551e+00 8.679967e-01 -7.501043e-01 1.308153e-04 8.019946e-06 1.595858e-04
N -3.166628e+00 3.634935e+00 4.286631e+00 5.965915e-05 6.889307e-05 1.523289e-05
N -3.161303e+00 3.589907e+00 -5.790899e+00 3.543464e-05 -7.047843e-06 1.172943e-04
N -3.207203e+00 3.563449e+00 -7.708548e-01 -2.301093e-05 -1.355315e-04 2.628733e-04
N -2.385830e-02 -1.852249e+00 4.293303e+00 8.341684e-05 1.242075e-05 4.724853e-05
N -2.204404e-02 -1.850863e+00 -5.796951e+00 1.064086e-04 4.626959e-05 5.741941e-05
N -2.082692e-02 -1.853182e+00 -6.875667e-01 -6.801296e-05 4.696824e-05 2.489325e-04
N -2.099368e-02 1.777448e+00 1.772723e+00 -3.518666e-05 -8.840214e-05 -3.234706e-04
N -2.676239e-02 1.775113e+00 6.812043e+00 -8.480400e-05 -7.989900e-05 2.955927e-05
N -2.097117e-02 1.768177e+00 -3.280632e+00 4.189588e-06 -3.839195e-05 -1.061771e-05
N 3.120918e+00 -3.665560e+00 1.831019e+00 4.272544e-04 1.893197e-04 -3.370486e-04
N 3.118206e+00 -3.666482e+00 6.817819e+00 -6.678868e-05 1.829566e-05 7.050679e-05
N 3.117275e+00 -3.663199e+00 -3.276748e+00 -3.281957e-05 4.006520e-05 -1.771141e-05
N 1.552977e+00 -9.448788e-01 1.787247e+00 -8.876402e-05 8.074365e-05 -2.958605e-04
N 1.547237e+00 -9.489081e-01 6.807918e+00 -1.311076e-04 5.198514e-05 5.836468e-05
N 1.588404e+00 -9.191113e-01 -3.296442e+00 -5.150850e-05 1.080964e-05 -9.433205e-05
N 3.115413e+00 1.776878e+00 1.769424e+00 2.368518e-05 -7.735247e-05 -2.038394e-04
N 3.118181e+00 1.772410e+00 6.814456e+00 2.845003e-05 -6.411526e-05 -9.339959e-07
N 3.118304e+00 1.771678e+00 -3.213105e+00 1.494774e-05 -2.624928e-06 7.803942e-05
N 6.259133e+00 -3.665834e+00 1.844346e+00 1.551161e-04 3.722475e-05 -6.119486e-04
N 6.255819e+00 -3.664856e+00 6.808841e+00 1.259581e-05 7.730400e-06 4.395488e-05
N 6.264466e+00 -3.663627e+00 -3.278543e+00 4.355600e-06 -1.482474e-05 9.343375e-06
N 4.689862e+00 -9.506552e-01 1.772115e+00 -6.012095e-05 4.770257e-05 -1.901666e-04
N 4.688171e+00 -9.464104e-01 6.812197e+00 -4.558624e-05 8.151747e-06 1.112567e-05
N 4.690420e+00 -9.431661e-01 -3.281808e+00 -3.701084e-05 2.810160e-05 -1.306988e-05
N -3.163475e+00 1.775492e+00 1.776917e+00 1.050993e-05 -2.722575e-05 -4.219532e-04
N -3.163790e+00 1.774780e+00 6.870082e+00 -4.495424e-06 8.397762e-06 1.140849e-04
N -3.163832e+00 1.771299e+00 -3.276997e+00 2.223279e-05 -2.495713e-05 -1.856326e-05
N -2.411252e-02 -3.669172e+00 1.782720e+00 -2.069617e-05 -4.395268e-05 -3.192729e-04
N -2.021841e-02 -3.663826e+00 6.813186e+00 6.912326e-05 1.156733e-05 8.748470e-05
N -2.355179e-02 -3.710705e+00 -3.300619e+00 6.895369e-05 -9.493152e-05 -5.601952e-05
N -1.597375e+00 -9.468282e-01 1.777867e+00 4.318712e-05 3.684270e-05 -4.760711e-04
N -1.592974e+00 -9.447559e-01 6.815932e+00 1.486259e-05 6.884374e-05 3.133862e-05
N -1.631462e+00 -9.203635e-01 -3.294139e+00 -1.220097e-04 2.171803e-05 -2.356158e-04
