108
Energy=-8.486435e+05 Lattice="9.444990e+00 0.000000e+00 0.000000e+00 -4.722696e+00 8.178588e+00 0.000000e+00 3.027573e-03 1.225562e-03 1.518445e+01" Stress="3.520407e-05 -7.841215e-05 1.757541e-04 -7.373029e-05 -2.228461e-04 7.592958e-06 1.724230e-04 2.782236e-06 4.851521e-04" Properties=species:S:1:pos:R:3:forces:R:3 Config_type=AlGaN_super3_9_2_21.xyz
Al 1.554836e+00 8.786986e-01 2.375774e+00 6.834855e-05 -1.159078e-04 -3.499573e-04
Al 1.555747e+00 8.778580e-01 7.450718e+00 -9.752319e-06 3.614421e-04 1.925673e-04
Al 1.563429e+00 8.757819e-01 -2.688418e+00 -6.622120e-05 7.879322e-05 1.167227e-04
Al -2.736769e-02 3.591914e+00 2.396732e+00 -8.744790e-04 -2.221626e-04 1.509685e-04
Al -1.379975e-02 3.597935e+00 7.439467e+00 -1.894991e-04 9.251448e-05 -1.770391e-04
Al -2.521999e-02 3.591652e+00 -2.693041e+00 4.242354e-05 -2.165854e-05 1.288677e-04
Al 3.133126e+00 -1.858397e+00 2.370743e+00 -6.164930e-05 -4.420324e-05 8.100012e-05
Al 3.138620e+00 -1.854580e+00 7.454163e+00 -2.131800e-04 1.626517e-04 -1.446128e-04
Al 3.125259e+00 -1.855393e+00 -2.683420e+00 -8.011068e-05 6.494746e-05 1.647809e-04
Al -4.751995e+00 8.672918e-01 2.371853e+00 -5.272171e-05 -6.409853e-05 -9.632241e-05
Al -4.756026e+00 8.606617e-01 7.452068e+00 -1.192556e-04 -5.639090e-05 1.095079e-04
Al -4.761310e+00 8.750119e-01 -2.683209e+00 8.371869e-05 -3.324934e-05 1.033333e-04
Al -6.310718e+00 3.589714e+00 2.396184e+00 -8.237619e-04 3.934954e-04 -4.108693e-04
Al -6.325173e+00 3.594582e+00 7.438014e+00 3.325999e-05 2.242144e-04 -5.780890e-05
Al -6.319096e+00 3.576610e+00 -2.692752e+00 -3.678314e-07 6.301698e-05 1.382565e-03
Al -3.183707e+00 -1.855292e+00 2.404395e+00 -3.567788e-04 7.959429e-04 1.104338e-04
Al -3.178419e+00 -1.861093e+00 7.448651e+00 -2.317229e-04 -1.854307e-04 7.646279e-05
Ga -3.189281e+00 -1.865199e+00 -2.700076e+00 1.040430e-04 8.474027e-05 1.838907e-05
Al -1.588069e+00 8.827951e-01 2.374001e+00 -1.773615e-04 4.299183e-04 6.535236e-04
Al -1.583920e+00 8.708072e-01 7.465007e+00 -2.957838e-04 6.365339e-07 -1.255856e-04
Ga -1.598223e+00 8.894685e-01 -2.685153e+00 2.899636e-04 -2.797485e-04 -1.542366e-04
Al -3.169061e+00 3.603317e+00 2.374030e+00 4.232229e-05 5.334322e-06 -2.395313e-04
Ga -3.167445e+00 3.608118e+00 7.457162e+00 2.084198e-04 -3.253315e-05 8.142773e-05
Al -3.173844e+00 3.593977e+00 -2.686229e+00 8.800611e-05 -6.730928e-05 1.897748e-04
Al -1.338518e-02 -1.864470e+00 2.374354e+00 2.912770e-04 -1.848897e-04 2.403148e-04
Al -2.068310e-02 -1.857840e+00 7.465415e+00 -9.667638e-05 4.564910e-04 8.612837e-05
Ga -6.230649e-03 -1.865617e+00 -2.684752e+00 1.475852e-04 1.363058e-04 -9.422358e-05
Al -1.144073e-02 1.794173e+00 4.920127e+00 1.162151e-04 8.876986e-06 -1.061275e-04
Al -1.659987e-02 1.782456e+00 -5.223120e+00 -9.149215e-06 -2.692807e-05 1.256414e-05
Al -1.570461e-02 1.783668e+00 -1.440997e-01 3.601594e-04 2.874896e-04 4.620804e-04
Al 3.139894e+00 -3.670167e+00 4.904323e+00 4.808250e-05 -1.331322e-04 -3.521829e-04
Al 3.132198e+00 -3.671072e+00 -5.200412e+00 7.000682e-07 1.697470e-04 9.148259e-05
Al 3.116849e+00 -3.676343e+00 -1.578796e-01 2.026916e-04 5.195461e-06 3.454319e-04
Ga 1.565908e+00 -9.473209e-01 4.917453e+00 -1.147669e-04 1.612713e-04 -1.385378e-04
Al 1.558697e+00 -9.456967e-01 -5.225308e+00 -1.506004e-04 4.809671e-05 1.745888e-05
Al 1.567625e+00 -9.416703e-01 -1.408001e-01 -4.711193e-05 -1.164406e-04 5.193960e-04
Al 3.124540e+00 1.784999e+00 4.913840e+00 -3.905293e-04 -2.719131e-04 -2.265924e-04
Al 3.123997e+00 1.777859e+00 -5.213279e+00 -1.318496e-05 -3.905994e-05 3.110390e-05
Al 3.126839e+00 1.771442e+00 -1.549891e-01 2.139537e-04 -2.632072e-05 8.464897e-04
Al 6.271511e+00 -3.683173e+00 4.912414e+00 -7.828383e-05 -4.170421e-05 -1.296706e-04
Al 6.272600e+00 -3.683571e+00 -5.228873e+00 3.498106e-05 7.164652e-05 1.785223e-04
Ga 6.267402e+00 -3.691794e+00 -1.285448e-01 1.374412e-04 1.966883e-05 5.217724e-04
Al 4.693270e+00 -9.526780e-01 4.919393e+00 -1.854750e-04 -8.555056e-05 -1.301151e-05
Al 4.691319e+00 -9.457543e-01 -5.222170e+00 2.014741e-05 -5.665034e-06 5.906705e-06
Al 4.680166e+00 -9.375377e-01 -1.435751e-01 -2.688563e-04 1.129005e-04 6.379798e-04
Ga -3.175712e+00 1.783123e+00 4.907690e+00 -4.222495e-06 -7.218821e-06 -7.503718e-06
Al -3.179760e+00 1.774112e+00 -5.212904e+00 -9.245391e-06 4.285594e-04 -1.836112e-04
Al -3.186616e+00 1.789454e+00 -1.391162e-01 1.109587e-04 2.565554e-04 2.011034e-04
Al -2.640462e-02 -3.678293e+00 4.909613e+00 3.094237e-04 -4.978374e-04 -9.272107e-05
Al -3.047086e-02 -3.679036e+00 -5.208841e+00 -1.015699e-04 2.242828e-04 -2.148750e-06
Al -1.370633e-02 -3.692812e+00 -1.437447e-01 7.118893e-04 2.544817e-04 8.466836e-04
Ga -1.596650e+00 -9.527301e-01 4.923602e+00 2.951902e-05 1.703859e-04 -1.033207e-04
Al -1.597574e+00 -9.490262e-01 -5.244936e+00 -4.228767e-05 -5.819110e-05 -1.714450e-04
Ga -1.595480e+00 -9.416963e-01 -1.132935e-01 -6.693628e-05 -9.071583e-06 6.026850e-04
N 1.552223e+00 9.188331e-01 4.290590e+00 4.703497e-04 3.474093e-04 9.459692e-04
N 1.553411e+00 8.737665e-01 -5.819399e+00 7.804809e-05 -2.239855e-05 -5.023105e-07
N 1.549828e+00 8.691802e-01 -7.585757e-01 8.623067e-05 5.424982e-05 4.357299e-05
N -2.251123e-02 3.593347e+00 4.314532e+00 -3.982249e-05 -1.411469e-04 6.407691e-05
N -2.780666e-02 3.597007e+00 -5.825647e+00 -9.863371e-05 5.426471e-06 -3.479820e-05
N -6.414276e-02 3.571303e+00 -7.790129e-01 -2.014700e-04 1.529411e-04 2.386617e-04
N 3.169621e+00 -1.879810e+00 4.284132e+00 2.231440e-04 3.738641e-04 -4.006778e-04
N 3.128011e+00 -1.863890e+00 -5.816928e+00 2.625688e-05 2.047369e-05 -7.301731e-05
N 3.124531e+00 -1.856940e+00 -7.567062e-01 2.837996e-05 -2.156903e-05 1.824579e-05
N -4.789841e+00 8.439094e-01 4.288371e+00 -1.675029e-05 -1.149894e-04 -9.810792e-05
N -4.752612e+00 8.687883e-01 -5.818116e+00 3.259832e-05 4.481253e-05 -1.147030e-05
N -4.747324e+00 8.688659e-01 -7.556803e-01 4.111915e-05 8.666081e-05 1.523050e-05
N -6.314925e+00 3.593150e+00 4.316265e+00 -2.127056e-05 -5.006867e-05 -3.071264e-05
N -6.319442e+00 3.591358e+00 -5.826408e+00 4.219050e-05 -3.060891e-05 -5.830653e-07
N -6.280401e+00 3.571520e+00 -7.671639e-01 -5.933802e-04 -2.344673e-04 -2.691019e-03
N -3.215195e+00 -1.878362e+00 4.314645e+00 3.875413e-05 9.644124e-05 3.798396e-05
N -3.180973e+00 -1.862209e+00 -5.816567e+00 -1.015408e-04 -2.166924e-05 9.334578e-05
N -3.213827e+00 -1.835764e+00 -7.343013e-01 1.893972e-04 -1.618840e-04 4.111079e-05
N -1.549565e+00 8.989716e-01 4.281569e+00 1.944604e-05 -1.996285e-04 -5.012347e-04
N -1.595896e+00 8.781276e-01 -5.807174e+00 6.731303e-05 7.070484e-05 2.503481e-05
N -1.600129e+00 9.201585e-01 -7.119412e-01 -1.148279e-04 -3.557783e-04 4.930540e-04
N -3.166725e+00 3.647025e+00 4.291011e+00 -4.396685e-04 1.988749e-04 2.933263e-04
N -3.169149e+00 3.602745e+00 -5.756605e+00 1.364182e-04 -9.508235e-04 1.961390e-04
N -3.172758e+00 3.593711e+00 -7.591739e-01 -2.117119e-05 1.495915e-05 -1.196215e-05
N -1.589493e-02 -1.903077e+00 4.279271e+00 3.854501e-05 4.141961e-04 -6.644074e-04
N -1.737440e-02 -1.864669e+00 -5.806659e+00 8.697589e-05 1.573715e-05 3.541000e-05
N 1.909548e-02 -1.880818e+00 -7.088291e-01 1.418169e-04 3.219505e-05 7.338462e-05
N -1.338969e-02 1.786548e+00 1.772340e+00 -4.368677e-04 -3.278766e-04 -5.392251e-04
N -1.942919e-02 1.779268e+00 6.843436e+00 -7.767087e-05 -2.562189e-05 2.753025e-05
N 2.208923e-02 1.799951e+00 -3.311985e+00 -3.795999e-05 -3.631563e-06 -5.737354e-05
N 3.130776e+00 -3.675681e+00 1.768315e+00 -3.156218e-04 -8.060988e-05 -3.968902e-04
N 3.169714e+00 -3.647390e+00 6.816134e+00 1.276439e-04 -4.505391e-05 7.147790e-04
N 3.126275e+00 -3.672203e+00 -3.278190e+00 -7.872713e-06 5.144641e-05 -1.951319e-04
N 1.558838e+00 -9.420002e-01 1.782429e+00 -5.383628e-05 9.503831e-06 -4.181341e-04
N 1.555373e+00 -9.452583e-01 6.899937e+00 9.830787e-05 -7.855101e-04 1.005924e-04
N 1.595525e+00 -9.216282e-01 -3.308446e+00 -7.089382e-06 -1.378178e-04 -2.294439e-04
N 3.126827e+00 1.782500e+00 1.768382e+00 -2.685448e-04 -1.254168e-04 -3.418417e-04
N 3.127968e+00 1.778488e+00 6.836472e+00 -4.787659e-05 -3.787998e-06 -1.079924e-04
N 3.124261e+00 1.775304e+00 -3.292417e+00 1.241554e-05 1.032729e-04 1.585347e-04
N 6.269623e+00 -3.675522e+00 1.851608e+00 2.384627e-03 -1.075025e-03 -1.115570e-03
N 6.276153e+00 -3.674564e+00 6.837472e+00 -1.990096e-05 -6.937666e-05 1.033102e-04
N 6.274403e+00 -3.728525e+00 -3.311224e+00 9.882693e-05 -8.145136e-05 -4.195772e-04
N 4.699929e+00 -9.462112e-01 1.772464e+00 -4.669078e-05 2.465573e-04 -3.823931e-04
N 4.699533e+00 -9.462004e-01 6.841383e+00 -4.567091e-05 7.736904e-05 5.099160e-05
N 4.652445e+00 -9.207719e-01 -3.310782e+00 -1.381402e-04 8.882855e-05 -1.042813e-04
N -3.175461e+00 1.782261e+00 1.785288e+00 -8.219376e-05 -7.683535e-05 -3.737459e-04
N -3.171586e+00 1.732908e+00 6.880382e+00 5.523503e-04 -2.919769e-04 1.088476e-04
N -3.219258e+00 1.797958e+00 -3.300791e+00 -1.810650e-04 1.158814e-04 -1.035557e-04
N -2.412475e-02 -3.681575e+00 1.774171e+00 -2.392059e-04 1.951301e-04 -2.045370e-04
N -6.156615e-02 -3.646742e+00 6.822882e+00 -1.212826e-04 -6.467714e-04 7.514995e-05
N -2.762880e-02 -3.723798e+00 -3.301715e+00 -1.234504e-04 -1.604419e-04 1.177136e-04
N -1.599869e+00 -9.479799e-01 1.857639e+00 -3.878197e-05 -3.463370e-04 -5.318024e-04
N -1.595387e+00 -9.482771e-01 6.908034e+00 4.540896e-04 6.119167e-04 1.192104e-05
N -1.595163e+00 -9.475931e-01 -3.343142e+00 -1.009755e-04 2.167340e-04 1.257029e-04
