108
Energy=-1031745.446727 Lattice="9.466766 0.000000 0.000000 -4.734854 8.196356 0.000000 0.011702 -0.000488 15.240621" Stress="0.000000 -0.000000 0.000003 -0.000001 -0.000000 0.000000 0.000003 0.000000 -0.000000" Properties=species:S:1:pos:R:3:forces:R:3
Al 1.554879 0.887184 2.398045 -0.000011 -0.000085 -0.000070
Al 1.556309 0.870987 7.455342 0.000008 -0.000033 -0.000143
Al 1.554506 0.871502 -2.675326 -0.000035 -0.000072 0.000012
Al -0.030822 3.597523 2.398415 -0.000066 -0.000038 -0.000010
Al -0.013884 3.601009 7.452928 0.000116 -0.000025 0.000092
Al -0.039326 3.608122 -2.682556 0.000053 0.000019 -0.000058
Al 3.153527 -1.866462 2.396671 0.000021 0.000007 -0.000031
Al 3.145247 -1.852168 7.468878 0.000067 0.000040 0.000047
Al 3.146204 -1.864599 -2.697384 -0.000015 -0.000015 -0.000072
Al -4.755072 0.865355 2.361846 -0.000013 -0.000002 -0.000020
Al -4.752420 0.860580 7.481601 0.000103 -0.000019 0.000134
Al -4.749408 0.860844 -2.674271 0.000032 0.000003 0.000014
Al -6.338496 3.591644 2.400905 0.000146 -0.000063 -0.000009
Al -6.340663 3.601853 7.473210 0.000051 -0.000119 -0.000040
Ga -6.346327 3.596396 -2.686712 0.000001 0.000030 0.000019
Al -3.188921 -1.851438 2.406492 -0.000063 -0.000012 0.000017
Ga -3.185442 -1.861305 7.469311 -0.000021 0.000044 -0.000006
Al -3.195628 -1.848216 -2.701587 0.000132 -0.000027 -0.000187
Al -1.597169 0.879560 2.372331 -0.000031 -0.000050 -0.000145
Al -1.590958 0.876465 7.474771 -0.000060 0.000022 -0.000049
Al -1.612568 0.876995 -2.672641 -0.000014 -0.000006 0.000004
Al -3.161821 3.597443 2.397623 -0.000094 0.000055 -0.000072
Ga -3.164744 3.599540 7.481591 -0.000007 -0.000000 0.000052
Al -3.159920 3.593079 -2.702896 0.000024 -0.000019 0.000055
Ga -0.027956 -1.854943 2.416961 0.000038 -0.000022 -0.000039
Ga -0.010453 -1.850134 7.471254 0.000054 -0.000012 -0.000032
Ga -0.024322 -1.847373 -2.699830 -0.000022 0.000035 -0.000024
Al -0.024493 1.781379 4.928168 0.000133 0.000015 0.000044
Ga -0.037208 1.782959 -5.225018 -0.000006 0.000039 0.000008
Al -0.031259 1.784157 -0.152600 0.000023 -0.000084 -0.000013
Al 3.147187 -3.671637 4.922302 0.000052 0.000018 0.000081
Al 3.133974 -3.670906 -5.226347 0.000029 0.000039 0.000023
Al 3.138002 -3.689168 -0.148040 -0.000168 0.000004 -0.000082
Al 1.568925 -0.953751 4.923361 0.000057 0.000056 0.000064
Al 1.562823 -0.958886 -5.225820 0.000090 0.000061 0.000048
Ga 1.573549 -0.939655 -0.138072 -0.000034 0.000032 -0.000026
Ga 3.132736 1.781294 4.937999 -0.000011 0.000008 0.000029
Ga 3.136532 1.774023 -5.240719 0.000045 -0.000019 0.000008
Al 3.133929 1.767283 -0.133472 -0.000024 -0.000023 -0.000011
Al 6.287555 -3.680406 4.910711 -0.000045 0.000057 0.000094
Al 6.276408 -3.670866 -5.227517 0.000006 0.000064 -0.000005
Ga 6.270474 -3.671840 -0.127115 0.000027 -0.000008 -0.000011
Al 4.709307 -0.961052 4.920045 0.000013 -0.000068 0.000083
Al 4.704599 -0.954839 -5.216774 0.000014 -0.000059 -0.000005
Al 4.716248 -0.948023 -0.153520 0.000022 0.000032 -0.000017
Ga -3.164542 1.773963 4.915762 -0.000006 -0.000019 0.000059
Al -3.181553 1.771692 -5.214811 -0.000008 -0.000089 -0.000015
Al -3.173273 1.778620 -0.149633 0.000031 0.000065 -0.000046
Al -0.019795 -3.678669 4.924426 -0.000154 0.000004 0.000087
Al -0.023890 -3.679856 -5.224739 0.000298 0.000016 0.000041
Ga -0.006684 -3.696836 -0.132136 0.000038 -0.000010 -0.000036
Al -1.598883 -0.946026 4.924014 -0.000118 0.000041 0.000018
Al -1.614291 -0.946466 -5.221746 -0.000052 0.000049 0.000177
Al -1.623024 -0.931244 -0.144579 0.000061 0.000076 0.000024
N 1.516106 0.853714 4.312198 -0.000037 0.000017 0.000021
N 1.542533 0.821843 -5.879555 -0.000018 -0.000044 0.000128
N 1.554114 0.919780 -0.764484 0.000040 0.000054 0.000041
N -0.025547 3.597307 4.320564 -0.000013 0.000017 0.000016
N -0.028783 3.650570 -5.865724 -0.000037 -0.000074 -0.000091
N -0.064809 3.583365 -0.768343 0.000033 0.000041 -0.000063
N 3.142199 -1.864004 4.312866 -0.000004 -0.000013 -0.000030
N 3.132135 -1.860324 -5.842109 -0.000006 -0.000002 -0.000013
N 3.178106 -1.888746 -0.778676 0.000026 -0.000076 0.000121
N -4.755036 0.822627 4.270208 0.000006 0.000054 -0.000093
N -4.713641 0.839598 -5.848418 0.000000 0.000138 -0.000097
N -4.755017 0.871177 -0.744007 -0.000018 -0.000011 0.000021
N -6.331279 3.644557 4.307864 0.000139 -0.000028 -0.000048
N -6.343332 3.655861 -5.848162 -0.000129 -0.000040 -0.000086
N -6.340997 3.559365 -0.724388 -0.000042 -0.000020 0.000011
N -3.176718 -1.855860 4.327792 -0.000014 -0.000017 0.000001
N -3.186193 -1.858906 -5.789217 0.000015 -0.000021 0.000005
N -3.179631 -1.813859 -0.783572 -0.000102 -0.000045 0.000036
N -1.551330 0.848805 4.283920 -0.000036 -0.000090 0.000094
N -1.645275 0.849008 -5.853973 -0.000007 -0.000042 0.000002
N -1.603373 0.872990 -0.750595 -0.000005 0.000010 0.000005
N -3.167589 3.650243 4.311966 -0.000018 -0.000073 -0.000122
N -3.178126 3.600630 -5.777329 -0.000165 0.000083 0.000006
N -3.132307 3.578222 -0.781905 0.000088 -0.000016 0.000042
N -0.019583 -1.857364 4.389966 0.000085 0.000004 -0.000011
N -0.026623 -1.856456 -5.779061 -0.000140 -0.000093 -0.000019
N -0.063990 -1.834353 -0.728590 0.000006 -0.000040 0.000064
N -0.019673 1.785565 1.771892 -0.000009 -0.000010 0.000013
N -0.022899 1.782595 6.857171 -0.000005 0.000025 -0.000003
N -0.027328 1.781152 -3.240760 0.000076 0.000101 0.000026
N 3.137098 -3.681851 1.778877 -0.000030 -0.000003 0.000065
N 3.180265 -3.654272 6.841310 -0.000016 0.000028 -0.000095
N 3.136566 -3.679412 -3.306374 0.000015 -0.000004 0.000032
N 1.603080 -0.925719 1.831913 -0.000002 0.000082 0.000043
N 1.608547 -0.928647 6.838417 -0.000100 0.000017 -0.000041
N 1.602676 -0.923220 -3.308434 -0.000021 0.000091 -0.000060
N 3.130317 1.779824 1.787020 0.000025 -0.000026 0.000030
N 3.142136 1.782157 6.922425 -0.000064 0.000146 -0.000001
N 3.134529 1.728721 -3.268860 -0.000072 0.000008 -0.000000
N 6.284084 -3.677964 1.853066 -0.000007 0.000138 -0.000018
N 6.294530 -3.728478 6.830213 -0.000096 0.000002 -0.000079
N 6.239307 -3.659811 -3.309978 -0.000085 0.000009 0.000157
N 4.713437 -0.956804 1.768450 -0.000017 0.000003 0.000044
N 4.673435 -0.925234 6.835096 0.000037 -0.000024 -0.000072
N 4.704220 -0.944429 -3.297369 0.000006 -0.000028 0.000025
N -3.175099 1.786396 1.776823 0.000000 0.000025 0.000039
N -3.174371 1.733567 6.888060 0.000018 -0.000074 -0.000029
N -3.181580 1.774467 -3.289265 -0.000006 -0.000007 -0.000007
N -0.015628 -3.730397 1.834081 0.000038 -0.000055 0.000128
N -0.055265 -3.709038 6.835283 -0.000009 0.000002 -0.000035
N 0.015801 -3.708648 -3.320218 -0.000053 0.000027 -0.000071
N -1.647345 -0.928341 1.769675 0.000102 0.000004 -0.000016
N -1.599646 -0.900414 6.829921 0.000009 0.000052 0.000016
N -1.647766 -0.916615 -3.311468 -0.000091 -0.000130 -0.000089
