108
Energy=-2.130357e+06 Lattice="9.601681e+00 0.000000e+00 0.000000e+00 -4.802254e+00 8.315186e+00 0.000000e+00 -3.436786e-03 -4.001368e-03 1.556012e+01" Stress="-3.617807e-06 7.743510e-06 1.257516e-05 -4.108796e-06 6.269555e-06 7.149693e-06 7.020228e-07 -8.557520e-06 -3.894376e-07" Properties=species:S:1:pos:R:3:forces:R:3 Config_type=AlGaN_super3_37_1_18.xyz
Al 1.584819e+00 8.956559e-01 2.429093e+00 3.264808e-07 1.574462e-05 -2.443271e-06
Al 1.585225e+00 9.000154e-01 7.626182e+00 1.668180e-06 3.860998e-06 1.174659e-05
Ga 1.579277e+00 8.898484e-01 -2.722208e+00 -9.190738e-06 -2.310713e-05 6.758656e-06
Al -6.985280e-03 3.639731e+00 2.432680e+00 -9.916190e-06 4.318243e-06 -1.558850e-06
Al -1.767056e-02 3.645627e+00 7.632106e+00 7.318491e-06 9.963666e-06 -1.100440e-05
Ga -5.066868e-03 3.655751e+00 -2.723059e+00 1.367547e-06 -8.395399e-06 -1.367647e-06
Ga 3.170566e+00 -1.877149e+00 2.437727e+00 -3.747356e-06 9.495813e-06 1.874431e-05
Ga 3.179587e+00 -1.886489e+00 7.642616e+00 6.313420e-06 2.726762e-06 -8.409225e-06
Ga 3.181584e+00 -1.877085e+00 -2.735628e+00 4.560799e-06 -2.695925e-06 -4.580225e-06
Al -4.839689e+00 8.991094e-01 2.467158e+00 7.217387e-06 -5.056303e-06 -2.142285e-06
Ga -4.847516e+00 8.877593e-01 7.633072e+00 1.168429e-05 1.117918e-05 -4.905293e-06
Ga -4.833403e+00 8.822995e-01 -2.759099e+00 -1.845443e-06 5.695022e-06 1.397369e-05
Al -6.436441e+00 3.633788e+00 2.457495e+00 8.106658e-06 -7.235617e-06 -3.111119e-06
Ga -6.437499e+00 3.631816e+00 7.639894e+00 2.434015e-06 -3.799440e-06 2.189696e-05
Al -6.419453e+00 3.666158e+00 -2.765163e+00 1.805320e-06 -5.501776e-07 -6.318111e-06
Ga -3.221653e+00 -1.898967e+00 2.455094e+00 6.346953e-08 9.242815e-06 1.572915e-05
Ga -3.226183e+00 -1.892812e+00 7.633840e+00 6.270214e-06 4.397128e-06 -8.366637e-06
Al -3.218654e+00 -1.892850e+00 -2.747296e+00 -5.522619e-07 -8.628341e-06 -8.143141e-06
Ga -1.617819e+00 8.897676e-01 2.458990e+00 -1.726087e-05 2.344823e-05 1.848783e-05
Ga -1.617618e+00 8.841878e-01 7.606031e+00 1.071043e-06 7.571997e-06 3.905645e-08
Ga -1.612789e+00 8.782128e-01 -2.724478e+00 9.354598e-06 4.793286e-06 -2.005796e-05
Ga -3.229833e+00 3.644930e+00 2.457378e+00 -1.396863e-05 -5.469785e-06 -2.301747e-05
Ga -3.224815e+00 3.650088e+00 7.631775e+00 -4.536672e-06 1.727725e-06 -1.284863e-05
Ga -3.243119e+00 3.668990e+00 -2.742328e+00 -3.138906e-06 -1.095963e-05 -8.738987e-06
Ga -2.134867e-02 -1.881426e+00 2.446266e+00 -3.243513e-06 1.922342e-05 -1.612387e-05
Ga -2.918430e-02 -1.884110e+00 7.638160e+00 3.775001e-06 -3.736684e-06 -1.533461e-05
Al -2.845628e-02 -1.899903e+00 -2.740933e+00 -4.295571e-07 3.210561e-06 -1.422061e-05
Ga -1.272889e-02 1.803638e+00 5.032427e+00 -2.221701e-05 -6.310591e-06 3.373446e-06
Ga -3.666646e-03 1.811545e+00 -5.358507e+00 -2.583849e-06 -4.663822e-06 1.294153e-05
Al -1.234079e-02 1.800729e+00 -1.155443e-01 -3.269097e-06 -8.920070e-07 1.268037e-05
Ga 3.184362e+00 -3.751138e+00 5.039062e+00 -1.186092e-06 -6.803228e-06 -1.660992e-06
Ga 3.183134e+00 -3.729908e+00 -5.336002e+00 -1.401029e-05 -6.348478e-06 8.032626e-06
Ga 3.183003e+00 -3.736507e+00 -1.373965e-01 1.152687e-05 1.382888e-05 -1.673212e-05
Ga 1.569919e+00 -9.427863e-01 5.045726e+00 -9.337450e-06 2.406256e-05 -9.849303e-07
Ga 1.584026e+00 -9.508086e-01 -5.335485e+00 1.570298e-06 -7.319216e-06 -7.738745e-06
Al 1.565017e+00 -9.539346e-01 -1.499047e-01 -9.434819e-06 -5.664578e-06 -1.119237e-05
Al 3.178426e+00 1.803634e+00 5.009450e+00 -2.853643e-08 -2.553543e-06 -7.738245e-07
Al 3.179372e+00 1.810431e+00 -5.332058e+00 3.629636e-07 -1.535806e-06 9.111946e-06
Ga 3.167397e+00 1.809255e+00 -1.275883e-01 7.795567e-07 2.885474e-05 1.070404e-05
Ga 6.383502e+00 -3.748185e+00 5.033987e+00 -6.134549e-07 6.893970e-06 -1.192593e-05
Ga 6.388056e+00 -3.734500e+00 -5.324455e+00 -4.183580e-05 8.908037e-06 -1.706305e-05
Ga 6.387050e+00 -3.745467e+00 -1.489550e-01 -2.159038e-06 1.543416e-06 1.848498e-05
Ga 4.785368e+00 -9.410756e-01 5.026097e+00 4.439380e-08 1.255848e-05 2.255591e-06
Al 4.779518e+00 -9.547387e-01 -5.325597e+00 3.058967e-06 -2.880732e-07 3.259745e-06
Ga 4.776379e+00 -9.590658e-01 -1.342062e-01 2.843391e-05 1.703009e-05 -1.992997e-05
Al -3.238478e+00 1.794767e+00 5.031060e+00 -6.106474e-06 7.688682e-06 -2.340387e-06
Ga -3.239258e+00 1.808283e+00 -5.336729e+00 1.051279e-05 -8.619260e-06 -1.696333e-05
Ga -3.220801e+00 1.803271e+00 -1.326234e-01 5.744954e-06 -6.283471e-06 -2.573054e-05
Ga -3.561917e-02 -3.746495e+00 5.026923e+00 -8.031692e-06 -1.117723e-05 -6.876571e-06
Al -3.105889e-02 -3.738375e+00 -5.316799e+00 -4.145472e-06 -2.075347e-06 -8.944124e-06
Ga -3.131031e-02 -3.727575e+00 -1.479353e-01 6.631795e-06 -2.194726e-06 -1.134488e-05
Al -1.626920e+00 -9.584195e-01 5.039486e+00 1.106734e-05 -1.241872e-05 -2.411909e-06
Ga -1.625726e+00 -9.720510e-01 -5.304682e+00 9.303800e-06 -7.068020e-06 2.431268e-06
Ga -1.609577e+00 -9.631391e-01 -1.699183e-01 5.077291e-06 6.034626e-06 5.325500e-06
N 1.616446e+00 9.052006e-01 4.352819e+00 1.681490e-06 -1.781409e-05 4.488271e-06
N 1.630640e+00 9.139783e-01 -6.010334e+00 2.449187e-06 6.220935e-06 -1.570559e-05
N 1.537719e+00 8.663153e-01 -7.325530e-01 7.767473e-06 -2.442777e-06 -1.734781e-05
N -2.120979e-02 3.649408e+00 4.345414e+00 2.932455e-06 -5.589601e-07 1.006053e-05
N -1.677803e-02 3.662248e+00 -6.016142e+00 1.559885e-05 3.604623e-07 1.236155e-05
N -1.976016e-02 3.600998e+00 -7.452537e-01 1.122269e-06 9.842625e-06 -2.471581e-05
N 3.170204e+00 -1.887745e+00 4.412954e+00 -4.751503e-06 -1.166489e-05 1.199941e-05
N 3.222166e+00 -1.858358e+00 -5.938663e+00 -1.003111e-05 5.746085e-07 -1.144992e-06
N 3.137401e+00 -1.859222e+00 -7.487664e-01 -1.978455e-06 -1.989452e-05 2.481718e-05
N -4.828097e+00 9.358389e-01 4.389622e+00 -1.155462e-05 3.089038e-06 -4.038145e-06
N -4.871351e+00 8.632246e-01 -5.932261e+00 -1.361144e-06 5.765896e-07 -9.312927e-07
N -4.830707e+00 8.865499e-01 -7.857002e-01 -1.271108e-05 -6.520128e-06 -1.612864e-05
N -6.429346e+00 3.604511e+00 4.373123e+00 2.971148e-06 1.248458e-05 2.537178e-06
N -6.380874e+00 3.629242e+00 -5.927918e+00 1.701878e-05 6.809607e-08 -7.169316e-06
N -6.420789e+00 3.648771e+00 -8.432748e-01 -9.502228e-06 -1.162985e-05 2.382067e-06
N -3.180935e+00 -1.869817e+00 4.430322e+00 -9.694971e-06 -1.141256e-05 1.341714e-05
N -3.260886e+00 -1.860193e+00 -5.944142e+00 -3.886918e-06 -1.657938e-05 -1.910288e-06
N -3.230309e+00 -1.889852e+00 -8.264313e-01 -4.504951e-06 9.669519e-06 1.211956e-05
N -1.661900e+00 8.618719e-01 4.451264e+00 2.730960e-06 -6.720023e-06 -1.128276e-05
N -1.623574e+00 8.792365e-01 -5.974087e+00 -2.409710e-06 -4.575830e-06 1.584652e-05
N -1.575308e+00 9.161392e-01 -7.451326e-01 -2.340894e-06 -4.590929e-07 -7.363365e-06
N -3.224518e+00 3.605431e+00 4.433573e+00 1.199396e-05 -8.989355e-07 3.028474e-06
N -3.267916e+00 3.683459e+00 -5.943672e+00 2.013423e-05 1.472547e-05 1.070741e-05
N -3.227727e+00 3.657346e+00 -7.687777e-01 -6.912134e-06 9.186025e-06 4.675639e-05
N -6.198539e-02 -1.860864e+00 4.425620e+00 -1.833413e-06 5.839694e-06 1.295748e-05
N -2.515133e-02 -1.932865e+00 -5.940342e+00 1.971629e-06 8.362818e-06 3.047199e-06
N 2.376321e-02 -1.869734e+00 -8.172638e-01 -9.495613e-06 1.567215e-06 7.164376e-06
N 1.767981e-02 1.825564e+00 1.811088e+00 1.775800e-05 -1.347113e-05 4.759084e-06
N 2.380809e-02 1.831513e+00 7.026050e+00 -1.359245e-07 -1.175688e-06 -8.063345e-06
N -1.680811e-02 1.809723e+00 -3.386108e+00 4.473503e-06 4.373196e-06 -2.567191e-05
N 3.219557e+00 -3.761775e+00 1.840994e+00 1.407668e-07 8.040107e-06 1.376864e-05
N 3.221100e+00 -3.762844e+00 7.023974e+00 3.146956e-06 -3.324375e-06 2.165233e-05
N 3.185815e+00 -3.735842e+00 -3.361265e+00 -5.798500e-06 -3.574852e-07 -1.913209e-07
N 1.570476e+00 -9.146869e-01 1.774592e+00 1.050790e-05 7.464642e-06 1.634243e-05
N 1.573965e+00 -9.117788e-01 7.030630e+00 3.810294e-06 3.153943e-06 -5.718980e-07
N 1.534865e+00 -9.793841e-01 -3.353091e+00 -2.610036e-06 1.749437e-05 2.388860e-05
N 3.179529e+00 1.809227e+00 1.864407e+00 -2.817410e-06 -1.401228e-05 -1.924518e-05
N 3.132816e+00 1.782198e+00 6.939415e+00 8.896217e-06 -1.439140e-06 -5.559909e-06
N 3.168917e+00 1.854767e+00 -3.408695e+00 9.487943e-06 7.705484e-06 -3.321491e-06
N 6.386622e+00 -3.785315e+00 1.843478e+00 2.654615e-06 3.401013e-06 -2.513999e-06
N 6.339063e+00 -3.764734e+00 7.018480e+00 6.575007e-07 -2.098833e-06 1.352613e-05
N 6.419018e+00 -3.711432e+00 -3.336782e+00 1.041539e-05 1.055662e-06 3.147436e-06
N 4.782510e+00 -9.108904e-01 1.847551e+00 -1.230291e-05 -3.456958e-05 -1.583603e-05
N 4.776432e+00 -9.606350e-01 6.994541e+00 2.946246e-06 -1.088028e-05 2.287708e-06
N 4.821649e+00 -9.882502e-01 -3.403796e+00 6.576941e-07 2.966857e-07 5.095881e-06
N -3.267769e+00 1.778235e+00 1.843267e+00 1.201184e-06 -1.100790e-05 4.438191e-06
N -3.236404e+00 1.802254e+00 6.951882e+00 -8.637020e-06 -1.823702e-05 1.523059e-05
N -3.218416e+00 1.808483e+00 -3.366906e+00 -1.250256e-05 6.349759e-06 3.338671e-06
N -7.208378e-02 -3.760356e+00 1.838459e+00 9.116115e-06 -7.449122e-06 -5.320868e-06
N -3.295412e-02 -3.740029e+00 6.998243e+00 4.610273e-06 3.054423e-06 3.512551e-07
N -6.480623e-02 -3.707810e+00 -3.388957e+00 -4.257625e-06 -5.963661e-06 4.423910e-06
N -1.625373e+00 -9.641803e-01 1.801632e+00 -3.998101e-06 -8.954226e-06 -5.866137e-07
N -1.625626e+00 -9.700160e-01 6.951155e+00 1.537669e-06 5.036965e-06 1.335430e-05
N -1.621111e+00 -1.009479e+00 -3.316711e+00 -9.024485e-06 1.965431e-06 -5.346602e-06
