108
Energy=-2038806.298244 Lattice="9.595883 0.000000 0.000000 -4.805199 8.300472 0.000000 -0.002714 0.024371 15.533848" Stress="0.000001 -0.000001 -0.000001 -0.000001 -0.000002 0.000005 -0.000001 0.000005 0.000001" Properties=species:S:1:pos:R:3:forces:R:3
Al 1.567914 0.890020 2.421772 0.000013 -0.000370 0.000008
Al 1.578358 0.905878 7.642972 0.000394 -0.000477 0.000493
Ga 1.572311 0.870650 -2.746701 0.000649 -0.000643 0.000195
Al -0.031057 3.644243 2.430141 -0.000136 -0.000309 0.000015
Al -0.015215 3.662614 7.612742 0.000199 0.000018 0.000224
Ga -0.027231 3.638566 -2.722144 0.000166 -0.000276 0.000070
Ga 3.173368 -1.884804 2.448820 0.000358 -0.000282 0.000039
Ga 3.185118 -1.874136 7.622493 -0.000042 -0.000276 0.000364
Al 3.170878 -1.889267 -2.751014 0.000198 0.000067 0.000702
Al -4.836814 0.886309 2.444463 0.000399 -0.000225 0.000003
Ga -4.841522 0.893648 7.652830 0.000550 -0.000534 0.000063
Ga -4.833873 0.876543 -2.763375 0.000263 -0.000597 -0.000399
Ga -6.424834 3.648851 2.460835 0.000096 -0.000053 0.000032
Al -6.436005 3.659807 7.609439 0.000236 0.000180 -0.000056
Al -6.422081 3.642538 -2.750779 0.000202 -0.000461 0.000824
Ga -3.216786 -1.882274 2.437315 0.000098 -0.000127 -0.000186
Al -3.224386 -1.883878 7.640128 0.000227 -0.000329 -0.000145
Ga -3.215282 -1.890002 -2.747861 -0.000029 -0.000099 -0.000098
Ga -1.609603 0.890527 2.437563 0.001133 -0.000617 -0.000310
Ga -1.618646 0.897459 7.616349 0.000815 -0.000773 -0.000486
Al -1.612551 0.874163 -2.721762 0.000457 -0.000174 0.000251
Ga -3.222090 3.668968 2.446134 0.000730 -0.000128 -0.000196
Ga -3.228589 3.670975 7.605069 0.000455 -0.000031 0.000125
Ga -3.226880 3.656594 -2.720833 0.000548 -0.000445 -0.000397
Al -0.016155 -1.876666 2.456215 0.000363 -0.000326 0.000025
Ga -0.025876 -1.872658 7.628716 0.000898 -0.000449 0.000344
Al -0.011817 -1.885072 -2.761277 0.000342 -0.000232 0.000086
Ga -0.014103 1.826436 5.032890 -0.000419 0.000024 0.000539
Ga -0.008171 1.788634 -5.334559 -0.000729 0.000402 0.000589
Al -0.029115 1.811241 -0.142686 -0.000283 0.000478 0.001216
Al 3.182159 -3.727904 5.032245 -0.000389 0.000092 0.000022
Ga 3.188133 -3.722642 -5.322755 -0.000378 -0.000075 0.000406
Al 3.190634 -3.731336 -0.154167 -0.000200 0.000754 0.001660
Ga 1.575168 -0.959381 5.022569 -0.001107 0.000713 0.000003
Al 1.599887 -0.964236 -5.318146 -0.000657 0.000521 0.000130
Ga 1.576839 -0.972814 -0.148826 -0.000520 0.000517 -0.000195
Ga 3.167105 1.812025 5.035922 -0.000077 -0.000200 0.000768
Al 3.166373 1.791493 -5.339884 -0.000109 0.000168 0.000205
Ga 3.164037 1.806899 -0.136736 -0.000066 -0.000016 -0.000268
Ga 6.366401 -3.722922 5.053258 0.000049 -0.000096 0.000117
Ga 6.381858 -3.745079 -5.348412 0.000103 0.000127 0.000573
Ga 6.368193 -3.746387 -0.144137 0.000093 -0.000156 -0.000417
Ga 4.777043 -0.956937 5.041044 -0.000249 0.000739 -0.000080
Al 4.763158 -0.973584 -5.323723 0.000220 0.000158 -0.000085
Ga 4.763199 -0.969049 -0.152227 -0.000410 0.000315 0.001071
Ga -3.236358 1.827486 5.022278 -0.000393 0.000052 0.000086
Ga -3.230326 1.789616 -5.307247 -0.000221 0.000139 -0.000229
Ga -3.212568 1.807304 -0.145003 -0.000132 0.000217 -0.000407
Al -0.015739 -3.712073 5.035979 0.000093 0.000198 0.000166
Ga -0.028762 -3.741428 -5.316858 -0.000476 -0.000010 0.000342
Ga -0.020490 -3.717722 -0.160152 -0.000176 -0.000078 0.000375
Ga -1.614154 -0.969568 5.041114 -0.000369 0.000321 0.000028
Ga -1.619328 -0.969721 -5.312716 -0.000683 0.000342 -0.000044
Ga -1.598741 -0.955228 -0.160413 -0.000463 0.000353 0.000123
N 1.569509 0.893829 4.339019 0.000516 -0.000562 -0.000520
N 1.616725 0.846826 -5.960060 0.000863 -0.000742 -0.000471
N 1.532635 0.903444 -0.760652 -0.000036 -0.000213 -0.000033
N -0.068015 3.681362 4.361741 -0.000378 0.000072 -0.000459
N -0.030396 3.639343 -6.008216 -0.000035 -0.000131 -0.000635
N -0.066973 3.622760 -0.741984 -0.000380 -0.000528 0.000053
N 3.178045 -1.925311 4.428493 0.000262 -0.000832 0.000144
N 3.177633 -1.848127 -5.927379 0.000138 0.000324 -0.000309
N 3.174747 -1.929459 -0.817760 0.000179 -0.001027 -0.000281
N -4.832550 0.890365 4.358768 0.000336 -0.000381 -0.000785
N -4.864940 0.849517 -5.897757 -0.000088 -0.000273 0.000350
N -4.829381 0.885166 -0.790097 0.000424 -0.000322 0.000079
N -6.387420 3.683915 4.438527 0.000260 0.000027 0.000130
N -6.418116 3.593566 -6.002777 0.000161 -0.000574 -0.000365
N -6.425055 3.643920 -0.829809 0.000016 0.000079 -0.000404
N -3.220148 -1.879065 4.404269 0.000030 -0.000205 -0.000008
N -3.259403 -1.867650 -5.970194 -0.000335 0.000283 -0.000176
N -3.219312 -1.885121 -0.773234 0.000308 -0.000229 0.000225
N -1.622660 0.892925 4.412548 0.000845 -0.000357 0.000190
N -1.626695 0.876539 -5.955582 0.000862 -0.000470 -0.000046
N -1.581337 0.911799 -0.798518 0.000825 -0.000479 0.000020
N -3.225852 3.715536 4.439108 0.000254 0.000147 0.000076
N -3.225569 3.644769 -5.951395 0.000462 -0.000093 -0.000356
N -3.184772 3.677193 -0.746308 0.000419 -0.000152 0.000327
N -0.023393 -1.920930 4.377396 0.000813 -0.000771 -0.000566
N 0.024322 -1.868494 -5.925385 0.000929 -0.000054 0.000245
N -0.015079 -1.880878 -0.851245 0.000681 -0.000330 -0.000120
N 0.016153 1.832248 1.791498 -0.000095 0.000258 -0.001171
N 0.026345 1.838225 7.025937 -0.000252 0.000592 -0.000242
N -0.061759 1.775130 -3.357713 -0.000703 0.000273 -0.000275
N 3.222769 -3.745948 1.774939 -0.000097 -0.000189 -0.001688
N 3.225724 -3.743270 6.955666 0.000106 -0.000010 -0.000292
N 3.185956 -3.693681 -3.349209 -0.000545 0.000696 -0.000033
N 1.538685 -0.943803 1.844390 -0.000823 0.000963 0.000229
N 1.579164 -0.898970 7.005849 -0.000767 0.000706 -0.000044
N 1.587066 -1.014714 -3.388027 -0.000599 0.000348 -0.000270
N 3.172587 1.764820 1.846335 -0.000051 -0.000127 0.000422
N 3.130314 1.832946 7.027038 -0.000690 0.000532 -0.000195
N 3.166291 1.846971 -3.415917 -0.000345 0.001023 -0.000372
N 6.340572 -3.756870 1.832107 -0.000117 0.000192 0.000426
N 6.374665 -3.715975 7.050665 -0.000023 0.000087 0.000220
N 6.415656 -3.764285 -3.361621 0.000273 0.000177 -0.000518
N 4.772599 -0.915549 1.830489 -0.000361 0.000772 -0.001098
N 4.820931 -0.969731 7.017333 -0.000025 0.000043 0.000052
N 4.737128 -0.999654 -3.403601 -0.000683 0.000295 -0.000042
N -3.263755 1.786191 1.837445 -0.000904 0.000113 0.000608
N -3.236100 1.811722 6.993404 -0.000307 0.000236 -0.000115
N -3.176969 1.776957 -3.331792 0.000047 0.000243 0.000293
N -0.024385 -3.675190 1.822834 -0.000281 0.000459 -0.000082
N -0.063028 -3.734640 6.958506 -0.000826 -0.000103 -0.000322
N -0.061425 -3.716710 -3.332367 -0.000615 0.000804 0.000019
N -1.570553 -0.984285 1.822253 -0.000396 0.000630 -0.000173
N -1.661687 -0.980959 7.018335 -0.000957 0.000405 0.000032
N -1.579187 -0.941458 -3.328719 0.000069 0.000346 0.000039
