108
Energy=-1626826.444235 Lattice="9.497096 0.000000 0.000000 -4.756961 8.220969 0.000000 -0.000101 0.000059 15.331543" Stress="-0.000098 0.000001 0.000001 0.000001 -0.000098 -0.000001 0.000001 -0.000001 -0.000095" Properties=species:S:1:pos:R:3:forces:R:3
Al 1.558681 0.860838 2.426836 0.000347 0.001104 -0.000318
Al 1.563663 0.876500 7.516464 0.001091 -0.002009 -0.000028
Al 1.558619 0.865252 -2.733879 0.001828 0.001337 0.004114
Al -0.032115 3.611170 2.443241 0.005818 -0.002287 0.000835
Al 0.000068 3.624248 7.519952 -0.004481 -0.000110 -0.009900
Al -0.010459 3.606904 -2.726641 0.000373 -0.000818 0.005263
Al 3.146881 -1.879607 2.436960 0.001095 0.004089 0.000798
Al 3.170800 -1.883575 7.546990 -0.003883 0.004168 -0.023548
Ga 3.150078 -1.866077 -2.718172 -0.000081 -0.000317 0.004675
Al -4.788540 0.874301 2.442992 0.001574 0.001041 -0.000445
Ga -4.806058 0.868530 7.505348 0.000411 -0.001927 -0.001041
Al -4.791904 0.877842 -2.730864 -0.000557 0.001732 0.004906
Ga -6.362460 3.605958 2.430583 0.000040 0.000860 0.000223
Al -6.377799 3.618813 7.506876 0.001849 -0.000880 -0.000179
Ga -6.373498 3.611258 -2.731999 -0.000007 -0.001624 0.004021
Ga -3.203785 -1.867396 2.436076 0.001055 -0.000810 0.000453
Al -3.178254 -1.885408 7.518136 -0.002319 0.000895 -0.002075
Ga -3.176317 -1.876409 -2.737827 0.000999 -0.000472 0.003815
Al -1.624187 0.898077 2.424252 0.000885 0.000202 -0.002701
Ga -1.608654 0.871508 7.531783 0.002302 -0.000166 -0.000164
Ga -1.617341 0.880475 -2.724270 0.002198 -0.001317 0.002692
Al -3.183406 3.619787 2.429600 -0.002991 -0.002400 -0.001173
Ga -3.196033 3.643665 7.503227 0.002077 0.001051 -0.001751
Ga -3.201355 3.622784 -2.710954 0.000765 -0.001093 0.004446
Ga 0.002799 -1.861247 2.420925 -0.000710 -0.000107 0.000378
Al -0.024200 -1.861659 7.514226 0.003042 -0.000552 -0.000891
Al -0.013095 -1.851092 -2.728971 -0.000555 -0.000410 0.006356
Ga -0.012176 1.795845 4.975745 -0.000371 0.000687 0.000827
Ga -0.005911 1.790853 -5.277413 -0.001018 0.000267 0.002566
Ga -0.018409 1.784482 -0.133932 0.000139 0.001300 -0.002028
Al 3.160986 -3.691806 4.970926 -0.000088 0.002881 0.000670
Ga 3.174836 -3.701011 -5.284884 -0.000313 -0.000482 0.004302
Ga 3.152434 -3.705169 -0.112844 0.000418 0.000295 -0.003960
Ga 1.594001 -0.966903 4.991829 0.000504 0.000968 0.002430
Ga 1.571524 -0.953690 -5.293811 -0.003653 0.001510 0.003020
Al 1.571134 -0.960095 -0.161963 -0.002303 0.001225 0.003539
Al 3.131255 1.796533 4.982647 0.000698 -0.001395 -0.001698
Al 3.125726 1.792407 -5.282030 -0.000618 0.001809 0.004227
Ga 3.140784 1.785830 -0.144264 -0.000921 -0.000124 -0.001313
Al 6.313357 -3.699048 5.001245 -0.002014 0.001175 0.000192
Al 6.320252 -3.697091 -5.306750 0.000237 0.000290 0.003442
Al 6.315831 -3.697999 -0.155385 -0.001384 -0.001199 0.002522
Al 4.729038 -0.961165 4.980702 -0.003120 -0.000671 0.000548
Ga 4.744563 -0.955721 -5.287639 0.001506 -0.000084 0.003017
Ga 4.737020 -0.944738 -0.128175 -0.001688 0.000816 -0.002987
Ga -3.215363 1.801671 4.956258 -0.000637 0.000508 -0.000089
Ga -3.213904 1.787661 -5.271705 0.000730 -0.000104 0.001870
Al -3.214762 1.796982 -0.143491 -0.000662 -0.000180 0.004488
Al -0.027591 -3.691880 4.990833 0.000610 -0.001706 0.000770
Ga -0.044155 -3.679519 -5.288426 -0.001545 0.000261 0.002280
Al -0.020140 -3.685619 -0.157025 -0.000550 0.000862 0.000341
Ga -1.609997 -0.962859 4.992238 -0.001415 0.000720 -0.000602
Al -1.597042 -0.961912 -5.287829 -0.001566 -0.001043 0.003443
Ga -1.589521 -0.958451 -0.142015 -0.000613 0.000440 -0.001706
N 1.596027 0.885614 4.340711 0.000828 0.000374 -0.003854
N 1.596630 0.893163 -5.913588 0.002110 0.000498 -0.002300
N 1.556992 0.827733 -0.813744 0.000528 -0.001417 0.000965
N -0.020440 3.657658 4.364550 0.002074 0.000599 -0.003972
N 0.019311 3.632700 -5.937946 0.000521 0.000677 0.003958
N 0.015005 3.632771 -0.808242 0.000244 0.000371 0.000777
N 3.195215 -1.894065 4.361124 -0.000722 -0.000052 -0.006440
N 3.158135 -1.873753 -5.942640 0.000590 -0.000214 0.011709
N 3.121083 -1.853463 -0.752667 -0.000998 -0.000531 0.003054
N -4.826504 0.851043 4.366076 -0.000140 -0.000571 -0.003183
N -4.828301 0.894847 -5.873609 -0.000236 0.000692 -0.001462
N -4.748319 0.897318 -0.812802 0.003315 0.000564 0.000424
N -6.361501 3.619698 4.424399 0.000294 0.000376 -0.002567
N -6.398671 3.589429 -5.905462 0.000089 -0.001663 -0.001993
N -6.363364 3.656870 -0.748960 0.001436 0.001202 0.001674
N -3.225145 -1.893906 4.411646 0.000711 -0.001755 -0.002212
N -3.140556 -1.890527 -5.901167 0.000047 -0.000457 -0.000857
N -3.180548 -1.911594 -0.764281 0.000179 -0.000421 0.001912
N -1.618894 0.881354 4.333188 0.001975 -0.001217 -0.005114
N -1.617962 0.838879 -5.846499 0.001765 -0.000768 0.001091
N -1.658214 0.903996 -0.753158 -0.000056 0.000217 0.002564
N -3.197057 3.675094 4.361535 -0.000638 0.000441 -0.004872
N -3.195488 3.629296 -5.879487 0.000350 -0.000965 -0.000920
N -3.232699 3.600603 -0.735523 0.000500 -0.001661 0.003354
N -0.015000 -1.903934 4.395890 0.000762 -0.001466 -0.004376
N -0.055152 -1.836886 -5.920117 0.000580 -0.000235 -0.002321
N 0.019984 -1.879216 -0.795061 0.002015 -0.001952 0.000779
N -0.023447 1.785138 1.855166 0.000021 0.000895 0.002576
N 0.012856 1.802450 6.950001 0.000167 0.002943 -0.001751
N 0.014684 1.805252 -3.306120 0.000529 0.000917 0.000409
N 3.169501 -3.708304 1.872112 -0.006432 0.002920 -0.000707
N 3.191052 -3.668730 6.885418 0.003503 -0.002723 0.000017
N 3.193076 -3.725295 -3.319327 0.000171 0.001049 -0.000833
N 1.613632 -0.932210 1.784505 -0.000065 -0.001625 -0.002807
N 1.571595 -0.954807 6.967690 0.001815 -0.001206 0.001861
N 1.536573 -0.940829 -3.318421 -0.001615 0.001432 -0.002066
N 3.134129 1.741167 1.831576 -0.000034 -0.000667 0.001461
N 3.095123 1.811724 6.890345 -0.002110 0.001933 -0.003518
N 3.133560 1.747201 -3.358333 -0.000905 -0.001815 -0.000944
N 6.272417 -3.717562 1.767064 -0.001702 -0.000797 -0.000112
N 6.316342 -3.694278 6.916562 -0.000145 0.000573 -0.001961
N 6.270826 -3.719808 -3.390700 -0.000490 0.000444 -0.004315
N 4.686453 -0.922977 1.841300 -0.001101 -0.001437 0.001771
N 4.737078 -0.998597 6.891740 0.000043 -0.001907 0.002545
N 4.737824 -0.910135 -3.324793 -0.001766 -0.000034 -0.000937
N -3.212568 1.790972 1.815680 0.000855 0.001086 -0.000832
N -3.201761 1.793581 6.910496 0.000480 -0.000408 -0.001829
N -3.243095 1.774192 -3.321745 -0.000311 -0.000448 0.001286
N 0.013615 -3.713116 1.765802 0.002685 -0.000281 -0.000513
N -0.062517 -3.667977 6.903840 -0.002929 0.000756 -0.001838
N -0.027006 -3.642138 -3.325734 0.000032 0.001454 0.000651
N -1.602243 -0.902637 1.827877 -0.000539 -0.000966 0.001350
N -1.603916 -0.991996 6.953613 -0.001140 -0.000929 -0.002173
N -1.559739 -0.973936 -3.371326 0.000329 -0.000029 -0.001480
