108
Energy=-5.739908e+05 Lattice="9.413343e+00 0.000000e+00 0.000000e+00 -4.707526e+00 8.151588e+00 0.000000e+00 -7.498613e-03 -2.524023e-03 1.510154e+01" Stress="4.010228e-04 5.728163e-05 -3.625939e-04 5.796731e-05 2.374557e-04 -1.287696e-04 -3.605311e-04 -1.311645e-04 6.419524e-04" Properties=species:S:1:pos:R:3:forces:R:3 Config_type=AlGaN_super3_3_0_15.xyz
Al 1.546870e+00 8.666544e-01 2.366101e+00 -1.673111e-04 -1.434458e-04 1.260788e-04
Al 1.542008e+00 8.655495e-01 7.400077e+00 8.185149e-05 -4.979047e-05 -2.970909e-05
Al 1.548919e+00 8.678034e-01 -2.668701e+00 -2.556247e-05 -7.558981e-05 8.849018e-05
Al -2.072239e-02 3.582794e+00 2.367260e+00 -1.131622e-04 -1.506664e-04 2.008862e-05
Al -2.599288e-02 3.581872e+00 7.400352e+00 -2.827138e-05 -4.650185e-06 -1.347490e-05
Al -2.226464e-02 3.585273e+00 -2.668531e+00 -6.277672e-05 -3.881264e-05 4.508581e-05
Al 3.112982e+00 -1.853380e+00 2.381218e+00 -8.908921e-04 -1.756775e-04 1.980112e-04
Al 3.112418e+00 -1.852243e+00 7.399555e+00 -7.841122e-06 -1.024321e-05 -8.091438e-05
Al 3.111896e+00 -1.854069e+00 -2.678466e+00 2.092441e-05 5.273026e-05 1.995229e-05
Al -4.727488e+00 8.721372e-01 2.380365e+00 -7.713773e-05 9.670420e-04 2.613093e-04
Al -4.732941e+00 8.657400e-01 7.399052e+00 5.387184e-05 1.285592e-05 -5.805623e-05
Al -4.730201e+00 8.743656e-01 -2.678504e+00 8.178867e-05 -2.550214e-04 4.636376e-05
Al -6.297163e+00 3.584303e+00 2.366314e+00 1.703414e-05 7.954865e-05 2.626894e-05
Al -6.306127e+00 3.580554e+00 7.389684e+00 -4.973581e-06 -1.399892e-05 -2.240726e-05
Al -6.305420e+00 3.578832e+00 -2.654044e+00 -6.298339e-05 6.437883e-05 -1.186215e-05
Al -3.158691e+00 -1.856279e+00 2.371125e+00 1.832082e-04 -5.068370e-05 4.063188e-05
Al -3.170217e+00 -1.856223e+00 7.413622e+00 2.261623e-05 2.523793e-05 -5.989387e-05
Al -3.153737e+00 -1.853138e+00 -2.679299e+00 -6.006776e-05 8.497917e-05 4.384935e-08
Al -1.590658e+00 8.726197e-01 2.357354e+00 -8.771600e-05 4.463882e-05 -2.210429e-04
Al -1.595275e+00 8.741649e-01 7.414441e+00 8.756190e-05 -6.739015e-05 -4.996263e-05
Al -1.591724e+00 8.675111e-01 -2.669139e+00 7.525842e-05 -6.431645e-05 3.340588e-05
Al -3.160459e+00 3.584127e+00 2.367405e+00 -7.017213e-06 -1.617540e-04 -1.320396e-04
Al -3.160071e+00 3.580662e+00 7.390026e+00 6.605854e-05 -3.699247e-05 -4.824917e-05
Al -3.151845e+00 3.581019e+00 -2.654379e+00 2.205840e-05 2.181778e-05 -7.750428e-05
Al -1.616904e-02 -1.853544e+00 2.356498e+00 9.872573e-05 5.168979e-05 -9.188204e-05
Al -1.881031e-02 -1.850836e+00 7.404246e+00 7.782764e-05 1.985831e-05 -2.126714e-05
Al -2.140104e-02 -1.840514e+00 -2.654582e+00 -2.496984e-05 1.393849e-05 -6.635316e-05
Al -2.040395e-02 1.778591e+00 4.884151e+00 -1.222644e-04 2.764883e-05 -9.616042e-06
Al -1.868679e-02 1.774502e+00 -5.181035e+00 -1.229014e-04 1.701244e-05 -2.551049e-05
Al -2.236457e-02 1.773191e+00 -1.557985e-01 -3.718212e-04 -4.711419e-05 -2.011444e-04
Al 3.115378e+00 -3.664093e+00 4.883211e+00 -1.617230e-04 8.527831e-05 -1.097794e-04
Al 3.127081e+00 -3.662905e+00 -5.187132e+00 -1.094254e-04 2.224510e-05 -3.846573e-05
Al 3.110860e+00 -3.669297e+00 -1.460910e-01 2.260009e-04 8.959549e-05 -3.730965e-05
Al 1.553482e+00 -9.447508e-01 4.885345e+00 -1.494115e-04 -7.941974e-06 -9.831005e-05
Al 1.554667e+00 -9.356594e-01 -5.182937e+00 -1.773270e-04 7.448818e-05 -3.639506e-05
Al 1.539212e+00 -9.433325e-01 -1.495333e-01 2.088786e-04 1.904824e-04 -9.038358e-05
Al 3.111717e+00 1.771520e+00 4.882918e+00 2.958704e-05 -2.313404e-05 -3.572306e-05
Al 3.112108e+00 1.767492e+00 -5.187638e+00 -6.586254e-05 -1.708967e-05 -1.124701e-04
Al 3.108168e+00 1.778552e+00 -1.432736e-01 3.452519e-04 -3.412421e-04 -8.557087e-04
Al 6.246714e+00 -3.670857e+00 4.885594e+00 7.426258e-06 3.657125e-05 -3.066918e-05
Al 6.247577e+00 -3.664530e+00 -5.183279e+00 -3.371268e-05 -2.656204e-06 -1.659179e-05
Al 6.253616e+00 -3.669825e+00 -1.487771e-01 1.659697e-04 3.380117e-05 -4.527301e-04
Al 4.674971e+00 -9.458314e-01 4.886595e+00 -1.192654e-04 1.046649e-04 1.138413e-04
Al 4.685732e+00 -9.432514e-01 -5.183044e+00 -8.767359e-05 7.433096e-06 -5.251612e-05
Ga 4.680723e+00 -9.457243e-01 -1.476127e-01 7.400828e-05 1.412837e-04 -1.114941e-03
Al -3.165722e+00 1.778959e+00 4.885558e+00 -9.122561e-05 4.266104e-05 -1.695838e-04
Al -3.154286e+00 1.768985e+00 -5.183175e+00 -2.257927e-05 1.004439e-06 -8.145161e-05
Al -3.161696e+00 1.778644e+00 -1.515439e-01 6.163249e-04 -3.111540e-05 6.336158e-04
Al -1.997217e-02 -3.669462e+00 4.883630e+00 1.017545e-05 4.053217e-05 -1.271101e-04
Ga -1.936118e-02 -3.662966e+00 -5.174148e+00 -1.434054e-05 1.611993e-05 6.391061e-06
Al -2.512027e-02 -3.663215e+00 -1.559442e-01 3.109997e-04 1.373700e-04 4.849669e-05
Ga -1.592115e+00 -9.442125e-01 4.890446e+00 -7.698040e-05 3.489964e-05 -4.782637e-05
Al -1.591079e+00 -9.359203e-01 -5.186129e+00 -6.216049e-05 6.553913e-05 -8.668907e-05
Al -1.587157e+00 -9.431173e-01 -1.477188e-01 2.456045e-04 8.562980e-05 -8.961727e-05
N 1.543189e+00 8.661722e-01 4.285750e+00 1.294818e-04 -5.405538e-05 -2.985484e-05
N 1.547301e+00 8.686376e-01 -5.783769e+00 9.759920e-05 -1.108757e-04 5.589338e-05
N 1.546623e+00 8.673096e-01 -7.494232e-01 1.411250e-04 -1.113237e-04 4.714657e-05
N -2.430608e-02 3.582530e+00 4.284651e+00 7.920613e-05 -7.433517e-05 -8.852842e-06
N -1.973209e-02 3.583087e+00 -5.783799e+00 3.997722e-05 -4.753309e-05 3.613428e-05
N -2.550430e-02 3.585565e+00 -7.494795e-01 1.022193e-04 -5.150206e-05 -3.338136e-05
N 3.112250e+00 -1.853121e+00 4.294632e+00 9.057750e-05 -7.479921e-05 -1.326846e-05
N 3.118161e+00 -1.849874e+00 -5.781013e+00 6.400640e-05 -3.281269e-05 1.696407e-05
N 3.071308e+00 -1.876457e+00 -7.686466e-01 1.073762e-04 -1.813808e-04 -6.895143e-05
N -4.731094e+00 8.685357e-01 4.295773e+00 1.480590e-04 7.106380e-06 -1.090800e-05
N -4.726850e+00 8.686240e-01 -5.781413e+00 8.228591e-05 -3.759156e-05 1.145817e-04
N -4.733489e+00 9.145100e-01 -7.683657e-01 -8.435133e-05 5.757450e-04 -1.561188e-04
N -6.300593e+00 3.583804e+00 4.287330e+00 4.084337e-05 -9.776359e-06 1.404166e-05
N -6.336932e+00 3.561556e+00 -5.802417e+00 5.249906e-05 4.124167e-05 1.502486e-05
N -6.304573e+00 3.580877e+00 -7.407648e-01 1.317692e-04 -1.249675e-04 -1.209228e-06
N -3.201296e+00 -1.876920e+00 4.276911e+00 1.494655e-04 -3.817690e-05 -1.500041e-04
N -3.160217e+00 -1.852231e+00 -5.771270e+00 3.356251e-05 9.872432e-06 5.487759e-05
N -3.119923e+00 -1.875293e+00 -7.673976e-01 7.801187e-05 3.615209e-06 6.344754e-05
N -1.593758e+00 9.158021e-01 4.266431e+00 2.958163e-04 -9.260431e-05 1.066083e-04
N -1.588362e+00 8.732749e-01 -5.773842e+00 1.471299e-04 -7.392674e-05 8.372096e-05
N -1.595435e+00 8.671706e-01 -7.480239e-01 2.998530e-04 1.938602e-05 -9.081823e-05
N -3.162417e+00 3.583670e+00 4.286179e+00 1.791353e-04 -3.904332e-05 1.664772e-04
N -3.117454e+00 3.561559e+00 -5.802191e+00 6.297904e-05 -9.785203e-06 3.203111e-05
N -3.159146e+00 3.582920e+00 -7.418920e-01 9.286395e-05 -1.002021e-04 1.366001e-04
N 1.792827e-02 -1.875027e+00 4.267754e+00 1.774511e-04 3.878325e-05 9.827368e-05
N -1.586127e-02 -1.804184e+00 -5.791923e+00 1.379395e-04 -9.328674e-05 5.394179e-05
N -2.467068e-02 -1.845836e+00 -7.398776e-01 1.356675e-04 -6.154262e-05 1.128294e-04
N -1.917252e-02 1.773424e+00 1.762638e+00 1.543922e-04 1.005707e-04 1.752685e-04
N -2.630277e-02 1.770883e+00 6.803371e+00 -9.067125e-05 3.524613e-05 2.244546e-05
N -2.049283e-02 1.773407e+00 -3.261754e+00 -9.476429e-05 4.365076e-05 -1.014270e-05
N 3.118763e+00 -3.661364e+00 1.774459e+00 -3.363073e-04 9.438005e-05 -1.566350e-05
N 3.115534e+00 -3.662675e+00 6.799620e+00 -3.470893e-05 2.246788e-05 4.300240e-05
N 3.117069e+00 -3.664995e+00 -3.270760e+00 -7.261377e-05 3.014657e-05 7.976014e-07
N 1.553431e+00 -9.434882e-01 1.767655e+00 -5.308670e-04 -4.482998e-05 1.653012e-04
N 1.545710e+00 -9.450371e-01 6.801067e+00 -1.238153e-04 6.949576e-05 1.884860e-05
N 1.546437e+00 -9.425387e-01 -3.267331e+00 -1.066515e-04 6.647915e-05 5.114368e-05
N 3.117324e+00 1.771213e+00 1.773717e+00 -3.063077e-04 2.311927e-04 7.136289e-04
N 3.111056e+00 1.768874e+00 6.799024e+00 -3.416886e-05 -7.617616e-06 1.385247e-05
N 3.113275e+00 1.775346e+00 -3.271654e+00 -3.574159e-05 2.536950e-05 7.852929e-05
N 6.254330e+00 -3.663964e+00 1.767147e+00 -2.403819e-04 9.343726e-05 4.771304e-04
N 6.247602e+00 -3.662005e+00 6.801107e+00 1.547202e-05 -8.511444e-06 -8.933240e-06
N 6.254773e+00 -3.665713e+00 -3.267771e+00 4.394676e-05 1.682773e-05 4.852061e-05
N 4.681760e+00 -9.411510e-01 1.825238e+00 6.871461e-04 -9.635033e-04 6.659535e-04
N 4.681841e+00 -9.464472e-01 6.806514e+00 -3.775725e-05 2.215157e-05 1.085369e-04
N 4.685135e+00 -9.437525e-01 -3.263355e+00 -6.584726e-05 4.368127e-05 -3.196631e-05
N -3.162323e+00 1.773125e+00 1.768193e+00 -4.684594e-04 1.270991e-05 -3.246459e-04
N -3.163156e+00 1.768877e+00 6.800868e+00 -2.083190e-05 9.631429e-06 4.172231e-05
N -3.157860e+00 1.776043e+00 -3.267723e+00 -1.195529e-04 -3.834205e-05 1.230251e-04
N -2.087177e-02 -3.664874e+00 1.764994e+00 -3.158068e-04 -3.015543e-05 -6.963524e-05
N -2.546851e-02 -3.662573e+00 6.803403e+00 3.355947e-06 2.008830e-05 2.406397e-05
N -2.141338e-02 -3.661769e+00 -3.198769e+00 -3.794400e-05 -1.903067e-05 8.691473e-05
N -1.590958e+00 -9.447380e-01 1.773562e+00 -4.134763e-04 -7.427716e-05 6.892993e-05
N -1.596515e+00 -9.446236e-01 6.863091e+00 -6.100858e-05 6.073363e-05 3.013954e-05
N -1.587067e+00 -9.424662e-01 -3.268768e+00 -8.883449e-05 -1.187161e-05 5.509057e-05
