108
Energy=-2.130357e+06 Lattice="9.605247e+00 0.000000e+00 0.000000e+00 -4.809461e+00 8.314876e+00 0.000000e+00 -2.171596e-03 1.304984e-03 1.555291e+01" Stress="1.323669e-04 -1.979946e-04 -8.168346e-05 -2.015372e-04 -1.017482e-04 6.276712e-05 -6.856729e-05 7.554887e-05 3.093963e-05" Properties=species:S:1:pos:R:3:forces:R:3 Config_type=AlGaN_super3_37_0_7.xyz
Al 1.576951e+00 8.868352e-01 2.451623e+00 2.700672e-04 -2.365801e-04 1.983132e-04
Al 1.583730e+00 8.944544e-01 7.633768e+00 3.745747e-04 -2.103433e-04 2.404839e-04
Al 1.572807e+00 8.870746e-01 -2.752425e+00 2.126775e-04 -2.666064e-04 4.250215e-04
Al -2.229257e-02 3.662546e+00 2.443652e+00 2.499938e-04 -1.812279e-04 2.014239e-04
Ga -1.483337e-02 3.647981e+00 7.657843e+00 -8.902754e-05 1.118386e-04 5.050039e-04
Ga -2.613670e-02 3.644294e+00 -2.771916e+00 1.793796e-04 9.434081e-05 7.694131e-04
Al 3.200941e+00 -1.879839e+00 2.441349e+00 1.266471e-04 -2.897742e-05 2.289036e-04
Ga 3.186509e+00 -1.875544e+00 7.624832e+00 2.492748e-04 -1.878307e-04 9.021251e-04
Ga 3.179568e+00 -1.892460e+00 -2.735714e+00 2.189554e-04 -3.519939e-04 5.884541e-04
Ga -4.829370e+00 8.680958e-01 2.442996e+00 5.024594e-04 -3.057591e-04 7.319093e-04
Al -4.837261e+00 8.880254e-01 7.601692e+00 3.205572e-04 -1.013899e-04 1.630698e-04
Ga -4.830876e+00 8.875848e-01 -2.717709e+00 4.157859e-04 -3.296500e-04 4.628262e-04
Ga -6.442367e+00 3.658428e+00 2.435294e+00 1.841459e-04 -6.107158e-05 4.476914e-04
Al -6.437953e+00 3.642894e+00 7.638521e+00 1.127824e-04 -7.898107e-05 1.399090e-04
Ga -6.427674e+00 3.650566e+00 -2.739434e+00 -1.723310e-04 1.583702e-04 5.338875e-04
Al -3.252001e+00 -1.888507e+00 2.451412e+00 3.601871e-04 -9.274829e-05 -1.330025e-05
Ga -3.231921e+00 -1.889066e+00 7.621845e+00 1.043200e-04 2.334842e-05 6.074894e-04
Ga -3.226935e+00 -1.893574e+00 -2.736373e+00 1.981544e-04 -3.513572e-04 8.237449e-04
Ga -1.631754e+00 8.999476e-01 2.445569e+00 6.778811e-04 -5.391034e-04 1.530075e-04
Ga -1.631010e+00 8.950982e-01 7.629141e+00 5.317609e-04 -3.324195e-04 2.722728e-04
Ga -1.616796e+00 9.005330e-01 -2.735290e+00 7.670054e-04 -5.389844e-04 1.985622e-04
Ga -3.225706e+00 3.656680e+00 2.440719e+00 8.123495e-05 -5.942347e-04 7.421343e-04
Ga -3.237288e+00 3.646497e+00 7.625812e+00 4.987908e-04 -2.223403e-04 7.327675e-04
Al -3.225358e+00 3.657017e+00 -2.731510e+00 2.414964e-04 -1.132887e-04 3.977284e-04
Ga -1.599208e-02 -1.884916e+00 2.433922e+00 4.182145e-04 -5.104229e-04 2.321362e-04
Ga -2.122931e-02 -1.883517e+00 7.629352e+00 5.071301e-04 -2.353656e-04 2.192384e-04
Ga -8.510365e-03 -1.890480e+00 -2.721607e+00 2.652877e-04 -2.112083e-04 -1.759343e-04
Ga -2.541993e-02 1.811860e+00 5.030523e+00 -3.235122e-04 4.114556e-04 7.379385e-04
Al -1.355456e-02 1.813813e+00 -5.335483e+00 -3.297711e-04 1.241358e-04 1.693914e-04
Ga -1.857699e-02 1.804817e+00 -1.364071e-01 -4.699344e-04 3.960925e-04 -4.111416e-06
Ga 3.189194e+00 -3.733339e+00 5.010730e+00 -1.388378e-04 4.034808e-04 4.706330e-04
Al 3.190298e+00 -3.747559e+00 -5.320030e+00 -2.359642e-04 1.660510e-04 1.446483e-04
Ga 3.175486e+00 -3.740689e+00 -1.355795e-01 -6.023710e-04 4.847535e-04 -5.172703e-04
Ga 1.598770e+00 -9.565338e-01 5.025947e+00 -5.430521e-04 2.675787e-04 4.881296e-04
Ga 1.586208e+00 -9.558490e-01 -5.327933e+00 -6.141338e-04 5.307391e-04 2.659092e-04
Ga 1.595673e+00 -9.611443e-01 -1.351348e-01 -7.907611e-04 3.865089e-04 -3.314687e-05
Ga 3.183580e+00 1.799237e+00 5.054527e+00 -3.295133e-04 -9.283921e-05 3.136308e-04
Ga 3.163336e+00 1.809094e+00 -5.356056e+00 2.175693e-04 1.149516e-04 9.863919e-04
Ga 3.183200e+00 1.798920e+00 -1.460604e-01 -3.055450e-04 2.619887e-04 1.832927e-04
Ga 6.373672e+00 -3.727291e+00 5.026995e+00 -3.169339e-04 6.894614e-05 7.350145e-04
Al 6.378965e+00 -3.745633e+00 -5.343470e+00 1.357570e-04 3.414877e-06 1.796980e-04
Ga 6.381890e+00 -3.726170e+00 -1.271602e-01 -5.766937e-05 2.121393e-04 3.440680e-04
Al 4.783837e+00 -9.558422e-01 5.024074e+00 -3.267781e-04 -1.141454e-04 5.713914e-04
Ga 4.784250e+00 -9.716930e-01 -5.345453e+00 -2.744954e-04 5.143456e-04 6.526898e-04
Al 4.787967e+00 -9.635935e-01 -1.267626e-01 -3.080343e-04 3.063228e-05 7.991621e-04
Al -3.240130e+00 1.800995e+00 5.046567e+00 -1.551855e-04 -1.200583e-04 2.812562e-04
Ga -3.222518e+00 1.816175e+00 -5.330967e+00 -4.160358e-04 -4.270257e-05 9.624160e-04
Al -3.237122e+00 1.816282e+00 -1.633795e-01 -2.675190e-05 1.235485e-04 9.026663e-04
Ga -2.120164e-02 -3.745849e+00 5.051903e+00 -1.980961e-04 3.152346e-04 4.921364e-04
Ga -1.808752e-02 -3.742960e+00 -5.331206e+00 -2.555638e-04 2.506110e-06 4.765802e-04
Al -7.636764e-03 -3.748483e+00 -1.601934e-01 -6.448554e-05 7.221203e-05 8.166848e-04
Ga -1.645073e+00 -9.555790e-01 5.021271e+00 -4.705318e-04 2.777230e-05 2.045889e-04
Ga -1.622932e+00 -9.631200e-01 -5.326329e+00 -5.178161e-04 3.170980e-04 4.089502e-05
Ga -1.636302e+00 -9.656843e-01 -1.331342e-01 -3.852737e-04 4.412015e-04 9.211420e-05
N 1.577675e+00 8.907485e-01 4.361956e+00 5.528021e-04 -9.866002e-05 -4.461755e-04
N 1.533183e+00 9.057351e-01 -6.001858e+00 1.895942e-04 -1.824039e-04 -3.768814e-04
N 1.572897e+00 8.841249e-01 -8.351910e-01 5.770697e-04 -9.245679e-05 -2.285620e-04
N -2.522782e-02 3.653880e+00 4.353859e+00 1.443320e-04 -1.581620e-04 -7.035687e-04
N -2.740459e-02 3.654443e+00 -5.895248e+00 1.058821e-05 -1.925425e-04 -1.983825e-04
N -2.483366e-02 3.654442e+00 -7.886399e-01 1.263137e-04 -5.601559e-05 -5.263922e-04
N 3.226304e+00 -1.859123e+00 4.368932e+00 4.556847e-04 -9.459767e-05 -5.670858e-04
N 3.181566e+00 -1.939256e+00 -5.942619e+00 2.212500e-04 -5.245055e-04 -5.161347e-04
N 3.226233e+00 -1.868441e+00 -7.520941e-01 6.470159e-04 -8.967243e-05 -5.447380e-04
N -4.789797e+00 8.630438e-01 4.438762e+00 3.899641e-04 -4.193015e-05 -4.345930e-04
N -4.824631e+00 8.845398e-01 -6.026030e+00 3.701265e-04 -1.143167e-04 -6.400591e-04
N -4.789425e+00 8.538952e-01 -7.299902e-01 5.110940e-04 -6.603777e-05 -4.242940e-04
N -6.431333e+00 3.652919e+00 4.407792e+00 1.299642e-04 -5.616290e-05 -4.107058e-04
N -6.469243e+00 3.678552e+00 -5.991238e+00 -1.225525e-04 6.809605e-05 -4.128116e-04
N -6.396158e+00 3.678878e+00 -7.533877e-01 1.062806e-04 -4.576229e-05 -3.672281e-04
N -3.274468e+00 -1.863008e+00 4.374015e+00 1.075856e-04 6.601513e-05 -4.458496e-04
N -3.222269e+00 -1.935430e+00 -5.951703e+00 1.654133e-04 -3.700764e-04 -4.343902e-04
N -3.266704e+00 -1.867904e+00 -7.583558e-01 -4.943182e-05 9.979316e-05 -6.441470e-04
N -1.674774e+00 9.198121e-01 4.426536e+00 3.984278e-04 -7.183727e-05 -4.138978e-04
N -1.587343e+00 9.130070e-01 -5.939779e+00 6.680986e-04 -1.453164e-04 -3.801918e-04
N -1.661938e+00 9.116422e-01 -7.519068e-01 1.307999e-04 -1.771515e-04 -2.112174e-04
N -3.235382e+00 3.606055e+00 4.425618e+00 3.413300e-04 -2.244981e-04 -5.446182e-04
N -3.184518e+00 3.678905e+00 -5.950630e+00 4.020692e-04 -6.153586e-05 -5.779440e-04
N -3.263560e+00 3.635555e+00 -7.973043e-01 1.882122e-04 -2.976450e-04 -3.188405e-04
N -2.148718e-02 -1.888780e+00 4.411580e+00 4.222071e-04 -4.166514e-04 -2.103750e-04
N -1.895040e-02 -1.886377e+00 -5.953486e+00 4.481495e-04 -4.474852e-04 -2.539859e-04
N -1.862084e-02 -1.930111e+00 -7.393603e-01 3.797162e-04 -2.426205e-04 1.539480e-04
N 2.037482e-02 1.831790e+00 1.852999e+00 -2.417655e-04 1.575800e-04 1.121661e-05
N 1.857067e-02 1.788432e+00 7.013361e+00 -1.985175e-04 1.582835e-04 -4.313981e-04
N 2.149697e-02 1.776845e+00 -3.412925e+00 -2.937859e-04 1.911638e-04 -4.570800e-04
N 3.220664e+00 -3.711699e+00 1.855629e+00 -1.070729e-04 1.236842e-04 5.835889e-04
N 3.190380e+00 -3.738164e+00 6.990782e+00 -2.616695e-04 2.039443e-04 -5.830284e-04
N 3.138892e+00 -3.761849e+00 -3.393526e+00 -3.478524e-04 2.491641e-04 -3.815240e-04
N 1.628834e+00 -9.355075e-01 1.855672e+00 -4.544528e-04 1.304377e-04 5.920752e-05
N 1.585729e+00 -9.130289e-01 7.012263e+00 -5.494926e-04 5.249372e-04 -4.765382e-04
N 1.585429e+00 -9.184696e-01 -3.346825e+00 -4.258862e-04 4.520460e-04 -2.370772e-04
N 3.135775e+00 1.781464e+00 1.834593e+00 -1.321056e-04 -3.253071e-05 -1.880516e-04
N 3.172259e+00 1.808623e+00 7.055206e+00 -1.297968e-04 1.276730e-05 -1.904870e-04
N 3.141197e+00 1.781592e+00 -3.360641e+00 -1.973206e-04 -2.584314e-05 -8.396179e-04
N 6.339703e+00 -3.706444e+00 1.858381e+00 -5.717369e-05 -2.189653e-04 -3.425405e-04
N 6.418937e+00 -3.761455e+00 7.012328e+00 1.596446e-04 -1.149607e-04 -5.676682e-04
N 6.391440e+00 -3.736396e+00 -3.425480e+00 1.740078e-05 -1.774300e-05 -4.935121e-04
N 4.782583e+00 -1.009451e+00 1.800076e+00 -4.602344e-04 2.211076e-04 -6.763575e-04
N 4.780938e+00 -9.194709e-01 6.954002e+00 -3.764081e-04 3.895177e-04 -5.591626e-04
N 4.783253e+00 -9.597316e-01 -3.374608e+00 -4.549408e-04 2.985371e-04 -6.786929e-04
N -3.232349e+00 1.812079e+00 1.755270e+00 -4.684568e-04 4.116054e-04 -9.716839e-04
N -3.269005e+00 1.785198e+00 6.967573e+00 -5.046086e-04 1.124218e-04 -3.060050e-04
N -3.230881e+00 1.853496e+00 -3.345006e+00 -3.706435e-04 3.860316e-04 -4.243328e-04
N -1.686445e-02 -3.738997e+00 1.759441e+00 -1.916959e-04 2.632068e-04 -8.583739e-04
N -6.553130e-02 -3.760668e+00 7.030041e+00 -3.585842e-04 6.058615e-06 -3.586925e-04
N 2.267962e-02 -3.761377e+00 -3.348307e+00 -3.126559e-05 -3.734652e-05 -3.385418e-04
N -1.671141e+00 -9.853372e-01 1.851475e+00 -2.874588e-04 7.458933e-05 -1.098796e-04
N -1.626708e+00 -9.612348e-01 6.995274e+00 -4.505668e-04 2.263055e-04 -3.521209e-04
N -1.617654e+00 -9.639300e-01 -3.351482e+00 -4.410793e-04 2.750840e-04 -2.376060e-04
