108
Energy=-1306398.268304 Lattice="9.496817 0.000000 0.000000 -4.751695 8.223529 0.000000 -0.003478 0.002291 15.323894" Stress="-0.000005 -0.000001 -0.000001 -0.000001 -0.000005 0.000001 -0.000001 0.000001 -0.000001" Properties=species:S:1:pos:R:3:forces:R:3
Al 1.569658 0.877036 2.430032 -0.000292 0.000596 -0.000143
Al 1.567241 0.872567 7.525701 0.000031 0.000229 -0.000205
Al 1.551279 0.872803 -2.738041 0.000156 0.000081 -0.000080
Al -0.029570 3.623598 2.414452 0.000035 -0.000136 -0.000547
Al -0.018607 3.625120 7.496846 0.000078 -0.000033 -0.000338
Ga -0.021066 3.602227 -2.687841 -0.000161 0.000003 0.000075
Al 3.155152 -1.875801 2.427946 -0.000600 -0.000284 -0.000105
Al 3.154939 -1.854295 7.505688 0.000118 -0.000514 -0.000373
Ga 3.140819 -1.863991 -2.712000 0.000169 -0.000075 0.000022
Al -4.767014 0.880225 2.425095 -0.000037 0.000097 -0.000190
Al -4.785901 0.859916 7.493762 -0.000189 -0.000202 0.000002
Ga -4.773672 0.878144 -2.702114 0.000173 -0.000191 0.000070
Al -6.357962 3.610288 2.436210 0.000347 -0.000009 -0.000502
Ga -6.358545 3.615476 7.497608 -0.000284 0.000220 0.000171
Al -6.342558 3.618882 -2.717901 -0.000083 -0.000037 -0.000156
Al -3.193260 -1.863129 2.427018 0.000116 -0.000400 0.000235
Al -3.209255 -1.866546 7.491855 0.000387 -0.000064 -0.000201
Al -3.173262 -1.860507 -2.699906 0.000001 0.000131 0.000274
Al -1.621514 0.876531 2.401137 0.000083 0.000486 -0.000254
Ga -1.608171 0.878272 7.512253 0.000471 -0.000394 0.000080
Al -1.600586 0.869431 -2.694343 0.000239 -0.000182 0.000234
Al -3.187142 3.609670 2.408498 -0.000100 -0.000038 -0.000391
Ga -3.192204 3.626916 7.485344 -0.000045 0.000035 0.000297
Al -3.203532 3.619805 -2.676678 0.000314 0.000023 0.000013
Ga -0.032417 -1.872723 2.396429 0.000455 -0.000083 -0.000735
Al -0.015052 -1.871372 7.522139 -0.000098 -0.000079 0.000262
Al -0.026762 -1.872909 -2.698951 0.000007 0.000182 0.000155
Ga -0.021348 1.804802 4.945745 -0.000063 -0.000115 0.000119
Al -0.005303 1.781568 -5.259341 -0.000241 0.000214 0.000287
Ga -0.035512 1.774930 -0.123984 -0.000434 0.000144 0.000304
Al 3.148132 -3.690753 4.949653 0.000226 -0.000111 0.000113
Ga 3.144332 -3.689819 -5.270272 -0.000541 0.000030 0.000230
Al 3.124312 -3.703582 -0.121018 0.000061 0.000064 0.000802
Ga 1.578065 -0.959905 4.978769 -0.000459 0.000343 -0.000052
Al 1.563991 -0.947846 -5.276274 -0.000303 0.000027 -0.000257
Ga 1.556447 -0.960499 -0.142341 -0.000421 -0.000001 0.000625
Al 3.154866 1.790729 4.952886 -0.000169 -0.000314 0.000303
Al 3.136421 1.776873 -5.268623 0.000085 0.000195 -0.000126
Ga 3.144804 1.801467 -0.127145 0.000191 -0.000157 0.000318
Al 6.304730 -3.691596 4.947517 0.000075 0.000235 0.000236
Ga 6.313922 -3.694944 -5.260164 0.000079 -0.000115 0.000323
Ga 6.328354 -3.684197 -0.129226 0.000034 -0.000072 -0.000427
Al 4.726271 -0.949879 4.950934 -0.000130 -0.000045 -0.000089
Al 4.720811 -0.947383 -5.284021 -0.000173 0.000189 0.000179
Ga 4.743255 -0.956011 -0.110495 -0.000552 0.000301 0.000862
Al -3.208910 1.794746 4.935054 -0.000227 0.000026 0.000406
Ga -3.205749 1.792292 -5.246221 0.000193 0.000044 0.000534
Al -3.181011 1.801970 -0.136318 0.000012 0.000031 0.000647
Al -0.022111 -3.708760 4.944176 0.000077 0.000224 0.000375
Al -0.017519 -3.688129 -5.237350 0.000068 -0.000453 0.000127
Al -0.014946 -3.703022 -0.150090 -0.000211 0.000241 0.000264
Ga -1.621266 -0.959642 4.970484 -0.000149 -0.000114 0.000320
Ga -1.596251 -0.962300 -5.251541 -0.000290 0.000181 0.000187
Al -1.610868 -0.949328 -0.156587 0.000066 -0.000037 -0.000233
N 1.601206 0.892628 4.327906 0.000545 0.000165 -0.000023
N 1.561241 0.875754 -5.873472 0.000216 -0.000228 0.000143
N 1.560703 0.876862 -0.823709 0.000180 -0.000206 0.000009
N -0.026952 3.667254 4.323765 -0.000339 0.000202 -0.000000
N -0.019881 3.568569 -5.911650 -0.000020 -0.000280 -0.000109
N -0.062128 3.636028 -0.716197 -0.000399 0.000142 0.000082
N 3.184273 -1.890944 4.339326 -0.000015 -0.000169 0.000270
N 3.148051 -1.821136 -5.897476 -0.000200 0.000447 0.000191
N 3.151993 -1.912682 -0.738141 0.000024 -0.000348 -0.000044
N -4.774118 0.874975 4.344365 0.000234 0.000152 0.000049
N -4.813130 0.853499 -5.901772 -0.000183 -0.000159 -0.000217
N -4.735285 0.897031 -0.731300 0.000611 -0.000280 0.000453
N -6.356364 3.615309 4.359773 -0.000340 -0.000096 -0.000376
N -6.307967 3.592914 -5.844406 0.000280 -0.000150 0.000332
N -6.312937 3.635519 -0.804722 0.000330 0.000195 0.000470
N -3.227208 -1.887289 4.337425 -0.000203 -0.000073 -0.000216
N -3.227143 -1.844803 -5.920075 -0.000216 0.000198 -0.000304
N -3.152354 -1.843518 -0.791705 -0.000139 0.000404 0.000041
N -1.652781 0.895218 4.312971 0.000345 -0.000079 0.000226
N -1.571937 0.901514 -5.847220 0.000621 -0.000287 -0.000076
N -1.648360 0.856030 -0.769857 0.000393 -0.000301 -0.000075
N -3.188107 3.619208 4.339040 0.000067 -0.000116 -0.000030
N -3.234931 3.639930 -5.873740 -0.000066 0.000121 0.000094
N -3.190546 3.619046 -0.748032 0.000158 -0.000252 0.000044
N -0.024063 -1.908630 4.358137 0.000331 -0.000522 -0.000096
N 0.019184 -1.898289 -5.881919 0.000406 -0.000061 -0.000166
N -0.061474 -1.892664 -0.767686 -0.000028 -0.000249 -0.000282
N -0.020650 1.781222 1.860978 -0.000050 0.000321 0.000103
N 0.021011 1.811406 6.920064 -0.000096 -0.000041 0.000331
N -0.026797 1.742874 -3.338214 0.000081 -0.000087 -0.000334
N 3.138411 -3.694475 1.804718 -0.000147 -0.000117 -0.000245
N 3.187546 -3.666399 6.874714 -0.000118 0.000423 -0.000684
N 3.104314 -3.723226 -3.303798 -0.000524 0.000020 -0.000015
N 1.604242 -0.931221 1.835133 0.000058 0.000471 -0.000454
N 1.560460 -0.951106 6.961557 0.000073 0.000095 0.000246
N 1.518958 -0.936049 -3.347412 -0.000550 0.000040 -0.000133
N 3.141512 1.790550 1.855643 -0.000201 0.000455 0.000012
N 3.138083 1.740793 6.874332 -0.000010 -0.000523 -0.000199
N 3.102570 1.809644 -3.347971 -0.000178 -0.000115 -0.000133
N 6.316402 -3.690853 1.852831 0.000269 -0.000488 0.001397
N 6.270791 -3.670836 6.869078 -0.000208 0.000304 -0.000071
N 6.348166 -3.668828 -3.282048 0.000379 -0.000010 0.000113
N 4.725546 -0.951264 1.871777 0.000950 0.000254 -0.001768
N 4.723560 -0.949008 6.878028 -0.000137 -0.000081 -0.000032
N 4.772064 -0.975859 -3.366228 -0.000114 -0.000007 -0.000408
N -3.190588 1.793140 1.795072 -0.000189 -0.000255 -0.000197
N -3.236052 1.764495 6.851331 0.000025 0.000044 -0.000624
N -3.149607 1.815608 -3.271586 0.000119 0.000302 0.000177
N -0.027043 -3.751637 1.774814 0.000182 -0.000007 -0.000438
N -0.025555 -3.644928 6.846723 0.000160 0.000303 -0.000817
N -0.015277 -3.692190 -3.310620 0.000365 0.000063 -0.000120
N -1.653134 -0.929847 1.768392 -0.000326 0.000126 -0.000315
N -1.604275 -1.000596 6.942788 -0.000439 0.000003 0.000026
N -1.600234 -0.954449 -3.266318 -0.000062 0.000018 0.000150
