108
Energy=-1352173.732685 Lattice="9.504023 0.000000 0.000000 -4.756848 8.231183 0.000000 0.011514 0.022446 15.332091" Stress="-0.000003 -0.000001 0.000002 -0.000001 -0.000003 0.000005 0.000002 0.000005 -0.000002" Properties=species:S:1:pos:R:3:forces:R:3
Al 1.567609 0.875397 2.395758 -0.000460 0.000140 0.000160
Al 1.579599 0.890273 7.485411 0.000679 -0.000284 0.000836
Al 1.561465 0.875067 -2.671723 0.000194 0.000175 -0.000013
Al -0.013673 3.622863 2.392230 -0.000504 -0.000449 -0.000802
Al -0.013157 3.632863 7.511053 0.000041 0.000778 0.001020
Al -0.030052 3.609110 -2.686249 -0.000086 0.000292 0.000242
Al 3.148431 -1.849649 2.389014 0.000192 -0.000311 -0.000647
Al 3.154628 -1.855737 7.512964 0.000658 0.000503 0.001078
Ga 3.145856 -1.877712 -2.690732 -0.000095 -0.000082 0.001096
Al -4.789046 0.869138 2.388645 -0.000560 0.000631 0.000362
Al -4.790320 0.881047 7.499466 0.000661 0.000546 0.000080
Al -4.779980 0.876819 -2.674357 0.000887 0.000088 0.000136
Ga -6.378510 3.608558 2.405025 0.000223 0.000268 -0.000010
Al -6.368180 3.615240 7.493904 0.000120 0.000056 0.000190
Al -6.375305 3.598939 -2.677768 0.000066 -0.000023 0.000211
Ga -3.213950 -1.871528 2.405206 0.000294 0.000067 0.000503
Al -3.201669 -1.867875 7.501848 0.000684 0.000433 0.000027
Al -3.195830 -1.873702 -2.685451 0.000314 -0.000095 0.000077
Ga -1.594504 0.899112 2.395637 0.000388 -0.000045 -0.000331
Ga -1.597288 0.897127 7.523650 0.000244 -0.000267 0.000111
Al -1.615061 0.874771 -2.687613 0.000063 0.000351 -0.000207
Ga -3.178995 3.626716 2.384541 -0.000025 -0.000016 -0.000109
Al -3.181028 3.633823 7.530506 -0.000035 -0.000089 0.000264
Al -3.181240 3.600666 -2.685407 0.000206 -0.000081 0.000215
Al 0.005151 -1.849813 2.410259 0.000070 -0.000095 -0.000039
Ga -0.001883 -1.853702 7.539757 -0.000107 0.000110 0.000031
Ga -0.025961 -1.861708 -2.712596 0.000264 0.000064 -0.000241
Al 0.012284 1.809840 4.952572 0.000133 -0.000227 0.001008
Ga -0.018001 1.772591 -5.237218 -0.000357 0.000150 -0.000103
Al -0.013420 1.799567 -0.163133 -0.000104 -0.000023 -0.000681
Ga 3.177925 -3.674316 4.962563 -0.000311 -0.000295 0.000356
Al 3.140909 -3.704755 -5.265711 0.000220 0.000215 -0.000111
Al 3.164918 -3.700686 -0.142853 -0.000007 0.000291 -0.000307
Al 1.587232 -0.926786 4.943943 -0.000904 -0.000054 -0.000012
Al 1.564835 -0.958306 -5.264711 0.000123 0.000079 -0.000294
Al 1.575848 -0.941445 -0.124051 -0.000153 0.000138 0.000460
Al 3.134772 1.782528 4.955819 0.000452 -0.000122 0.000051
Ga 3.127990 1.767638 -5.251388 0.000105 -0.000068 0.000715
Al 3.137861 1.772444 -0.152706 0.000207 0.000056 -0.000332
Al 6.305968 -3.701625 4.978379 0.000160 0.000983 0.000258
Ga 6.305077 -3.700713 -5.253643 0.000204 -0.000291 0.000325
Al 6.294973 -3.709071 -0.169541 -0.000049 0.000158 -0.000166
Al 4.713485 -0.942653 4.964760 0.001577 0.000495 0.000119
Ga 4.725021 -0.969996 -5.261874 -0.000464 0.000169 0.000464
Al 4.721512 -0.948617 -0.152804 -0.000744 0.000142 0.000501
Ga -3.202666 1.791043 4.973988 -0.000327 -0.000348 0.000309
Ga -3.199257 1.782173 -5.238243 -0.000075 0.000147 0.000476
Al -3.196696 1.782941 -0.173512 -0.000166 0.000341 0.000327
Ga -0.024051 -3.684108 4.975341 0.000216 0.000296 0.000089
Ga -0.020527 -3.709083 -5.245784 0.000095 -0.000143 -0.000209
Ga -0.018179 -3.707888 -0.160075 -0.000013 0.000147 0.001192
Ga -1.596445 -0.949205 4.954832 -0.000537 0.000063 0.000085
Al -1.616976 -0.964958 -5.239681 -0.000247 -0.000068 -0.000085
Ga -1.614818 -0.948993 -0.147978 0.000297 0.000431 0.001075
N 1.566114 0.886004 4.329093 -0.000048 -0.000239 -0.000242
N 1.553474 0.818744 -5.928983 0.000126 0.000118 -0.000214
N 1.560550 0.865266 -0.752486 -0.000011 0.000098 -0.000257
N 0.024267 3.606526 4.314764 -0.000116 -0.000384 0.000210
N -0.067415 3.625143 -5.901906 -0.000152 0.000164 -0.000678
N -0.032088 3.617875 -0.769710 -0.000177 0.000085 -0.000656
N 3.155876 -1.812270 4.313784 -0.000897 -0.000017 -0.000189
N 3.101215 -1.901836 -5.889055 -0.000173 -0.000101 -0.000624
N 3.138945 -1.870815 -0.704647 0.000405 -0.000382 -0.000294
N -4.814359 0.857745 4.318425 -0.000422 0.000089 0.000332
N -4.786796 0.865184 -5.925401 0.000297 -0.000190 -0.000381
N -4.781153 0.871735 -0.760523 -0.000039 0.000203 0.000251
N -6.404380 3.601482 4.388613 -0.000004 -0.000202 -0.000015
N -6.371441 3.601500 -5.924334 -0.000227 0.000182 -0.000594
N -6.407075 3.586081 -0.765482 -0.000179 0.000074 -0.000011
N -3.237007 -1.887495 4.385855 -0.000135 -0.000619 0.000293
N -3.155485 -1.857951 -5.912939 0.000045 0.000191 -0.000307
N -3.235910 -1.890863 -0.770931 0.000284 -0.000620 -0.000006
N -1.559170 0.920509 4.368231 0.000342 -0.000109 -0.000136
N -1.611053 0.822417 -5.838101 0.000503 -0.000066 -0.000132
N -1.604631 0.919414 -0.771736 0.000201 0.000054 -0.000029
N -3.182107 3.630072 4.344460 0.000332 0.000042 -0.000094
N -3.157527 3.630083 -5.892608 0.000089 -0.000160 -0.000372
N -3.142242 3.597480 -0.768630 0.000181 0.000099 -0.000123
N 0.034140 -1.834214 4.320026 0.000396 -0.000083 -0.000105
N -0.026506 -1.829291 -5.811768 -0.000121 0.000011 0.000112
N 0.024047 -1.838420 -0.748477 0.000321 0.000077 -0.000150
N 0.026541 1.822363 1.756872 0.000408 -0.000428 0.000787
N 0.030441 1.829976 6.879570 -0.000660 -0.000242 -0.001485
N -0.019310 1.782816 -3.249137 0.000191 -0.000314 0.000094
N 3.200541 -3.668310 1.774153 -0.000045 0.000498 0.000813
N 3.157988 -3.682948 6.948023 0.000046 -0.000650 -0.000332
N 3.148073 -3.750632 -3.338853 -0.000075 -0.000158 0.000104
N 1.567329 -0.943877 1.797225 -0.000150 0.000172 -0.000390
N 1.614406 -0.922030 6.869761 -0.000496 0.000270 -0.000840
N 1.571019 -0.903437 -3.356554 -0.000176 0.000424 0.000255
N 3.144037 1.743949 1.765655 -0.000031 -0.000077 0.000248
N 3.148788 1.796177 6.880167 0.000158 -0.000198 -0.000410
N 3.141503 1.779697 -3.259460 -0.001182 -0.000122 -0.000298
N 6.275446 -3.715946 1.738758 0.000497 0.000240 -0.000220
N 6.314467 -3.689680 6.901689 -0.000019 -0.000052 -0.000185
N 6.312064 -3.704112 -3.261475 -0.000293 0.000019 0.000030
N 4.692236 -0.920244 1.763820 -0.000277 -0.001285 -0.000779
N 4.728112 -0.944423 6.897377 -0.000068 -0.000078 -0.000430
N 4.767181 -0.933210 -3.278642 -0.000207 0.000050 -0.000585
N -3.236708 1.766705 1.742680 0.000251 -0.000005 0.000122
N -3.229734 1.825375 6.944586 -0.000706 -0.000323 -0.000070
N -3.200575 1.783078 -3.251792 -0.000049 -0.000211 -0.000015
N -0.025800 -3.646243 1.813319 -0.000187 -0.000310 -0.001355
N -0.012908 -3.728476 6.950834 -0.000175 -0.000186 -0.000017
N -0.024414 -3.760680 -3.262672 0.000117 0.000063 0.000115
N -1.567626 -0.971829 1.824874 -0.000481 -0.000518 -0.000830
N -1.634023 -0.967568 6.917692 -0.000804 -0.000269 0.000264
N -1.659857 -0.935699 -3.318918 -0.000112 0.000047 0.000068
