108
Energy=-1.123296e+06 Lattice="9.476240e+00 0.000000e+00 0.000000e+00 -4.738470e+00 8.204490e+00 0.000000e+00 -1.172332e-03 -2.100265e-02 1.527277e+01" Stress="3.203635e-05 -2.674503e-05 -5.458839e-05 -2.707747e-05 -2.896531e-04 -9.059748e-04 -6.072600e-05 -9.101872e-04 3.078736e-04" Properties=species:S:1:pos:R:3:forces:R:3 Config_type=AlGaN_super3_15_1_63.xyz
Al 1.554692e+00 8.697212e-01 2.398359e+00 3.489270e-06 3.806146e-05 -2.744542e-06
Al 1.554206e+00 8.649054e-01 7.461326e+00 1.862030e-05 -1.227949e-05 6.203331e-05
Al 1.559601e+00 8.753180e-01 -2.669622e+00 -2.122436e-05 8.023702e-06 6.716686e-06
Al -3.849247e-02 3.600338e+00 2.385698e+00 -3.377605e-05 -1.263047e-05 -2.989342e-05
Al -2.203976e-02 3.587437e+00 7.470957e+00 5.448958e-05 1.508891e-05 7.073641e-05
Al -1.631610e-02 3.613773e+00 -2.664098e+00 2.347658e-05 -4.506187e-05 2.931381e-05
Al 3.129842e+00 -1.876478e+00 2.379508e+00 -1.527331e-05 -7.470148e-06 2.778857e-05
Al 3.131844e+00 -1.868648e+00 7.496945e+00 9.106198e-06 2.915861e-05 -3.586715e-05
Ga 3.137854e+00 -1.848968e+00 -2.682303e+00 7.341325e-06 -1.025662e-05 -8.507325e-06
Al -4.766375e+00 8.708502e-01 2.414726e+00 -8.785603e-05 -8.302604e-05 -1.674367e-05
Al -4.762224e+00 8.658203e-01 7.479728e+00 7.674954e-06 4.104798e-05 4.783877e-05
Al -4.756572e+00 8.767183e-01 -2.698448e+00 -1.495786e-05 -2.539968e-05 -7.234499e-05
Ga -6.334660e+00 3.596730e+00 2.384550e+00 4.202666e-06 -3.612082e-05 -3.748485e-06
Al -6.339466e+00 3.592737e+00 7.484408e+00 4.245448e-05 -2.874066e-05 4.135144e-05
Ga -6.345783e+00 3.611974e+00 -2.673487e+00 -2.019624e-05 -1.831799e-05 -1.513103e-05
Al -3.175652e+00 -1.858461e+00 2.400605e+00 -1.690646e-05 -4.184335e-05 3.586174e-05
Ga -3.176495e+00 -1.869640e+00 7.501200e+00 -1.713265e-05 -1.735062e-05 4.428537e-06
Al -3.184659e+00 -1.859128e+00 -2.707346e+00 4.413018e-05 -1.459227e-05 -3.951529e-05
Al -1.593457e+00 8.641548e-01 2.401265e+00 2.058945e-05 -2.358274e-05 4.043703e-06
Al -1.597885e+00 8.614426e-01 7.467899e+00 -2.402067e-05 2.985172e-05 -5.153066e-05
Ga -1.608245e+00 8.803651e-01 -2.679832e+00 4.102351e-06 -1.695347e-05 -2.605383e-05
Al -3.170744e+00 3.612364e+00 2.421888e+00 -4.226489e-05 -6.277516e-05 -5.472434e-05
Ga -3.184501e+00 3.592074e+00 7.464595e+00 -2.062470e-05 -1.969098e-05 -1.429011e-05
Al -3.184753e+00 3.603779e+00 -2.693820e+00 -6.958214e-06 -3.393466e-05 2.558324e-05
Al -2.430901e-02 -1.861472e+00 2.388398e+00 -2.104924e-05 -9.935244e-07 -9.901538e-05
Al -2.370476e-02 -1.867739e+00 7.488838e+00 2.295082e-05 -5.705226e-05 6.324648e-05
Ga -2.013337e-02 -1.853118e+00 -2.682963e+00 -1.440428e-05 7.854703e-07 3.638902e-06
Al -3.339119e-02 1.777541e+00 4.931321e+00 -7.838844e-06 -3.398839e-05 -1.391919e-06
Ga -2.181177e-02 1.786672e+00 -5.244860e+00 1.176323e-05 -1.510868e-05 -2.021387e-06
Al -7.659333e-03 1.786238e+00 -1.315876e-01 2.242679e-05 -2.302109e-05 -1.283479e-05
Al 3.132994e+00 -3.702903e+00 4.933161e+00 -1.718105e-05 3.211908e-06 1.257012e-05
Ga 3.139120e+00 -3.676257e+00 -5.234947e+00 3.570120e-06 -2.846009e-05 -4.925104e-06
Al 3.131035e+00 -3.695147e+00 -1.393662e-01 -1.879067e-05 -4.997207e-05 -7.922497e-06
Ga 1.546141e+00 -9.629659e-01 4.933695e+00 1.916043e-05 1.358851e-06 2.017781e-06
Al 1.550613e+00 -9.429120e-01 -5.265949e+00 -2.781666e-05 1.760451e-05 -3.189611e-05
Al 1.544401e+00 -9.404773e-01 -1.120506e-01 -1.368252e-05 -2.954410e-05 -4.983467e-05
Al 3.140632e+00 1.780696e+00 4.955519e+00 -1.929177e-05 -4.704586e-05 -6.209772e-05
Ga 3.142880e+00 1.787763e+00 -5.249091e+00 2.639425e-07 8.848083e-07 -2.102188e-05
Al 3.123950e+00 1.777377e+00 -1.469081e-01 4.539846e-05 -7.844782e-05 9.638881e-07
Ga 6.293529e+00 -3.703821e+00 4.936900e+00 3.645707e-06 -7.412215e-06 -2.351782e-05
Al 6.298219e+00 -3.670766e+00 -5.240496e+00 8.737615e-05 3.096061e-05 5.379671e-05
Al 6.289483e+00 -3.682619e+00 -1.373982e-01 -2.727644e-06 7.053106e-06 1.107650e-05
Ga 4.712047e+00 -9.509803e-01 4.932060e+00 1.046613e-05 -1.420231e-05 -1.290603e-05
Al 4.723745e+00 -9.363227e-01 -5.240635e+00 4.399657e-05 -4.858820e-06 3.252215e-05
Ga 4.722427e+00 -9.519837e-01 -1.289624e-01 -1.083722e-05 -7.729943e-06 -1.194037e-05
Al -3.175604e+00 1.777290e+00 4.917930e+00 -2.396820e-06 -1.616349e-05 -3.231113e-06
Al -3.186622e+00 1.780300e+00 -5.244293e+00 3.940276e-06 -6.279633e-05 6.212856e-05
Ga -3.184628e+00 1.799302e+00 -1.180982e-01 9.604913e-06 4.458435e-06 -2.470060e-05
Al -1.970928e-02 -3.690614e+00 4.937960e+00 -4.955732e-07 5.347299e-06 2.176203e-05
Al -2.818710e-02 -3.668532e+00 -5.251292e+00 -8.737938e-05 -1.831914e-05 -8.401542e-05
Al -1.283031e-02 -3.678517e+00 -1.301917e-01 2.063892e-05 2.387460e-05 -1.557527e-05
Al -1.589735e+00 -9.495296e-01 4.933310e+00 -1.104578e-04 2.275007e-05 -4.226309e-05
Al -1.601563e+00 -9.473892e-01 -5.252264e+00 1.199251e-05 -2.289312e-05 5.102078e-05
Al -1.596700e+00 -9.623950e-01 -1.251194e-01 4.392492e-05 -3.021586e-05 -4.726475e-05
N 1.558907e+00 9.171376e-01 4.320479e+00 2.228552e-05 1.047740e-05 3.839229e-05
N 1.556298e+00 8.397155e-01 -5.907501e+00 -4.156152e-06 -3.780882e-06 -7.207710e-05
N 1.553424e+00 8.666875e-01 -7.467993e-01 2.082783e-05 -1.765414e-06 2.293660e-05
N -6.788124e-02 3.574665e+00 4.302250e+00 3.332144e-05 -1.773174e-05 1.632432e-05
N 1.735864e-02 3.636577e+00 -5.894787e+00 -8.913702e-05 -2.835483e-05 -7.740628e-05
N -2.128406e-02 3.608005e+00 -7.404644e-01 -4.161343e-06 8.772131e-06 1.732366e-05
N 3.131262e+00 -1.920842e+00 4.285867e+00 -5.355854e-06 2.161097e-05 -2.919567e-05
N 3.139741e+00 -1.809986e+00 -5.857830e+00 1.380755e-05 2.289555e-06 3.017429e-05
N 3.090220e+00 -1.879527e+00 -7.027113e-01 2.307468e-05 3.282045e-05 1.984368e-06
N -4.768720e+00 9.171318e-01 4.320201e+00 -7.671551e-06 4.333611e-05 6.919096e-05
N -4.717628e+00 8.586195e-01 -5.877636e+00 -2.121140e-05 2.511221e-05 -6.847254e-05
N -4.794881e+00 8.965413e-01 -7.897293e-01 -2.211325e-05 2.554518e-05 9.173605e-05
N -6.297175e+00 3.573323e+00 4.356007e+00 -3.930123e-06 2.319209e-05 4.750310e-05
N -6.340454e+00 3.662253e+00 -5.866971e+00 4.364294e-05 4.217576e-05 7.474928e-05
N -6.339237e+00 3.612027e+00 -6.848275e-01 -4.196433e-06 6.160419e-05 -8.718166e-06
N -3.136615e+00 -1.846375e+00 4.305939e+00 3.233733e-05 2.207040e-05 1.786096e-06
N -3.180380e+00 -1.854029e+00 -5.796382e+00 6.733346e-06 8.468475e-06 -1.340189e-05
N -3.137441e+00 -1.883700e+00 -7.813207e-01 9.326438e-06 -3.591419e-06 6.080129e-05
N -1.596071e+00 8.621504e-01 4.323668e+00 -7.609467e-06 1.117611e-05 9.791498e-06
N -1.641990e+00 8.587546e-01 -5.878006e+00 -6.280133e-05 5.190602e-05 3.085322e-05
N -1.563773e+00 8.490952e-01 -7.027605e-01 -1.713737e-05 -3.745072e-06 -2.063462e-06
N -3.181753e+00 3.605878e+00 4.345255e+00 -2.038224e-05 1.024899e-08 8.166710e-06
N -3.221724e+00 3.589046e+00 -5.831734e+00 2.633773e-05 2.288108e-05 -1.837209e-05
N -3.185673e+00 3.652540e+00 -7.773056e-01 3.575462e-05 4.749788e-07 3.879614e-05
N -6.588879e-02 -1.894191e+00 4.301139e+00 6.156431e-05 -4.211674e-05 7.978342e-05
N -2.486892e-02 -1.854648e+00 -5.859552e+00 7.171686e-06 -1.072705e-05 8.582327e-06
N -2.041345e-02 -1.858538e+00 -6.978526e-01 -6.797013e-05 1.076599e-05 9.173900e-06
N -1.902020e-02 1.779702e+00 1.789529e+00 -1.240438e-05 3.210266e-05 2.656619e-05
N -2.678289e-02 1.774072e+00 6.858794e+00 -6.309526e-07 2.884877e-05 9.174636e-06
N 2.101019e-02 1.814026e+00 -3.262886e+00 1.631256e-05 6.060397e-07 -5.594056e-06
N 3.130850e+00 -3.698003e+00 1.779900e+00 -2.350770e-05 -1.661733e-06 1.487231e-05
N 3.178653e+00 -3.667916e+00 6.853446e+00 8.234864e-06 -2.559500e-05 9.476436e-06
N 3.141324e+00 -3.729130e+00 -3.259196e+00 -9.709922e-06 5.660604e-05 -2.135857e-05
N 1.552578e+00 -9.470146e-01 1.805392e+00 6.077584e-06 1.644169e-05 9.835334e-06
N 1.555497e+00 -9.664704e-01 6.915973e+00 -2.473079e-05 4.358375e-05 -2.069748e-05
N 1.554618e+00 -8.942450e-01 -3.348755e+00 1.655038e-05 -2.224586e-05 3.515446e-05
N 3.135897e+00 1.724812e+00 1.762426e+00 1.192393e-05 -3.608630e-05 -2.024043e-05
N 3.138981e+00 1.774743e+00 6.879297e+00 -3.669351e-06 1.998217e-05 2.481891e-07
N 3.132452e+00 1.742707e+00 -3.269683e+00 9.978323e-06 1.692054e-05 9.528380e-06
N 6.248981e+00 -3.662485e+00 1.778335e+00 4.541082e-05 4.922848e-05 2.328545e-07
N 6.294940e+00 -3.740795e+00 6.904084e+00 -9.422471e-05 3.504816e-05 -3.397902e-05
N 6.251159e+00 -3.663947e+00 -3.316342e+00 2.375735e-05 5.962811e-06 -2.057139e-05
N 4.719163e+00 -9.504912e-01 1.849560e+00 2.674124e-05 9.526738e-05 -7.145605e-06
N 4.673519e+00 -9.397354e-01 6.904603e+00 -3.770618e-06 -2.168448e-05 1.495905e-05
N 4.753965e+00 -9.206792e-01 -3.318150e+00 -5.765254e-05 2.031078e-05 -2.024634e-07
N -3.182815e+00 1.784938e+00 1.862768e+00 3.031561e-05 1.363869e-04 2.110719e-05
N -3.180364e+00 1.721970e+00 6.835608e+00 4.285926e-05 -1.429103e-06 -8.860389e-06
N -3.220175e+00 1.810039e+00 -3.322656e+00 2.859079e-05 -1.208883e-05 -3.491174e-05
N 2.911216e-02 -3.668075e+00 1.778816e+00 5.703256e-05 -4.252117e-05 1.803246e-05
N -6.511024e-02 -3.666087e+00 6.854127e+00 1.710857e-05 4.222223e-05 -6.578959e-05
N 1.332779e-02 -3.700414e+00 -3.337726e+00 6.030598e-06 4.321513e-07 2.134261e-05
N -1.604713e+00 -9.544909e-01 1.790100e+00 -1.076033e-05 7.282838e-06 -6.723676e-06
N -1.558530e+00 -9.388201e-01 6.852481e+00 -3.196941e-05 2.085697e-05 -2.165611e-05
N -1.636705e+00 -9.658681e-01 -3.342224e+00 2.498153e-06 1.076077e-06 -3.211127e-05
