108
Energy=-2.542337e+06 Lattice="9.660368e+00 0.000000e+00 0.000000e+00 -4.834143e+00 8.360059e+00 0.000000e+00 -7.581309e-03 1.313501e-02 1.567129e+01" Stress="5.714203e-04 -1.757234e-04 -2.557331e-04 -1.812989e-04 1.417411e-04 7.225331e-04 -2.695836e-04 7.271996e-04 2.305516e-04" Properties=species:S:1:pos:R:3:forces:R:3 Config_type=AlGaN_super3_46_0_10.xyz
Al 1.581665e+00 8.963341e-01 2.459399e+00 2.021825e-04 -5.624397e-04 1.188462e-04
Al 1.581880e+00 8.964728e-01 7.686209e+00 1.553732e-04 -1.171361e-05 3.264237e-05
Ga 1.596446e+00 8.846278e-01 -2.752356e+00 2.515160e-04 2.519324e-04 1.345707e-04
Al -2.123309e-02 3.667042e+00 2.465347e+00 9.578899e-05 -7.305846e-04 6.982688e-05
Ga -2.364929e-02 3.669616e+00 7.684499e+00 4.690977e-05 -1.874482e-05 6.450816e-05
Ga -2.287090e-02 3.668416e+00 -2.753097e+00 1.198439e-04 1.507462e-04 7.318393e-05
Ga 3.200865e+00 -1.893283e+00 2.473647e+00 8.662024e-05 -7.392691e-04 5.343764e-07
Ga 3.204665e+00 -1.876237e+00 7.684470e+00 1.255523e-04 -4.786755e-05 9.921045e-05
Ga 3.208137e+00 -1.890550e+00 -2.764831e+00 1.241549e-04 1.487788e-04 8.638623e-05
Ga -4.860192e+00 8.881275e-01 2.465765e+00 4.033320e-05 -3.536260e-04 1.895064e-04
Ga -4.868301e+00 8.812470e-01 7.685813e+00 2.395134e-04 5.193437e-05 2.600420e-04
Al -4.849487e+00 8.805868e-01 -2.760683e+00 2.129956e-04 1.951723e-04 3.625375e-04
Ga -6.481121e+00 3.664088e+00 2.464003e+00 3.146364e-05 -6.939774e-04 -9.253365e-05
Ga -6.474163e+00 3.672457e+00 7.685444e+00 1.085345e-04 -1.892595e-05 -5.319510e-05
Ga -6.460741e+00 3.660425e+00 -2.752575e+00 4.338825e-05 9.633947e-05 1.051442e-04
Ga -3.246531e+00 -1.897735e+00 2.460204e+00 -2.335643e-05 -5.281157e-04 -1.393378e-04
Ga -3.260578e+00 -1.883045e+00 7.690560e+00 9.746459e-05 -5.052588e-05 9.567322e-05
Ga -3.246339e+00 -1.888859e+00 -2.755818e+00 1.952866e-04 3.745786e-05 4.140061e-04
Ga -1.632446e+00 8.959536e-01 2.438867e+00 2.820688e-04 -7.590376e-04 2.779710e-04
Ga -1.627036e+00 8.993692e-01 7.685157e+00 1.394478e-04 -6.416295e-05 6.712904e-05
Ga -1.643674e+00 8.841833e-01 -2.730516e+00 1.218989e-04 -7.900106e-05 -1.265168e-04
Ga -3.238731e+00 3.668099e+00 2.449329e+00 4.029320e-05 -1.096988e-03 2.033542e-04
Ga -3.248438e+00 3.682206e+00 7.691195e+00 3.450842e-05 -2.190755e-04 4.553673e-05
Ga -3.245620e+00 3.659083e+00 -2.737859e+00 6.981969e-05 -1.514539e-04 -4.423177e-04
Ga -2.630905e-02 -1.882959e+00 2.457738e+00 2.399196e-04 -7.451428e-04 9.543564e-05
Ga -2.037067e-02 -1.881905e+00 7.685244e+00 9.866272e-05 -2.092585e-04 -9.928689e-05
Ga -2.152459e-02 -1.894838e+00 -2.742951e+00 3.271242e-05 -8.438336e-05 1.594823e-04
Ga -1.684049e-02 1.820542e+00 5.055433e+00 3.473841e-05 3.095492e-04 1.234968e-04
Ga -1.687250e-02 1.805806e+00 -5.372832e+00 5.316109e-06 2.744776e-04 5.341587e-05
Ga -3.251983e-02 1.817861e+00 -1.233792e-01 2.636607e-04 -9.175490e-04 1.278712e-05
Ga 3.206400e+00 -3.747022e+00 5.063724e+00 2.686261e-05 2.807807e-04 6.460062e-05
Ga 3.206179e+00 -3.752909e+00 -5.368895e+00 6.066132e-05 2.861814e-04 -1.155897e-04
Ga 3.199703e+00 -3.758981e+00 -1.323769e-01 3.208900e-04 -8.418760e-04 -4.308975e-05
Ga 1.595509e+00 -9.510041e-01 5.074853e+00 4.368250e-05 2.047792e-04 7.411779e-05
Ga 1.601306e+00 -9.674107e-01 -5.381763e+00 -1.029183e-04 9.895792e-05 8.229089e-05
Ga 1.582546e+00 -9.595154e-01 -1.311861e-01 -4.502681e-06 -1.138489e-03 -1.550904e-05
Ga 3.188130e+00 1.806368e+00 5.074909e+00 -1.021309e-04 7.717265e-05 1.094705e-04
Ga 3.202085e+00 1.796134e+00 -5.372105e+00 1.140741e-05 7.036644e-05 1.103813e-04
Ga 3.211270e+00 1.814698e+00 -1.450525e-01 -2.929311e-05 -1.040826e-03 -2.660123e-05
Ga 6.404885e+00 -3.741715e+00 5.064411e+00 1.154498e-05 -1.172399e-04 6.187228e-05
Ga 6.416373e+00 -3.750374e+00 -5.370818e+00 6.201259e-05 4.678392e-05 -3.722082e-05
Ga 6.419114e+00 -3.742817e+00 -1.325970e-01 -2.732567e-05 -8.255070e-04 -1.846733e-04
Al 4.807001e+00 -9.622992e-01 5.068835e+00 -1.134145e-04 -8.752222e-05 2.513758e-05
Al 4.811107e+00 -9.670910e-01 -5.354530e+00 -6.674020e-05 6.833659e-05 1.344423e-04
Ga 4.822454e+00 -9.471970e-01 -1.579907e-01 -1.173663e-04 -1.178242e-03 1.282423e-04
Ga -3.253612e+00 1.814223e+00 5.074138e+00 1.054644e-04 1.958971e-04 7.444891e-05
Ga -3.250304e+00 1.800718e+00 -5.358271e+00 1.922399e-06 7.450080e-05 1.033093e-04
Al -3.248353e+00 1.806366e+00 -1.588761e-01 -3.113038e-04 -9.928487e-04 1.469335e-04
Ga -2.346644e-02 -3.749788e+00 5.070823e+00 9.983885e-05 -7.438761e-05 -4.443355e-05
Ga -1.728822e-02 -3.759263e+00 -5.359941e+00 5.186384e-06 1.416834e-04 2.849175e-05
Ga -1.890392e-02 -3.748841e+00 -1.440267e-01 -2.578707e-04 -8.413893e-04 -1.295873e-04
Ga -1.648140e+00 -9.617793e-01 5.074622e+00 -1.092601e-04 -2.298085e-05 3.645013e-05
Ga -1.639827e+00 -9.716058e-01 -5.369189e+00 -3.436086e-05 1.936227e-05 1.223632e-04
Al -1.637214e+00 -9.574932e-01 -1.449345e-01 -1.099255e-04 -9.111585e-04 -8.146043e-05
N 1.585070e+00 8.937945e-01 4.374623e+00 2.067889e-04 -1.574482e-04 1.855406e-04
N 1.588589e+00 8.862744e-01 -6.063665e+00 2.176672e-04 4.651587e-05 3.075902e-04
N 1.584990e+00 8.929942e-01 -7.776015e-01 1.841181e-04 8.524868e-04 4.819053e-07
N -2.738111e-02 3.678880e+00 4.384050e+00 8.934529e-05 -2.300905e-04 2.337175e-04
N -2.230927e-02 3.668074e+00 -6.008185e+00 7.600328e-05 -1.393048e-04 4.645596e-05
N -2.317462e-02 3.674207e+00 -7.775818e-01 7.420030e-05 6.241520e-04 1.261270e-05
N 3.237495e+00 -1.864975e+00 4.459671e+00 -1.344277e-04 -4.922779e-04 -1.544703e-04
N 3.251579e+00 -1.873742e+00 -5.991278e+00 -1.139478e-04 -2.821305e-04 -1.338077e-04
N 3.198814e+00 -1.895666e+00 -7.799931e-01 2.067634e-04 7.564905e-04 -4.898829e-05
N -4.857301e+00 8.469460e-01 4.452720e+00 4.229737e-05 1.459668e-04 -1.382618e-04
N -4.851154e+00 8.297714e-01 -5.996969e+00 4.401752e-05 2.541478e-04 -3.003728e-04
N -4.813200e+00 9.141795e-01 -8.309592e-01 -2.456097e-05 4.959670e-04 -5.848269e-05
N -6.470246e+00 3.676595e+00 4.444200e+00 -1.138604e-04 -1.849061e-04 -6.869578e-05
N -6.462562e+00 3.668286e+00 -6.001572e+00 -8.782197e-05 -1.538300e-04 -1.818877e-05
N -6.466867e+00 3.676219e+00 -7.734395e-01 4.206545e-05 5.424409e-04 -9.622349e-05
N -3.287384e+00 -1.864253e+00 4.445670e+00 2.874355e-04 -2.647226e-04 -1.319296e-04
N -3.289466e+00 -1.872546e+00 -5.988687e+00 2.597504e-04 -2.372696e-04 -1.874360e-04
N -3.199454e+00 -1.871385e+00 -7.677480e-01 -1.376741e-04 3.143614e-04 -2.319245e-04
N -1.639596e+00 8.956295e-01 4.423846e+00 -4.351932e-05 -2.265796e-04 -1.733698e-04
N -1.632962e+00 8.876793e-01 -6.007175e+00 -3.999365e-05 -1.207513e-04 -1.406018e-04
N -1.672495e+00 8.674073e-01 -7.333852e-01 4.411334e-05 6.330691e-04 -2.650407e-04
N -3.246210e+00 3.677744e+00 4.430972e+00 -1.480978e-04 -4.271111e-04 -1.899105e-04
N -3.241601e+00 3.668557e+00 -5.999205e+00 -1.337807e-04 -3.224126e-04 -1.950767e-05
N -3.241732e+00 3.626107e+00 -7.521873e-01 -1.510462e-04 8.645682e-04 -1.666497e-04
N -2.551000e-02 -1.884699e+00 4.439857e+00 -1.184032e-04 -3.725340e-04 -1.557774e-05
N -1.950603e-02 -1.900087e+00 -6.006560e+00 -7.841610e-05 -3.088679e-04 -4.970432e-05
N -6.178087e-02 -1.866840e+00 -7.555419e-01 -8.548837e-06 1.708501e-04 -1.375704e-04
N 1.884009e-02 1.839383e+00 1.866164e+00 -4.038436e-04 1.021746e-03 -1.990045e-04
N 1.947569e-02 1.796790e+00 7.049516e+00 -2.512368e-04 3.768782e-04 -2.597672e-04
N -2.434287e-02 1.805629e+00 -3.389456e+00 -2.093098e-06 2.773481e-04 -2.399868e-05
N 3.243940e+00 -3.782028e+00 1.852981e+00 -3.149200e-04 1.458239e-03 1.014261e-04
N 3.198648e+00 -3.749124e+00 7.049310e+00 6.754638e-05 2.956876e-04 -1.316580e-04
N 3.197909e+00 -3.761476e+00 -3.388035e+00 7.416486e-05 2.475788e-04 6.982667e-05
N 1.590386e+00 -9.238639e-01 1.853146e+00 -1.539440e-04 8.992725e-04 -2.303719e-04
N 1.588843e+00 -9.111150e-01 7.066998e+00 -1.134069e-04 -1.517417e-04 -1.279397e-04
N 1.589107e+00 -9.714064e-01 -3.399484e+00 -3.820227e-05 -1.183450e-06 -1.448234e-04
N 3.157243e+00 1.784550e+00 1.840319e+00 8.484192e-05 1.196663e-03 6.749732e-05
N 3.148744e+00 1.794479e+00 7.065903e+00 1.581264e-04 1.715488e-04 -2.231444e-04
N 3.241457e+00 1.784003e+00 -3.379745e+00 -3.845769e-04 2.550042e-04 -2.856556e-04
N 6.374609e+00 -3.781351e+00 1.850855e+00 1.447585e-04 1.072668e-03 7.427784e-05
N 6.413245e+00 -3.746313e+00 7.047507e+00 -3.108706e-05 8.182761e-05 -3.538467e-05
N 6.422104e+00 -3.757909e+00 -3.389704e+00 -4.815212e-05 1.796255e-04 -1.308433e-04
N 4.806552e+00 -9.683067e-01 1.816119e+00 -1.572782e-04 7.764289e-04 -1.858111e-04
N 4.806457e+00 -9.622135e-01 6.984463e+00 -1.576817e-04 -2.545914e-05 1.742890e-04
N 4.812104e+00 -9.220894e-01 -3.423194e+00 -1.759137e-04 -3.004556e-04 -1.069668e-05
N -3.254868e+00 1.808900e+00 1.763709e+00 -9.864637e-06 1.237262e-03 3.322740e-04
N -3.250252e+00 1.821292e+00 7.054014e+00 -2.668310e-04 4.377100e-05 -4.677438e-05
N -3.282162e+00 1.786630e+00 -3.370612e+00 -8.237828e-05 2.478938e-04 -3.375852e-05
N -2.561768e-02 -3.757868e+00 1.832999e+00 6.295811e-05 9.781656e-04 1.111788e-04
N -2.476732e-02 -3.749347e+00 7.050423e+00 -2.262396e-04 1.082501e-04 6.068698e-05
N -1.567595e-02 -3.758294e+00 -3.378699e+00 -2.231884e-04 1.146867e-04 1.017248e-04
N -1.636575e+00 -9.726954e-01 1.773734e+00 -2.424521e-04 9.755375e-04 1.573883e-04
N -1.639502e+00 -9.627465e-01 7.053416e+00 -2.841791e-04 -1.596903e-04 5.065319e-05
N -1.628816e+00 -9.690632e-01 -3.390792e+00 -3.450670e-04 -8.521214e-05 -1.077017e-04
