108
Energy=-1581050.801761 Lattice="9.511595 0.000000 0.000000 -4.767169 8.231544 0.000000 -0.001590 -0.010258 15.366063" Stress="-0.000063 0.000001 0.000001 0.000001 -0.000062 -0.000004 0.000001 -0.000004 -0.000033" Properties=species:S:1:pos:R:3:forces:R:3
Al 1.554082 0.865332 2.421634 -0.000573 -0.002533 -0.002415
Al 1.545301 0.875685 7.563460 0.003165 -0.002632 0.001830
Al 1.563383 0.857365 -2.782038 -0.000295 0.012607 0.017082
Al -0.057468 3.617940 2.476811 0.012677 0.001391 -0.035110
Al -0.017922 3.593325 7.561181 -0.001688 0.001803 0.000575
Ga -0.026010 3.610307 -2.724954 0.004215 -0.000504 0.004085
Al 3.258492 -1.901690 2.392645 -0.037405 -0.000183 0.001141
Ga 3.142983 -1.883380 7.558569 0.001206 -0.000534 0.000753
Ga 3.152893 -1.854944 -2.706576 0.000044 -0.001246 0.004153
Ga -4.796706 0.863129 2.423511 0.000336 0.002053 -0.001540
Ga -4.796873 0.897369 7.566090 0.002946 -0.002680 0.000583
Al -4.781385 0.879223 -2.737218 0.000383 0.003776 0.001248
Ga -6.382979 3.626197 2.420215 -0.001389 0.002112 -0.002779
Al -6.371087 3.614243 7.552853 0.003107 0.000787 -0.000394
Ga -6.368631 3.621369 -2.751534 -0.000832 0.000954 0.001229
Al -3.192728 -1.854244 2.346706 0.002690 -0.010212 0.013426
Ga -3.173547 -1.891679 7.571817 -0.000463 0.002267 -0.000164
Al -3.184497 -1.851393 -2.717666 0.004155 -0.004150 0.002591
Ga -1.634225 0.885049 2.425474 0.005665 -0.001138 -0.001875
Ga -1.621257 0.893972 7.565044 0.000361 -0.002549 -0.000170
Al -1.623781 0.877670 -2.749244 0.002977 0.001228 0.001928
Al -3.192670 3.629686 2.440117 0.001681 0.001777 -0.002817
Al -3.216994 3.623081 7.533813 -0.000131 -0.000942 0.001507
Al -3.197715 3.622180 -2.734604 -0.002713 -0.002346 0.001987
Ga -0.012123 -1.863879 2.403502 0.004986 0.000156 0.000432
Al -0.016709 -1.870797 7.554401 0.001430 -0.003065 0.002206
Ga -0.020010 -1.838368 -2.733794 0.000972 -0.002874 0.003424
Ga -0.027108 1.778323 4.988895 -0.001291 -0.002489 0.002342
Al -0.025898 1.784629 -5.275966 0.002020 -0.001402 0.002137
Ga -0.019420 1.765541 -0.149340 0.000852 0.004463 0.002062
Ga 3.151754 -3.726334 4.979690 -0.003257 0.002923 0.003707
Ga 3.146576 -3.720003 -5.278660 -0.000775 0.001011 0.000799
Al 3.162364 -3.700787 -0.152295 0.000058 -0.001014 0.003447
Ga 1.573328 -0.972136 4.984936 -0.001396 0.001734 0.000215
Al 1.564332 -0.941878 -5.283444 -0.003838 0.001497 0.001028
Al 1.582314 -0.957850 -0.134524 -0.001329 0.000342 0.000124
Ga 3.139693 1.790465 4.999748 -0.001493 -0.000136 0.000369
Al 3.133478 1.796475 -5.291361 -0.003305 0.003389 0.003744
Ga 3.134342 1.769906 -0.169019 -0.002933 0.001826 0.002398
Ga 6.323970 -3.707159 4.987946 0.000622 0.003459 0.001059
Al 6.329705 -3.700685 -5.330667 0.003124 -0.001384 0.018843
Al 6.317432 -3.681702 -0.163826 -0.001534 -0.002126 0.003595
Ga 4.748571 -0.962246 4.982894 -0.000362 -0.000201 0.002343
Ga 4.756449 -0.940800 -5.240699 -0.001811 -0.000236 0.000441
Al 4.748208 -0.969523 -0.169220 -0.001974 0.000777 -0.003447
Al -3.213709 1.803685 4.988077 -0.000366 0.000448 0.001313
Al -3.202103 1.807948 -5.252618 -0.002431 0.001909 0.000860
Ga -3.196460 1.788903 -0.195133 -0.001728 0.003264 0.007394
Al -0.016284 -3.701308 4.997441 -0.000239 0.000517 0.000753
Al -0.018406 -3.690732 -5.308814 -0.003866 0.002318 0.006223
Ga -0.009915 -3.682808 -0.171143 -0.000437 -0.001928 0.005417
Ga -1.603262 -0.962687 4.991372 -0.002631 0.000642 0.000866
Al -1.596553 -0.940528 -5.266909 0.002151 -0.001469 0.003069
Al -1.608184 -0.951957 -0.174037 -0.001487 -0.000547 0.000216
N 1.553543 0.864492 4.333210 0.002024 -0.000151 -0.003249
N 1.550700 0.881951 -5.886970 0.001554 -0.001359 0.000173
N 1.555912 0.815118 -0.809799 0.000917 0.000104 -0.011650
N -0.025531 3.601734 4.311493 -0.000113 0.002418 0.013893
N 0.011977 3.587858 -5.890970 -0.000980 0.001031 -0.003468
N -0.023590 3.647132 -0.744531 -0.000784 0.002022 0.000103
N 3.157513 -1.884162 4.328098 0.004451 -0.001462 -0.008378
N 3.128889 -1.848279 -5.848923 -0.001449 0.001169 0.000790
N 3.154135 -1.874656 -0.720098 0.000585 -0.000617 0.002395
N -4.761567 0.889940 4.392658 0.004299 0.001108 -0.000941
N -4.791027 0.931689 -5.832035 0.005093 -0.000866 -0.001054
N -4.789698 0.839373 -0.816498 0.001967 -0.005897 -0.000427
N -6.341705 3.638808 4.389991 0.004398 0.000701 0.001251
N -6.366993 3.623561 -5.895841 0.000044 -0.000037 0.000116
N -6.402925 3.637227 -0.775539 -0.002378 0.001365 0.001660
N -3.186542 -1.877257 4.326206 -0.000222 0.000272 -0.014588
N -3.142820 -1.881943 -5.833485 -0.000253 0.000621 -0.003206
N -3.183931 -1.869928 -0.780680 0.000628 0.001546 -0.000878
N -1.663565 0.895990 4.396309 -0.000881 0.000891 0.000942
N -1.627077 0.892841 -5.828311 0.000252 -0.000607 0.002381
N -1.620203 0.842514 -0.823006 0.003109 -0.004979 -0.001667
N -3.240934 3.605517 4.364652 -0.001544 -0.002722 -0.001888
N -3.255154 3.607768 -5.915982 0.004171 -0.004584 -0.001433
N -3.168151 3.647348 -0.821715 0.005100 0.000978 -0.001124
N -0.021865 -1.903979 4.382125 0.000890 -0.005602 -0.000710
N -0.020997 -1.854327 -5.880271 0.001230 -0.000452 -0.001483
N -0.014803 -1.818001 -0.748970 0.000768 0.003058 0.000681
N 0.006385 1.810978 1.847808 -0.000732 -0.001125 -0.001371
N 0.009245 1.797089 6.967499 0.000565 0.002696 -0.001760
N -0.020302 1.745722 -3.360706 -0.002586 -0.001577 -0.000548
N 3.166652 -3.722215 1.798159 -0.004079 0.001980 0.001988
N 3.158869 -3.753768 6.965082 0.001027 -0.003486 0.000068
N 3.123203 -3.719716 -3.317901 -0.002577 0.001637 -0.001956
N 1.606668 -0.929144 1.781986 0.010396 -0.004771 0.002951
N 1.541307 -0.943841 6.964947 -0.004865 0.003967 0.000212
N 1.576486 -0.892040 -3.367110 0.000104 -0.011325 -0.008913
N 3.098689 1.768340 1.817854 0.000026 -0.001489 -0.002503
N 3.099206 1.803068 6.972143 -0.004457 0.002171 0.001026
N 3.142375 1.755121 -3.371452 0.000647 -0.003562 0.000054
N 6.291215 -3.664578 1.765207 -0.007079 -0.003647 0.003985
N 6.321321 -3.745615 6.966245 -0.001573 -0.004340 0.000531
N 6.319354 -3.644318 -3.365256 -0.000276 0.000675 -0.010258
N 4.736937 -1.006443 1.763218 0.011818 0.009623 -0.005667
N 4.745835 -0.962269 6.949956 -0.001076 0.001541 -0.001457
N 4.784516 -0.931933 -3.280993 -0.002241 0.001665 0.000616
N -3.213101 1.839644 1.814954 -0.000664 0.000199 -0.006639
N -3.208152 1.830865 6.907235 0.000236 0.002983 -0.004686
N -3.199026 1.799727 -3.332563 -0.000700 0.001116 0.000204
N 0.024843 -3.724192 1.820983 0.000604 -0.000308 -0.004930
N -0.021732 -3.695673 6.935009 -0.001175 0.000572 -0.000705
N 0.024814 -3.700233 -3.375641 0.001883 -0.001104 -0.004769
N -1.637961 -0.973029 1.759648 -0.001400 0.004511 -0.005855
N -1.569411 -0.974555 6.959664 0.001879 0.001025 0.000235
N -1.635189 -0.927962 -3.348425 -0.004430 0.001513 -0.002326
