108
Energy=-7.570926e+05 Lattice="9.432849e+00 0.000000e+00 0.000000e+00 -4.718160e+00 8.166216e+00 0.000000e+00 -1.052493e-03 2.881242e-04 1.515922e+01" Stress="-2.808799e-04 -1.903495e-05 -3.861608e-05 -1.539743e-05 -6.755890e-04 3.898872e-05 -4.529474e-05 3.882746e-05 2.273632e-04" Properties=species:S:1:pos:R:3:forces:R:3 Config_type=AlGaN_super3_7_2_18.xyz
Al 1.548241e+00 8.763008e-01 2.389719e+00 6.534514e-05 3.235371e-04 3.534270e-04
Al 1.548363e+00 8.672651e-01 7.429862e+00 1.319372e-04 -1.064868e-04 6.343505e-05
Al 1.549821e+00 8.744084e-01 -2.693450e+00 1.074544e-04 -1.219040e-04 -3.628825e-04
Al -2.256610e-02 3.587904e+00 2.384910e+00 4.332733e-05 -5.943145e-05 -6.078077e-05
Al -2.200339e-02 3.590299e+00 7.423112e+00 -2.247937e-05 -4.669466e-05 -6.657333e-05
Al -1.983369e-02 3.581995e+00 -2.679368e+00 -8.015215e-05 -2.273016e-05 1.660625e-06
Al 3.127475e+00 -1.855788e+00 2.397962e+00 6.068385e-04 -2.495672e-04 2.849080e-04
Al 3.115717e+00 -1.856090e+00 7.412268e+00 -1.184039e-05 -8.062514e-06 -8.003740e-05
Al 3.119652e+00 -1.855023e+00 -2.675604e+00 -6.019843e-04 -3.364466e-04 7.368225e-05
Al -4.749221e+00 8.649987e-01 2.396841e+00 6.576351e-04 2.083896e-04 -2.600048e-04
Al -4.740274e+00 8.761123e-01 7.411977e+00 1.297840e-04 -5.613378e-06 -6.771561e-05
Al -4.753654e+00 8.734674e-01 -2.675308e+00 3.952820e-05 -3.705098e-04 -2.239362e-04
Al -6.317152e+00 3.587041e+00 2.374294e+00 -1.305949e-04 -1.075310e-04 -1.228865e-04
Al -6.321454e+00 3.586349e+00 7.437351e+00 -7.752847e-05 -3.647796e-05 -9.770516e-05
Al -6.315543e+00 3.581060e+00 -2.679723e+00 1.541999e-04 1.273349e-04 -1.072848e-04
Al -3.171255e+00 -1.856498e+00 2.366431e+00 8.014009e-05 2.157569e-05 -2.578125e-06
Al -3.167644e+00 -1.861935e+00 7.432465e+00 -4.425648e-05 -3.579210e-05 -9.178279e-05
Ga -3.159078e+00 -1.856473e+00 -2.662749e+00 1.461899e-04 6.682560e-05 -1.708519e-04
Al -1.586825e+00 8.717986e-01 2.388199e+00 4.934190e-04 -3.136906e-04 -3.780204e-06
Al -1.597382e+00 8.786028e-01 7.435991e+00 2.482337e-04 -7.365911e-05 -8.303942e-05
Al -1.581827e+00 8.658843e-01 -2.689443e+00 2.096650e-04 -7.278397e-05 -3.559279e-04
Al -3.164644e+00 3.596882e+00 2.380662e+00 1.940569e-04 -2.841807e-04 -2.693533e-05
Al -3.161161e+00 3.585815e+00 7.443018e+00 1.145957e-04 -1.029702e-04 -7.396605e-05
Ga -3.168088e+00 3.598245e+00 -2.686663e+00 1.822163e-04 -9.584728e-05 -1.550588e-04
Al -2.219947e-02 -1.853555e+00 2.376643e+00 -8.919808e-05 -1.447334e-05 3.874390e-04
Al -1.358975e-02 -1.846920e+00 7.450537e+00 1.437755e-04 -5.771510e-05 -1.740591e-04
Al -2.367062e-02 -1.849772e+00 -2.689153e+00 1.436714e-04 -5.561002e-05 -5.061844e-05
Al -1.722898e-02 1.783916e+00 4.912345e+00 4.788407e-05 4.796239e-05 -1.124775e-04
Al -2.313633e-02 1.778074e+00 -5.212964e+00 -7.898540e-05 1.195282e-04 -2.886613e-06
Al -1.540300e-02 1.784179e+00 -1.506843e-01 -1.206249e-03 -3.073865e-04 -1.291566e-04
Al 3.131745e+00 -3.671121e+00 4.906969e+00 -2.816080e-05 1.077488e-04 -8.237977e-05
Al 3.127182e+00 -3.673634e+00 -5.220592e+00 -3.100244e-05 1.438820e-04 -9.372007e-05
Al 3.139945e+00 -3.665804e+00 -1.328269e-01 -2.009748e-05 -1.960820e-05 -5.060289e-05
Al 1.561379e+00 -9.364158e-01 4.903833e+00 5.893955e-05 2.483741e-05 -2.800786e-05
Al 1.546093e+00 -9.471874e-01 -5.201886e+00 -2.202093e-04 1.035802e-04 1.665259e-04
Ga 1.552618e+00 -9.444763e-01 -1.469288e-01 -3.431817e-04 -2.808498e-04 -4.780819e-05
Al 3.112992e+00 1.770890e+00 4.908301e+00 -1.448507e-04 -5.891934e-05 -1.816563e-04
Al 3.117396e+00 1.783093e+00 -5.211449e+00 1.930490e-05 -1.163655e-05 3.673198e-05
Al 3.113999e+00 1.781996e+00 -1.470116e-01 7.681560e-04 2.920050e-04 4.534735e-04
Al 6.254000e+00 -3.675705e+00 4.901586e+00 7.272580e-05 3.270657e-05 -1.368481e-04
Al 6.268828e+00 -3.683390e+00 -5.209112e+00 2.334772e-05 2.585967e-05 2.978817e-05
Al 6.266961e+00 -3.677464e+00 -1.400417e-01 -5.458012e-05 -5.154518e-04 2.776732e-05
Al 4.688630e+00 -9.479617e-01 4.909132e+00 -1.598905e-04 -1.100515e-08 -6.949064e-05
Ga 4.689564e+00 -9.439426e-01 -5.216760e+00 -2.034391e-04 4.234067e-05 -9.871589e-05
Al 4.689759e+00 -9.493587e-01 -1.353621e-01 -3.037511e-05 3.390561e-05 6.976780e-05
Al -3.166396e+00 1.779006e+00 4.901450e+00 3.815225e-05 3.911807e-05 -9.773964e-05
Al -3.164957e+00 1.777181e+00 -5.209944e+00 -1.134009e-05 -2.275663e-06 -1.136583e-04
Ga -3.167842e+00 1.766303e+00 -1.349603e-01 1.913432e-04 -2.113178e-04 7.995022e-06
Ga -1.905141e-02 -3.677191e+00 4.918470e+00 8.912959e-05 1.603653e-05 -4.853034e-06
Al -2.816444e-02 -3.667451e+00 -5.222038e+00 -1.986540e-05 6.798467e-05 -2.783310e-04
Al -3.618067e-02 -3.669411e+00 -1.373246e-01 -7.232309e-04 1.295811e-03 -2.198895e-04
Ga -1.598752e+00 -9.398254e-01 4.913618e+00 -2.473286e-04 8.354974e-05 8.331885e-05
Al -1.582884e+00 -9.423521e-01 -5.219325e+00 -1.325865e-04 2.693893e-05 -2.782941e-04
Al -1.591023e+00 -9.486321e-01 -1.341103e-01 5.018349e-05 1.006978e-04 -1.027798e-04
N 1.546604e+00 8.735781e-01 4.307811e+00 1.028022e-04 1.482553e-05 1.142342e-04
N 1.549193e+00 8.665524e-01 -5.805322e+00 1.703843e-04 -6.812428e-05 -9.728504e-05
N 1.550148e+00 9.182609e-01 -7.776250e-01 -2.669439e-04 -2.647229e-04 -9.878215e-05
N -2.386457e-02 3.588394e+00 4.303489e+00 -5.333435e-05 -5.597947e-05 1.357151e-04
N -2.098121e-02 3.588950e+00 -5.819955e+00 -2.339316e-05 -7.419687e-05 -2.461779e-06
N -2.323196e-02 3.591097e+00 -7.546317e-01 -5.785629e-05 -1.824622e-04 1.528982e-06
N 3.124457e+00 -1.855612e+00 4.315994e+00 1.629938e-04 -4.944380e-05 1.649827e-04
N 3.077271e+00 -1.876667e+00 -5.837966e+00 4.659066e-06 -7.532320e-05 -7.592701e-06
N 3.162168e+00 -1.880922e+00 -7.651370e-01 1.233559e-04 -2.402990e-05 1.390261e-04
N -4.744556e+00 8.677216e-01 4.316889e+00 1.923112e-04 6.832531e-05 5.415951e-05
N -4.741074e+00 9.201105e-01 -5.837884e+00 1.348935e-04 -1.163327e-06 7.388625e-05
N -4.784244e+00 8.462231e-01 -7.631293e-01 5.168213e-05 1.074679e-04 8.472277e-05
N -6.353498e+00 3.566666e+00 4.286346e+00 3.256221e-06 -9.125734e-07 1.195323e-04
N -6.317443e+00 3.586894e+00 -5.811648e+00 2.818360e-06 -2.499027e-05 1.071863e-04
N -6.311897e+00 3.588785e+00 -7.533813e-01 -1.066836e-04 -8.455614e-06 4.222793e-05
N -3.207883e+00 -1.877405e+00 4.283525e+00 -7.997043e-06 -5.337919e-05 -8.989862e-05
N -3.127054e+00 -1.882731e+00 -5.817474e+00 6.131378e-05 -2.752052e-05 1.430697e-04
N -3.164319e+00 -1.855635e+00 -6.826455e-01 -4.291493e-05 4.193161e-04 -7.289375e-05
N -1.589714e+00 9.176207e-01 4.295056e+00 2.039852e-04 -1.813768e-04 5.321468e-05
N -1.596118e+00 8.753893e-01 -5.809319e+00 2.540984e-04 -9.926076e-05 1.606100e-04
N -1.553100e+00 8.430626e-01 -7.733633e-01 7.339139e-04 4.156536e-04 8.269242e-04
N -3.126606e+00 3.572968e+00 4.289464e+00 -7.446547e-05 -9.483040e-05 3.362774e-05
N -3.164782e+00 3.588130e+00 -5.797905e+00 8.446323e-05 -1.210320e-04 1.610144e-04
N -3.166730e+00 3.639991e+00 -7.110548e-01 4.465115e-04 -2.146749e-04 -3.290046e-06
N 1.710558e-02 -1.832382e+00 4.277800e+00 -1.835625e-04 -6.932485e-05 -3.653553e-04
N -1.539425e-02 -1.849149e+00 -5.801276e+00 1.908400e-04 -1.397048e-04 1.915908e-04
N -6.454664e-02 -1.877521e+00 -7.707672e-01 2.428852e-04 -5.417882e-04 1.887856e-04
N -2.078026e-02 1.776670e+00 1.772726e+00 2.023851e-04 -3.058980e-05 -2.411358e-04
N -2.186489e-02 1.774818e+00 6.830751e+00 -1.315260e-04 1.535294e-04 7.255232e-05
N -2.252832e-02 1.778106e+00 -3.292578e+00 -3.196657e-06 1.261797e-04 3.079890e-05
N 3.128776e+00 -3.665304e+00 1.786372e+00 1.562168e-06 1.387405e-04 -7.288114e-05
N 3.122139e+00 -3.673466e+00 6.824698e+00 -4.477902e-05 1.048073e-04 1.395278e-04
N 3.169936e+00 -3.645758e+00 -3.308888e+00 -1.249220e-04 7.799879e-05 1.174598e-04
N 1.557613e+00 -9.431803e-01 1.832074e+00 -9.807252e-04 -1.352085e-04 -7.842199e-04
N 1.547469e+00 -9.435894e-01 6.821225e+00 -1.869739e-04 1.821802e-04 1.713079e-05
N 1.553171e+00 -9.483098e-01 -3.275922e+00 -1.756537e-04 2.332686e-04 4.090110e-05
N 3.120253e+00 1.773407e+00 1.776099e+00 1.021119e-04 2.155535e-06 -1.138699e-04
N 3.115553e+00 1.777574e+00 6.823631e+00 -7.075025e-06 2.236421e-05 4.918655e-05
N 3.122515e+00 1.777148e+00 -3.291791e+00 -1.275322e-04 9.828009e-06 9.133274e-05
N 6.264132e+00 -3.675467e+00 1.776133e+00 6.139632e-05 8.944886e-05 1.476290e-04
N 6.266532e+00 -3.670080e+00 6.819778e+00 8.292276e-05 2.026884e-05 2.001276e-05
N 6.266494e+00 -3.716971e+00 -3.294691e+00 7.369628e-05 -1.178169e-04 7.986171e-05
N 4.687375e+00 -9.426942e-01 1.785313e+00 -2.360791e-05 1.129203e-04 -1.535546e-05
N 4.696619e+00 -9.474966e-01 6.830105e+00 -8.898715e-05 2.061218e-05 8.032636e-05
N 4.655098e+00 -9.257370e-01 -3.250141e+00 6.075389e-04 8.692795e-04 4.198238e-05
N -3.166442e+00 1.770355e+00 1.838423e+00 -1.686677e-03 1.572266e-04 1.896616e-04
N -3.165161e+00 1.779506e+00 6.821017e+00 -9.658092e-05 8.821475e-06 3.237995e-05
N -3.168571e+00 1.726456e+00 -3.292622e+00 -2.105604e-04 -3.772263e-05 7.460933e-05
N -2.658383e-02 -3.668671e+00 1.782077e+00 2.472985e-04 -9.897380e-05 3.602952e-05
N -2.201571e-02 -3.668724e+00 6.894778e+00 -3.357224e-05 3.418927e-05 1.861751e-04
N -6.771072e-02 -3.646405e+00 -3.308534e+00 -8.753194e-05 -2.094139e-05 1.505100e-04
N -1.591825e+00 -9.419880e-01 1.785998e+00 8.848818e-05 1.680118e-05 -5.465342e-06
N -1.592731e+00 -9.450504e-01 6.887457e+00 -1.445382e-04 4.372943e-05 1.574235e-04
N -1.555527e+00 -9.235410e-01 -3.308920e+00 -2.007512e-04 -2.510364e-06 1.467370e-04
