108
Energy=-1.260623e+06 Lattice="9.491205e+00 0.000000e+00 0.000000e+00 -4.746543e+00 8.216542e+00 0.000000e+00 1.125574e-03 4.744931e-03 1.531117e+01" Stress="-7.212163e-04 -1.341439e-04 9.270592e-05 -1.267861e-04 -1.269762e-03 2.414132e-04 9.846313e-05 2.349670e-04 -2.530869e-04" Properties=species:S:1:pos:R:3:forces:R:3 Config_type=AlGaN_super3_18_0_24.xyz
Al 1.560212e+00 8.777151e-01 2.387861e+00 2.245008e-04 -2.766315e-04 1.026879e-04
Al 1.560336e+00 8.848479e-01 7.500407e+00 -3.232787e-04 -3.228711e-04 1.830924e-04
Al 1.562177e+00 8.837667e-01 -2.681597e+00 4.044046e-04 -1.368016e-04 -2.219392e-04
Al -8.051118e-03 3.605637e+00 2.427509e+00 4.023476e-05 2.723562e-04 1.980938e-04
Al -1.481135e-02 3.614072e+00 7.495714e+00 -2.948110e-04 -1.389016e-04 -1.904660e-04
Al -2.692748e-02 3.604506e+00 -2.711822e+00 4.181230e-04 3.922776e-04 -4.268011e-04
Al 3.146822e+00 -1.857312e+00 2.412956e+00 -3.856263e-04 1.296478e-04 -1.271898e-04
Al 3.151335e+00 -1.860841e+00 7.507558e+00 -3.402923e-05 -4.134826e-04 -3.010421e-04
Ga 3.154420e+00 -1.867396e+00 -2.704657e+00 -1.701312e-05 1.427509e-05 1.284887e-04
Al -4.774774e+00 8.702716e-01 2.404015e+00 -1.336426e-04 1.069445e-04 1.358012e-04
Al -4.771714e+00 8.735693e-01 7.518479e+00 -1.023452e-04 9.373602e-05 6.348762e-05
Al -4.765545e+00 8.778732e-01 -2.718147e+00 -2.995606e-05 -1.334112e-04 7.243142e-05
Al -6.356856e+00 3.609600e+00 2.387509e+00 -1.907554e-04 9.027958e-05 -2.835848e-05
Al -6.368269e+00 3.605398e+00 7.521224e+00 2.067336e-04 -9.068506e-06 1.814854e-04
Ga -6.361839e+00 3.594019e+00 -2.695726e+00 -2.247575e-04 1.900314e-04 1.018095e-04
Al -3.199070e+00 -1.873138e+00 2.439093e+00 1.975253e-04 -6.403271e-04 2.154250e-04
Ga -3.191040e+00 -1.867393e+00 7.512068e+00 1.576042e-05 -5.267415e-05 7.349908e-05
Al -3.192559e+00 -1.857779e+00 -2.740500e+00 1.077347e-05 -4.546297e-04 -4.905338e-04
Ga -1.602154e+00 8.856688e-01 2.401987e+00 9.856974e-05 -2.559597e-04 1.741517e-04
Al -1.598743e+00 8.818307e-01 7.511279e+00 -2.827585e-04 -1.414388e-04 -1.460055e-04
Al -1.614165e+00 8.825380e-01 -2.702635e+00 3.444751e-05 4.998086e-05 -1.246255e-04
Ga -3.194236e+00 3.609574e+00 2.418701e+00 -1.804225e-04 -1.536557e-04 3.102430e-04
Ga -3.171842e+00 3.609409e+00 7.504758e+00 1.173050e-04 -5.921330e-05 -3.022783e-05
Al -3.175173e+00 3.591946e+00 -2.706446e+00 4.859216e-05 1.181275e-04 -4.440538e-05
Al -1.539069e-02 -1.868930e+00 2.382602e+00 -1.247702e-04 -1.559256e-04 -2.107456e-04
Al -2.213625e-02 -1.849976e+00 7.525273e+00 -7.565667e-05 -1.122114e-04 1.881834e-04
Ga -2.812480e-02 -1.852247e+00 -2.686309e+00 4.096416e-05 -1.999875e-04 2.095748e-04
Al -2.602811e-02 1.806053e+00 4.972129e+00 -1.063859e-04 -1.524291e-06 2.011721e-04
Ga -2.685582e-02 1.792901e+00 -5.253862e+00 1.286540e-04 9.580263e-05 3.322472e-04
Al -1.493406e-02 1.784488e+00 -1.659442e-01 -3.428690e-04 -6.298910e-05 -5.071796e-04
Al 3.166862e+00 -3.690642e+00 4.951510e+00 7.494981e-06 -3.778421e-05 4.097256e-05
Al 3.159177e+00 -3.695755e+00 -5.254700e+00 -6.243958e-05 4.015582e-05 1.305883e-07
Ga 3.135612e+00 -3.708813e+00 -1.377380e-01 -1.620568e-04 1.996529e-04 1.850846e-04
Ga 1.570043e+00 -9.528763e-01 4.961985e+00 -4.228384e-04 1.252547e-04 -2.442674e-05
Ga 1.571984e+00 -9.460565e-01 -5.269166e+00 -3.008853e-04 2.312266e-04 3.096756e-04
Al 1.559635e+00 -9.375753e-01 -1.269437e-01 -3.890405e-04 7.206372e-05 8.683758e-05
Ga 3.143966e+00 1.788658e+00 4.952144e+00 1.231353e-04 -6.609704e-05 2.953568e-05
Al 3.145512e+00 1.779065e+00 -5.264968e+00 -1.599029e-04 1.115039e-04 9.372982e-05
Al 3.142837e+00 1.774650e+00 -1.363220e-01 -1.399784e-04 4.181764e-04 7.163487e-05
Al 6.290769e+00 -3.698263e+00 4.947397e+00 1.730754e-04 -3.207556e-04 -1.214077e-04
Al 6.293898e+00 -3.691230e+00 -5.256758e+00 -1.399114e-05 -5.948099e-05 4.452785e-04
Ga 6.302461e+00 -3.697798e+00 -1.329927e-01 -7.141430e-05 -2.507545e-04 3.012280e-04
Al 4.722138e+00 -9.500963e-01 4.951568e+00 -1.264681e-04 -1.766468e-04 8.565712e-05
Al 4.729336e+00 -9.463823e-01 -5.257760e+00 2.700304e-05 -5.438002e-05 1.150437e-04
Ga 4.725457e+00 -9.323882e-01 -1.367239e-01 -1.327905e-04 -1.697023e-05 -1.158104e-04
Al -3.185268e+00 1.777792e+00 4.975857e+00 -8.925120e-05 -5.747519e-05 -2.214753e-04
Al -3.191560e+00 1.771476e+00 -5.245085e+00 -3.239901e-05 7.485394e-05 -7.566271e-05
Al -3.200120e+00 1.792292e+00 -1.747614e-01 1.070978e-04 5.924740e-05 -8.477406e-05
Ga -3.135751e-02 -3.692399e+00 4.969690e+00 -1.865770e-05 -1.010468e-04 2.150371e-04
Ga -2.960097e-02 -3.698790e+00 -5.260038e+00 4.449890e-05 -1.276375e-04 1.041557e-04
Al -1.428293e-02 -3.703196e+00 -1.423340e-01 -3.579658e-05 -6.643872e-05 3.944213e-06
Ga -1.610046e+00 -9.436694e-01 4.957161e+00 -8.927680e-05 -4.281099e-05 1.043148e-04
Al -1.621163e+00 -9.430281e-01 -5.252048e+00 2.895168e-05 1.661969e-05 1.030671e-04
Ga -1.606231e+00 -9.445710e-01 -1.398792e-01 -2.238564e-05 4.076905e-05 2.994648e-05
N 1.512455e+00 8.995852e-01 4.308477e+00 2.472239e-04 2.005027e-04 -2.055349e-04
N 1.594188e+00 9.036696e-01 -5.909883e+00 3.056568e-04 -1.105208e-04 -2.669021e-04
N 1.564490e+00 8.728438e-01 -7.528919e-01 2.578826e-04 1.279193e-04 2.338888e-04
N -2.066276e-02 3.605243e+00 4.348157e+00 -3.360831e-05 -9.313667e-05 -2.616347e-04
N -2.186982e-02 3.656699e+00 -5.897421e+00 8.230123e-07 1.059004e-04 1.260996e-06
N -2.134398e-02 3.569977e+00 -8.050976e-01 -1.184757e-05 -6.309819e-05 -1.244612e-05
N 3.181124e+00 -1.884636e+00 4.328388e+00 2.931533e-04 3.028087e-05 6.099891e-05
N 3.190020e+00 -1.894074e+00 -5.882785e+00 1.075842e-04 7.190944e-05 1.279766e-04
N 3.104042e+00 -1.843354e+00 -7.350283e-01 -1.580117e-05 -1.081232e-04 3.043588e-05
N -4.724415e+00 8.556528e-01 4.321981e+00 1.573051e-04 4.540656e-06 1.310599e-05
N -4.766759e+00 8.729877e-01 -5.867356e+00 1.263721e-04 7.355912e-05 -1.027156e-05
N -4.776430e+00 9.209468e-01 -7.957643e-01 2.249367e-04 -1.986319e-04 -3.546717e-04
N -6.389618e+00 3.634583e+00 4.299181e+00 -1.009422e-04 2.111828e-04 -1.031652e-04
N -6.400665e+00 3.586277e+00 -5.873808e+00 -1.015311e-04 -4.537523e-05 -1.912137e-05
N -6.315642e+00 3.583045e+00 -7.162406e-01 2.039722e-04 -1.513541e-04 -1.158502e-04
N -3.228728e+00 -1.888920e+00 4.353357e+00 -1.124686e-04 2.355999e-04 -1.988580e-04
N -3.188487e+00 -1.868546e+00 -5.815368e+00 -8.942352e-05 8.154549e-05 -2.702748e-05
N -3.189333e+00 -1.867152e+00 -8.300787e-01 -8.564438e-05 2.099946e-04 1.160824e-04
N -1.601492e+00 9.322579e-01 4.377392e+00 -5.462809e-05 1.267355e-05 -3.246417e-05
N -1.647484e+00 8.552917e-01 -5.881113e+00 2.286305e-06 -8.861463e-06 -1.205989e-04
N -1.608541e+00 9.213870e-01 -7.793670e-01 2.077838e-04 1.304981e-04 4.355177e-07
N -3.147116e+00 3.587196e+00 4.400467e+00 -5.112393e-05 3.195395e-05 -1.459780e-04
N -3.138877e+00 3.582900e+00 -5.832286e+00 -3.474970e-06 -1.100888e-04 2.784702e-05
N -3.224621e+00 3.591071e+00 -7.854368e-01 8.603264e-05 -2.166036e-04 3.197520e-05
N -1.762321e-02 -1.865290e+00 4.286252e+00 1.912883e-04 -7.985524e-05 -1.354527e-04
N -6.712335e-02 -1.836797e+00 -5.883150e+00 4.456158e-05 -2.245190e-04 -9.303997e-05
N 1.854669e-02 -1.884962e+00 -7.099328e-01 2.036061e-04 -2.199745e-04 1.514146e-04
N 1.823309e-02 1.814816e+00 1.754144e+00 9.294139e-05 7.407286e-05 4.101407e-04
N -2.186385e-02 1.791313e+00 6.899517e+00 -1.121132e-04 -1.849453e-05 -1.010804e-04
N -1.972469e-02 1.780016e+00 -3.266640e+00 -3.663411e-04 -2.836845e-06 8.402023e-05
N 3.187403e+00 -3.676249e+00 1.840365e+00 -2.968396e-04 3.938211e-04 -2.958430e-04
N 3.190723e+00 -3.661417e+00 6.868217e+00 9.513111e-05 1.804425e-04 1.154624e-04
N 3.144050e+00 -3.739931e+00 -3.334461e+00 -1.885859e-05 -1.794862e-04 -3.967402e-06
N 1.565880e+00 -9.492699e-01 1.796904e+00 -3.249335e-07 2.005803e-04 -1.038073e-04
N 1.562821e+00 -9.522570e-01 6.949942e+00 1.912103e-05 2.965266e-04 1.353399e-05
N 1.561554e+00 -9.019523e-01 -3.302682e+00 -1.984016e-04 3.539416e-04 2.327420e-05
N 3.143437e+00 1.778866e+00 1.791621e+00 -2.877750e-06 8.354201e-06 1.999942e-04
N 3.146955e+00 1.788834e+00 6.936462e+00 1.072099e-04 1.032168e-04 -6.324791e-05
N 3.136128e+00 1.733856e+00 -3.343194e+00 -3.295213e-05 -6.441278e-05 -1.154674e-05
N 6.297317e+00 -3.687146e+00 1.848349e+00 1.227819e-04 1.871972e-04 -2.884019e-04
N 6.308862e+00 -3.737653e+00 6.866679e+00 2.397950e-06 3.484145e-05 1.181260e-04
N 6.262721e+00 -3.675684e+00 -3.339159e+00 -9.089056e-05 1.184996e-04 1.050810e-04
N 4.727967e+00 -9.515999e-01 1.845567e+00 2.667424e-04 1.333785e-04 4.815785e-06
N 4.682847e+00 -9.206824e-01 6.874692e+00 1.035447e-05 -1.799848e-04 -2.202816e-04
N 4.758335e+00 -9.225298e-01 -3.343449e+00 2.711143e-05 1.761248e-04 8.270066e-06
N -3.232683e+00 1.763198e+00 1.738427e+00 1.456175e-04 -1.152562e-05 -1.021622e-04
N -3.190900e+00 1.734410e+00 6.886526e+00 1.421094e-04 -4.620130e-05 -4.938551e-05
N -3.188158e+00 1.781939e+00 -3.319763e+00 1.128963e-04 -5.810761e-05 2.183246e-05
N -5.894792e-02 -3.675187e+00 1.773445e+00 3.535295e-04 3.073063e-05 -5.755787e-05
N -6.832805e-02 -3.664725e+00 6.949186e+00 1.747847e-05 1.886878e-05 -1.015821e-04
N 1.471979e-02 -3.714232e+00 -3.293145e+00 1.034856e-04 -6.922299e-05 -6.794302e-05
N -1.617068e+00 -9.983868e-01 1.836615e+00 -9.717605e-05 3.621914e-04 4.644976e-06
N -1.564603e+00 -9.263488e-01 6.928667e+00 2.520782e-04 1.434739e-04 -5.830067e-05
N -1.640558e+00 -9.214132e-01 -3.331908e+00 -3.338118e-05 7.309203e-05 1.943535e-05
