108
Energy=-2.862760e+06 Lattice="9.516506e+00 0.000000e+00 0.000000e+00 -4.762235e+00 8.233785e+00 0.000000e+00 -1.194284e-02 8.910839e-03 1.537246e+01" Stress="-8.741557e-02 6.021103e-03 -4.566287e-04 6.015085e-03 -8.181909e-02 2.478986e-04 -4.605797e-04 2.490257e-04 -8.214085e-02" Properties=species:S:1:pos:R:3:forces:R:3 Config_type=AlGaN_super3_53_0_2.xyz
Al 1.562642e+00 9.051460e-01 2.490458e+00 -8.954686e-04 -1.244065e-02 -9.018228e-03
Ga 1.561722e+00 9.062837e-01 7.546110e+00 -1.430349e-03 -1.583130e-02 -3.766947e-03
Ga 1.573996e+00 8.971117e-01 -2.765995e+00 -1.475696e-03 -1.581801e-02 -3.560584e-03
Ga -1.006379e-02 3.627111e+00 2.486837e+00 -2.683463e-03 -1.808579e-03 -8.063273e-03
Ga -1.136195e-02 3.627890e+00 7.546058e+00 -2.503744e-03 -1.076533e-03 -8.018361e-04
Ga 1.234390e-04 3.620194e+00 -2.766514e+00 -2.544007e-03 -1.149712e-03 -9.327870e-04
Ga 3.177536e+00 -1.882762e+00 2.482060e+00 -2.969168e-03 1.230677e-03 -8.293179e-03
Ga 3.177695e+00 -1.883478e+00 7.545826e+00 -2.637397e-03 1.626657e-03 -1.554347e-03
Ga 3.189164e+00 -1.892131e+00 -2.763830e+00 -2.703562e-03 1.679130e-03 -1.164405e-03
Ga -4.809819e+00 9.070377e-01 2.484470e+00 6.753657e-04 -1.415778e-02 -9.218734e-03
Ga -4.809251e+00 9.075341e-01 7.546599e+00 8.371714e-04 -1.464793e-02 -2.748035e-03
Ga -4.797616e+00 8.989121e-01 -2.763705e+00 8.361946e-04 -1.459147e-02 -2.411663e-03
Ga -6.382837e+00 3.627868e+00 2.484213e+00 1.106285e-04 -3.458353e-04 -6.577345e-03
Ga -6.382063e+00 3.629053e+00 7.546371e+00 -1.489483e-04 1.383387e-04 1.429754e-04
Ga -6.370561e+00 3.620356e+00 -2.763895e+00 -1.373207e-04 1.185204e-04 3.362819e-04
Ga -3.192686e+00 -1.882715e+00 2.482999e+00 -2.438588e-04 2.596978e-03 -7.209983e-03
Ga -3.193117e+00 -1.882314e+00 7.546349e+00 -2.867267e-04 2.835015e-03 -7.325185e-04
Ga -3.181434e+00 -1.890928e+00 -2.763904e+00 -3.065138e-04 2.900144e-03 -4.998491e-04
Ga -1.663216e+00 9.071442e-01 2.488483e+00 1.471938e-02 -7.484603e-03 -1.230951e-02
Ga -1.664295e+00 9.084380e-01 7.546800e+00 1.433513e-02 -8.138764e-03 -5.746930e-03
Ga -1.653471e+00 8.993107e-01 -2.766110e+00 1.433693e-02 -8.115250e-03 -5.742001e-03
Ga -3.236737e+00 3.629476e+00 2.484022e+00 1.320106e-02 6.607699e-03 -9.064642e-03
Ga -3.237390e+00 3.630046e+00 7.546688e+00 1.322285e-02 6.722306e-03 -2.622516e-03
Ga -3.225619e+00 3.621342e+00 -2.763964e+00 1.317792e-02 6.677145e-03 -2.428921e-03
Ga -4.775730e-02 -1.880467e+00 2.483730e+00 1.337152e-02 8.948344e-03 -9.975114e-03
Ga -4.812379e-02 -1.881517e+00 7.546330e+00 1.309250e-02 9.319554e-03 -3.588627e-03
Ga -3.647259e-02 -1.889956e+00 -2.763839e+00 1.309077e-02 9.335125e-03 -3.261761e-03
Ga -9.794577e-03 1.812295e+00 5.015576e+00 -1.284884e-02 -9.389599e-03 -4.604699e-03
Ga 1.554322e-03 1.803836e+00 -5.296083e+00 -1.303697e-02 -9.333152e-03 -3.659681e-03
Ga 1.986557e-04 1.804521e+00 -2.457613e-01 -1.292458e-02 -9.525148e-03 3.836599e-02
Ga 3.178777e+00 -3.698551e+00 5.015983e+00 -1.317560e-02 -6.759431e-03 -2.972851e-03
Ga 3.190430e+00 -3.707341e+00 -5.295435e+00 -1.320129e-02 -6.744698e-03 -2.658680e-03
Ga 3.190387e+00 -3.707462e+00 -2.296996e-01 -1.357639e-02 -6.406764e-03 3.576196e-02
Ga 1.606138e+00 -9.776154e-01 5.015514e+00 -1.430035e-02 8.237078e-03 -6.117585e-03
Ga 1.617637e+00 -9.862886e-01 -5.295144e+00 -1.431085e-02 8.181641e-03 -5.581761e-03
Ga 1.616984e+00 -9.855899e-01 -2.280021e-01 -1.455589e-02 8.579819e-03 3.274257e-02
Ga 3.134853e+00 1.813214e+00 5.015028e+00 1.041978e-04 -2.885951e-03 -1.337079e-03
Ga 3.146495e+00 1.804780e+00 -5.295901e+00 2.611599e-04 -2.836804e-03 -6.880465e-04
Ga 3.145537e+00 1.804837e+00 -2.310085e-01 -2.019695e-04 -2.831112e-03 3.829222e-02
Ga 6.324000e+00 -3.697611e+00 5.016141e+00 1.821474e-04 -2.045655e-04 -1.765964e-04
Ga 6.335608e+00 -3.706531e+00 -5.295600e+00 1.724634e-04 -2.294439e-04 1.609151e-04
Ga 6.334798e+00 -3.706737e+00 -2.306386e-01 -6.203332e-05 2.694504e-05 3.896271e-02
Ga 4.750838e+00 -9.767005e-01 5.015613e+00 -8.098391e-04 1.464586e-02 -3.002377e-03
Ga 4.762394e+00 -9.852578e-01 -5.294948e+00 -8.705299e-04 1.466007e-02 -2.639037e-03
Ga 4.762094e+00 -9.850445e-01 -2.290111e-01 -1.207895e-03 1.484463e-02 3.560490e-02
Ga -3.236310e+00 1.814585e+00 5.015638e+00 2.636538e-03 -1.635014e-03 -1.908695e-03
Ga -3.224591e+00 1.806037e+00 -5.296243e+00 2.634129e-03 -1.627151e-03 -1.546431e-03
Ga -3.224398e+00 1.806166e+00 -2.323413e-01 2.351251e-03 -1.386934e-03 3.727640e-02
Ga -4.690385e-02 -3.696729e+00 5.015049e+00 2.484106e-03 9.790295e-04 -1.036501e-03
Ga -3.530268e-02 -3.705379e+00 -5.295481e+00 2.491042e-03 1.018771e-03 -5.879232e-04
Ga -3.554034e-02 -3.705158e+00 -2.310774e-01 2.297178e-03 1.266690e-03 3.788777e-02
Ga -1.620123e+00 -9.757328e-01 5.016190e+00 1.390660e-03 1.582835e-02 -3.891675e-03
Ga -1.608279e+00 -9.842018e-01 -5.295657e+00 1.462239e-03 1.582959e-02 -3.595226e-03
Ga -1.608446e+00 -9.834104e-01 -2.303247e-01 1.187367e-03 1.593530e-02 3.498060e-02
N 1.562616e+00 9.056477e-01 4.412162e+00 -8.079871e-04 -1.501229e-02 -1.634974e-02
N 1.573613e+00 8.975442e-01 -5.897682e+00 -8.481888e-04 -1.518306e-02 3.382604e-03
N 1.573855e+00 8.972751e-01 -8.374247e-01 -8.021364e-04 -1.497408e-02 6.102238e-03
N -1.094921e-02 3.628748e+00 4.415314e+00 -2.015250e-03 2.637945e-04 7.121144e-04
N 5.637995e-04 3.619361e+00 -5.897450e+00 -1.883652e-03 1.900247e-04 8.634342e-05
N -5.554399e-05 3.620931e+00 -8.379178e-01 -1.881968e-03 2.821181e-04 3.452403e-03
N 3.178043e+00 -1.883705e+00 4.412597e+00 -2.321439e-03 1.390937e-03 -3.107847e-04
N 3.189595e+00 -1.892325e+00 -5.897503e+00 -2.290207e-03 1.523526e-03 -4.134471e-04
N 3.188913e+00 -1.892111e+00 -8.329526e-01 -2.419737e-03 1.598010e-03 2.194720e-03
N -4.808944e+00 9.070176e-01 4.413529e+00 7.365098e-04 -1.500866e-02 4.024375e-03
N -4.797459e+00 8.985612e-01 -5.897471e+00 5.692609e-04 -1.505622e-02 3.689035e-03
N -4.797889e+00 8.989717e-01 -8.341094e-01 4.156981e-04 -1.475146e-02 6.313833e-03
N -6.382153e+00 3.629018e+00 4.413654e+00 -3.491915e-04 5.236454e-04 8.028806e-04
N -6.370234e+00 3.620325e+00 -5.897294e+00 -4.875452e-04 4.404062e-04 3.920192e-04
N -6.370830e+00 3.620435e+00 -8.338839e-01 -5.677258e-04 3.651229e-04 3.237693e-03
N -3.192992e+00 -1.882666e+00 4.413235e+00 -9.359067e-04 1.801455e-03 1.385250e-05
N -3.181410e+00 -1.891313e+00 -5.897278e+00 -9.867963e-04 1.806840e-03 2.992286e-05
N -3.181560e+00 -1.891171e+00 -8.334698e-01 -1.053802e-03 1.802209e-03 2.477119e-03
N -1.664662e+00 9.075238e-01 4.415663e+00 1.436128e-02 -8.267606e-03 7.648545e-03
N -1.652454e+00 8.996051e-01 -5.897637e+00 1.443865e-02 -8.275688e-03 7.063704e-03
N -1.653808e+00 8.993749e-01 -8.386593e-01 1.436368e-02 -8.115963e-03 9.946776e-03
N -3.236870e+00 3.629900e+00 4.413325e+00 1.337771e-02 7.184088e-03 3.897417e-03
N -3.225468e+00 3.621405e+00 -5.897418e+00 1.336320e-02 7.204362e-03 3.699602e-03
N -3.225568e+00 3.621615e+00 -8.346042e-01 1.316232e-02 7.137277e-03 6.125132e-03
N -4.815821e-02 -1.881532e+00 4.413170e+00 1.282608e-02 8.408153e-03 3.527325e-03
N -3.631537e-02 -1.890433e+00 -5.897529e+00 1.278800e-02 8.529463e-03 3.301076e-03
N -3.662120e-02 -1.889894e+00 -8.340256e-01 1.266649e-02 8.483686e-03 5.852362e-03
N -4.226077e-03 1.808274e+00 1.899303e+00 3.189901e-03 -1.792769e-02 -2.816605e-02
N -1.004386e-02 1.812576e+00 6.944387e+00 -1.286951e-02 -8.475310e-03 3.331835e-03
N 1.429447e-03 1.804043e+00 -3.367564e+00 -1.280606e-02 -8.433578e-03 3.571551e-03
N 3.179309e+00 -3.699867e+00 1.880401e+00 -1.272491e-02 -7.039885e-03 -3.060924e-02
N 3.178585e+00 -3.698793e+00 6.944546e+00 -1.338545e-02 -7.207936e-03 3.690600e-03
N 3.190047e+00 -3.707128e+00 -3.366908e+00 -1.342324e-02 -7.182417e-03 3.672929e-03
N 1.605750e+00 -9.707958e-01 1.883940e+00 -1.431105e-02 2.346055e-02 -2.210500e-02
N 1.605818e+00 -9.773221e-01 6.944025e+00 -1.448885e-02 8.222712e-03 6.895983e-03
N 1.617541e+00 -9.863015e-01 -3.366845e+00 -1.450580e-02 8.164309e-03 6.935190e-03
N 3.129735e+00 1.810336e+00 1.886077e+00 -1.494864e-02 -1.141729e-02 -2.843788e-02
N 3.134676e+00 1.813641e+00 6.944349e+00 9.704411e-04 -1.720499e-03 -3.870142e-06
N 3.146667e+00 1.805056e+00 -3.366785e+00 9.730595e-04 -1.628849e-03 -4.758845e-05
N 6.323804e+00 -3.698726e+00 1.881718e+00 7.035773e-04 -1.545426e-04 -3.466581e-02
N 6.323831e+00 -3.697786e+00 6.944912e+00 4.654444e-04 -4.117613e-04 4.860320e-04
N 6.335583e+00 -3.706222e+00 -3.366683e+00 5.398035e-04 -4.128951e-04 4.242115e-04
N 4.751098e+00 -9.763061e-01 1.880348e+00 -1.164294e-04 1.468247e-02 -3.090561e-02
N 4.750745e+00 -9.763725e-01 6.944358e+00 -5.670263e-04 1.498924e-02 3.684938e-03
N 4.762288e+00 -9.850036e-01 -3.366016e+00 -5.633975e-04 1.493739e-02 3.679588e-03
N -3.235258e+00 1.814092e+00 1.882114e+00 2.712080e-03 -2.237553e-03 -3.533943e-02
N -3.236366e+00 1.814822e+00 6.944735e+00 2.354767e-03 -1.451118e-03 -3.010691e-04
N -3.225024e+00 1.806154e+00 -3.367101e+00 2.289505e-03 -1.376318e-03 -4.234331e-04
N -4.694827e-02 -3.697340e+00 1.881447e+00 2.042196e-03 -9.138910e-06 -3.464862e-02
N -4.718188e-02 -3.696854e+00 6.944353e+00 1.890901e-03 -1.227870e-04 -1.280248e-05
N -3.556282e-02 -3.705457e+00 -3.366095e+00 1.844857e-03 -1.262737e-04 -6.793667e-06
N -1.619777e+00 -9.751698e-01 1.881102e+00 9.331884e-04 1.495707e-02 -3.158694e-02
N -1.620155e+00 -9.754980e-01 6.944733e+00 8.850059e-04 1.517707e-02 3.438144e-03
N -1.608593e+00 -9.842924e-01 -3.366948e+00 8.856564e-04 1.508774e-02 3.333319e-03
