108
Energy=-4.824398e+05 Lattice="9.402420e+00 0.000000e+00 0.000000e+00 -4.701361e+00 8.142354e+00 0.000000e+00 1.083439e-03 -1.370373e-03 1.506711e+01" Stress="4.379517e-06 1.594968e-05 2.737814e-05 1.579956e-05 -8.273618e-05 -7.555155e-05 2.637601e-05 -7.635959e-05 -1.952369e-05" Properties=species:S:1:pos:R:3:forces:R:3 Config_type=AlGaN_super3_1_0_17.xyz
Al 1.545073e+00 8.655224e-01 2.363722e+00 -3.465026e-05 -1.224082e-05 -7.876430e-05
Al 1.546459e+00 8.658162e-01 7.384009e+00 -6.034930e-06 -7.737674e-06 -7.557901e-05
Al 1.543587e+00 8.660155e-01 -2.664617e+00 -3.030829e-06 3.160507e-06 -1.373246e-04
Al -2.165603e-02 3.579791e+00 2.364193e+00 -4.353167e-06 -1.346716e-05 -1.139876e-04
Al -2.243017e-02 3.579680e+00 7.384147e+00 1.384818e-05 -1.006034e-05 -7.225367e-05
Al -2.233093e-02 3.580045e+00 -2.664229e+00 2.742224e-05 -1.705451e-05 -1.111284e-04
Al 3.112928e+00 -1.848711e+00 2.363917e+00 -4.548098e-05 -1.225842e-05 -6.865279e-05
Al 3.112629e+00 -1.849950e+00 7.384069e+00 5.002040e-06 5.228798e-06 -7.205285e-05
Al 3.111377e+00 -1.847261e+00 -2.664155e+00 8.737878e-07 1.136570e-05 -1.195500e-04
Al -4.722623e+00 8.654502e-01 2.363431e+00 -2.320637e-05 4.680159e-06 -4.028149e-05
Al -4.724222e+00 8.658211e-01 7.383987e+00 5.498025e-06 -2.326485e-05 -6.065700e-05
Al -4.723906e+00 8.659365e-01 -2.664555e+00 7.950259e-06 -1.696588e-05 -5.450523e-05
Al -6.290034e+00 3.579972e+00 2.363667e+00 6.726548e-06 -1.972188e-07 -4.256615e-05
Al -6.290191e+00 3.577936e+00 7.384088e+00 1.853397e-05 -6.303649e-06 -6.424617e-05
Al -6.291489e+00 3.580941e+00 -2.664652e+00 3.871358e-05 -1.478892e-05 -7.816861e-05
Al -3.162899e+00 -1.853021e+00 2.377827e+00 4.664300e-05 2.565033e-05 3.684591e-05
Al -3.155719e+00 -1.849076e+00 7.383298e+00 6.354103e-06 -4.506235e-06 -7.227191e-05
Al -3.161971e+00 -1.850831e+00 -2.674718e+00 3.391386e-06 -2.086504e-05 -7.628798e-05
Al -1.588983e+00 8.738768e-01 2.377892e+00 -9.689705e-06 -1.037629e-05 -5.043408e-05
Al -1.589089e+00 8.650327e-01 7.383322e+00 5.438786e-06 -8.058459e-06 -8.073931e-05
Al -1.590314e+00 8.719904e-01 -2.674519e+00 4.447009e-05 -3.729912e-05 -8.929240e-05
Al -3.155928e+00 3.579780e+00 2.363817e+00 1.407973e-05 2.221567e-05 -3.613133e-05
Al -3.155435e+00 3.579598e+00 7.384079e+00 1.597209e-05 4.992662e-06 -6.101545e-05
Al -3.158099e+00 3.580039e+00 -2.664164e+00 2.828440e-05 -1.915800e-06 -1.049300e-04
Al -1.430440e-02 -1.852996e+00 2.378117e+00 1.316828e-05 3.275980e-05 -3.790262e-05
Al -2.189701e-02 -1.849071e+00 7.383248e+00 5.603688e-06 6.280474e-06 -7.628827e-05
Al -1.826237e-02 -1.850793e+00 -2.674713e+00 3.211452e-05 1.798809e-06 -7.967653e-05
Al -2.051153e-02 1.771458e+00 4.877577e+00 1.190817e-05 3.884436e-06 -9.887798e-05
Al -2.168138e-02 1.771882e+00 -5.176580e+00 1.747991e-05 2.180541e-06 -7.933239e-05
Al -1.917246e-02 1.777693e+00 -1.502142e-01 5.052569e-05 7.197659e-05 8.173465e-06
Al 3.112457e+00 -3.658310e+00 4.873416e+00 2.639747e-05 1.319087e-05 -7.966357e-05
Al 3.111267e+00 -3.657255e+00 -5.172924e+00 8.339801e-06 1.008080e-05 -5.959252e-05
Al 3.110959e+00 -3.657665e+00 -1.531647e-01 1.191768e-04 4.055504e-06 1.702688e-04
Al 1.547307e+00 -9.437553e-01 4.877461e+00 3.237621e-05 2.080710e-05 -6.953101e-05
Al 1.545551e+00 -9.423292e-01 -5.176601e+00 1.913120e-05 8.988234e-06 -7.127150e-05
Al 1.552133e+00 -9.435718e-01 -1.505436e-01 9.775072e-05 -2.278227e-05 1.387219e-04
Al 3.112277e+00 1.770115e+00 4.872809e+00 1.333666e-05 2.196158e-05 -7.411404e-05
Al 3.111072e+00 1.771190e+00 -5.171902e+00 2.373626e-05 1.811276e-05 -8.278767e-05
Al 3.110721e+00 1.770764e+00 -1.527641e-01 1.273350e-04 2.676753e-05 6.384259e-05
Al 6.246158e+00 -3.660166e+00 4.877616e+00 -1.566673e-06 5.472212e-05 -6.215102e-05
Al 6.245442e+00 -3.658757e+00 -5.176622e+00 1.359065e-05 3.025286e-05 -7.197734e-05
Al 6.240884e+00 -3.664678e+00 -1.502491e-01 4.846356e-05 1.312219e-05 -2.835122e-05
Al 4.677685e+00 -9.436808e-01 4.877441e+00 5.027438e-05 9.451617e-06 -3.683496e-05
Al 4.677001e+00 -9.423051e-01 -5.176641e+00 2.896821e-05 2.845129e-05 -6.540453e-05
Al 4.669960e+00 -9.436255e-01 -1.500204e-01 6.398459e-05 4.754578e-05 -1.308507e-04
Al -3.157635e+00 1.771434e+00 4.877335e+00 5.542329e-05 2.128925e-05 -6.366380e-05
Al -3.158798e+00 1.771864e+00 -5.176501e+00 3.964517e-05 1.360109e-05 -9.761264e-05
Al -3.161253e+00 1.777919e+00 -1.504407e-01 -3.137522e-06 -2.869952e-05 4.237832e-05
Al -2.140687e-02 -3.660202e+00 4.877536e+00 2.977116e-05 3.290565e-05 -6.112887e-05
Al -2.311544e-02 -3.658790e+00 -5.176602e+00 2.338155e-05 1.938805e-05 -8.394243e-05
Al -1.922391e-02 -3.664666e+00 -1.502431e-01 1.060544e-04 2.444702e-05 -6.840308e-06
Al -1.588930e+00 -9.441995e-01 4.873691e+00 2.588377e-05 1.917782e-05 -5.518032e-05
Al -1.590145e+00 -9.431635e-01 -5.174622e+00 3.437473e-05 2.225394e-05 -7.995727e-05
Ga -1.590414e+00 -9.441832e-01 -1.452874e-01 8.200600e-05 2.079733e-07 -3.181733e-05
N 1.545132e+00 8.655109e-01 4.279621e+00 -2.833165e-05 -5.228243e-05 1.082532e-04
N 1.545460e+00 8.673811e-01 -5.769117e+00 -2.797216e-05 -4.529410e-05 7.668725e-05
N 1.543344e+00 8.659077e-01 -7.464720e-01 -1.912162e-07 -5.970324e-05 1.346640e-04
N -2.137231e-02 3.579481e+00 4.279705e+00 -2.468024e-05 -3.602323e-05 1.157944e-04
N -2.381886e-02 3.581188e+00 -5.769270e+00 -1.110227e-05 -4.690037e-05 6.513238e-05
N -2.328584e-02 3.580254e+00 -7.478571e-01 9.539744e-06 -4.806171e-05 1.101060e-04
N 3.112787e+00 -1.848603e+00 4.279626e+00 -3.298932e-05 -3.188331e-05 9.309395e-05
N 3.111474e+00 -1.848904e+00 -5.769283e+00 -2.033824e-05 -2.560243e-05 5.403258e-05
N 3.111253e+00 -1.848376e+00 -7.476846e-01 6.655832e-06 -2.450044e-05 6.571673e-05
N -4.722872e+00 8.653557e-01 4.279524e+00 -2.077901e-05 -4.362552e-05 5.471680e-05
N -4.725507e+00 8.673491e-01 -5.769114e+00 -2.756732e-05 -5.330950e-05 7.537969e-05
N -4.723902e+00 8.658740e-01 -7.460522e-01 1.754227e-05 -6.164064e-05 2.099134e-05
N -6.290180e+00 3.579851e+00 4.279565e+00 -5.850469e-06 -4.230894e-05 7.887838e-05
N -6.291357e+00 3.579185e+00 -5.769100e+00 -1.068715e-05 -4.040295e-05 7.349924e-05
N -6.291648e+00 3.580994e+00 -7.462568e-01 1.831482e-06 -5.165368e-05 4.437968e-05
N -3.159749e+00 -1.851197e+00 4.289606e+00 -1.612410e-05 -2.955139e-05 4.179394e-05
N -3.157123e+00 -1.847883e+00 -5.767981e+00 -1.432437e-05 -3.304306e-05 6.864405e-05
N -3.199422e+00 -1.872507e+00 -7.657155e-01 6.701496e-05 -2.636932e-05 3.938501e-05
N -1.589133e+00 8.700742e-01 4.289523e+00 -2.185208e-05 -1.523677e-05 9.405915e-05
N -1.590336e+00 8.666784e-01 -5.767928e+00 -1.283870e-05 -2.377467e-05 7.663997e-05
N -1.590245e+00 9.145729e-01 -7.655644e-01 -4.482327e-05 -1.740453e-05 -1.870892e-05
N -3.156429e+00 3.579410e+00 4.279592e+00 -2.996398e-06 -1.845574e-05 8.894282e-05
N -3.156430e+00 3.581048e+00 -5.769284e+00 -3.512201e-06 -1.426566e-05 7.794751e-05
N -3.157477e+00 3.580327e+00 -7.476251e-01 2.244780e-05 -2.598466e-05 4.312752e-05
N -1.788677e-02 -1.851281e+00 4.289728e+00 -5.374851e-06 -1.514111e-05 8.552442e-05
N -2.293800e-02 -1.847986e+00 -5.767994e+00 -3.956317e-06 -7.294975e-06 7.737760e-05
N 1.875656e-02 -1.872544e+00 -7.657314e-01 -2.159582e-05 1.441896e-05 4.716253e-05
N -2.236344e-02 1.770495e+00 1.769066e+00 5.029816e-05 9.901085e-06 7.362623e-06
N -2.086582e-02 1.770474e+00 6.791573e+00 -2.110827e-05 -1.201966e-06 8.873830e-05
N -2.013209e-02 1.772523e+00 -3.263114e+00 -5.001459e-05 -1.226762e-05 6.782589e-05
N 3.112895e+00 -3.657992e+00 1.767933e+00 -9.555637e-05 2.856033e-05 -1.595629e-04
N 3.112667e+00 -3.658495e+00 6.788172e+00 -3.332824e-05 6.002606e-06 6.741774e-05
N 3.111376e+00 -3.657335e+00 -3.256628e+00 -3.567693e-05 -5.415646e-06 7.203010e-05
N 1.545432e+00 -9.444217e-01 1.769372e+00 -4.591422e-05 4.350462e-05 -1.365187e-04
N 1.546469e+00 -9.440345e-01 6.791580e+00 -1.963986e-05 2.097692e-05 7.719711e-05
N 1.546880e+00 -9.416200e-01 -3.263085e+00 -1.940334e-05 -1.252135e-05 8.959512e-05
N 3.112460e+00 1.770447e+00 1.767438e+00 -1.043484e-04 1.221294e-06 -6.847749e-05
N 3.112336e+00 1.769962e+00 6.787540e+00 -1.569275e-05 1.669054e-05 7.275786e-05
N 3.111139e+00 1.771053e+00 -3.255909e+00 -3.222333e-05 6.133674e-06 7.525447e-05
N 6.246698e+00 -3.657737e+00 1.768948e+00 -7.488754e-05 5.642362e-05 1.612406e-05
N 6.246699e+00 -3.659453e+00 6.791634e+00 -2.005439e-05 1.748293e-05 6.913995e-05
N 6.245711e+00 -3.660417e+00 -3.263198e+00 -6.168568e-05 3.656378e-05 7.087541e-05
N 4.680178e+00 -9.444466e-01 1.768732e+00 -3.540985e-05 5.087738e-05 1.247935e-04
N 4.678839e+00 -9.440501e-01 6.791570e+00 -1.781011e-05 4.353085e-05 6.661845e-05
N 4.675835e+00 -9.416879e-01 -3.263113e+00 -1.322394e-05 1.767468e-05 6.081953e-05
N -3.155527e+00 1.770418e+00 1.768865e+00 -6.617120e-05 -1.671667e-05 9.663461e-06
N -3.156972e+00 1.770347e+00 6.791401e+00 -1.723363e-05 2.211691e-05 7.655962e-05
N -3.160150e+00 1.772355e+00 -3.263028e+00 -1.405913e-05 3.068141e-05 6.966715e-05
N -2.153909e-02 -3.657591e+00 1.768980e+00 -1.098944e-04 -1.351151e-06 8.449035e-06
N -2.184021e-02 -3.659515e+00 6.791561e+00 -1.590266e-05 2.206235e-05 7.065896e-05
N -2.325662e-02 -3.660410e+00 -3.263153e+00 -2.496794e-05 2.304474e-05 6.497709e-05
N -1.588308e+00 -9.442384e-01 1.832336e+00 -2.218535e-04 -4.561712e-06 -7.604797e-06
N -1.588918e+00 -9.445684e-01 6.789866e+00 2.820189e-06 4.138719e-05 8.328505e-05
N -1.590170e+00 -9.434076e-01 -3.257439e+00 -1.245653e-05 4.638123e-05 5.447247e-05
