108
Energy=-1.672602e+06 Lattice="9.543332e+00 0.000000e+00 0.000000e+00 -4.774342e+00 8.265293e+00 0.000000e+00 1.141933e-03 -4.086711e-03 1.542020e+01" Stress="-4.465515e-04 -1.111357e-04 1.607431e-04 -1.177343e-04 -3.994999e-04 -4.426966e-05 1.547541e-04 -5.696055e-05 -1.666815e-03" Properties=species:S:1:pos:R:3:forces:R:3 Config_type=AlGaN_super3_27_1_39.xyz
Al 1.573423e+00 8.818712e-01 2.406779e+00 5.114083e-04 -6.801388e-04 1.404809e-04
Al 1.569696e+00 8.766321e-01 7.553179e+00 2.926775e-05 5.974905e-05 2.803342e-05
Al 1.556720e+00 8.819086e-01 -2.694334e+00 3.479223e-05 1.925157e-05 4.728128e-05
Al -2.459003e-02 3.633173e+00 2.421572e+00 -5.419353e-04 2.071957e-05 1.508968e-04
Al -3.486048e-02 3.632966e+00 7.563223e+00 -2.676032e-05 -9.954061e-06 7.056208e-05
Ga -3.770514e-02 3.619612e+00 -2.719394e+00 -3.028770e-05 -3.029381e-06 5.353003e-05
Al 3.149818e+00 -1.882989e+00 2.447940e+00 8.649391e-04 2.306512e-04 -3.462709e-04
Ga 3.147304e+00 -1.892846e+00 7.548953e+00 -6.745558e-05 1.418102e-05 9.116378e-05
Ga 3.146715e+00 -1.883331e+00 -2.728210e+00 -1.109469e-05 9.065531e-06 8.073025e-05
Al -4.803153e+00 8.891147e-01 2.419515e+00 -4.835771e-04 -7.209000e-04 3.111304e-04
Ga -4.791847e+00 8.952641e-01 7.580376e+00 1.031520e-04 8.449974e-05 3.385004e-05
Ga -4.800253e+00 8.872817e-01 -2.730527e+00 7.031713e-05 6.213062e-06 5.608343e-05
Al -6.375860e+00 3.630318e+00 2.396798e+00 4.181023e-05 3.594436e-05 3.467249e-05
Ga -6.394098e+00 3.621952e+00 7.576003e+00 6.481362e-06 -1.935952e-05 6.050056e-05
Ga -6.380222e+00 3.627224e+00 -2.707771e+00 -1.706412e-05 1.230301e-05 6.052631e-05
Al -3.200188e+00 -1.881707e+00 2.434452e+00 -2.550144e-04 1.189302e-04 -1.422243e-04
Ga -3.200203e+00 -1.885345e+00 7.567442e+00 -2.023975e-05 4.246960e-05 1.023501e-04
Ga -3.201771e+00 -1.874037e+00 -2.721456e+00 -4.377268e-05 1.691994e-05 6.883521e-05
Ga -1.610059e+00 8.832129e-01 2.435960e+00 -9.995774e-06 -1.994967e-04 4.330843e-05
Ga -1.619155e+00 8.908102e-01 7.544236e+00 9.339574e-05 6.882416e-06 1.215632e-04
Al -1.606175e+00 8.890544e-01 -2.711208e+00 5.318569e-05 -5.160549e-05 3.802633e-05
Al -3.208504e+00 3.640525e+00 2.431206e+00 4.267125e-05 5.448310e-04 4.228403e-04
Al -3.184761e+00 3.623287e+00 7.550313e+00 3.785226e-05 -8.157160e-05 -2.167850e-05
Al -3.204116e+00 3.637119e+00 -2.720308e+00 -6.914715e-06 -6.495480e-05 1.261617e-04
Al -1.380694e-02 -1.886240e+00 2.431912e+00 -2.865977e-04 1.359871e-05 -7.409379e-04
Ga -1.097493e-02 -1.867812e+00 7.537427e+00 6.200857e-06 -5.891774e-05 1.665737e-04
Al -1.705410e-02 -1.875503e+00 -2.697232e+00 -2.357510e-05 -5.529369e-05 1.004574e-04
Ga -2.118629e-02 1.795397e+00 4.994390e+00 1.048259e-05 8.619720e-05 7.271449e-05
Ga -1.626592e-02 1.808578e+00 -5.295954e+00 -2.815820e-06 7.188189e-05 8.325952e-05
Al -1.242454e-02 1.794362e+00 -1.397650e-01 -2.922594e-06 3.457343e-05 9.695950e-06
Al 3.151620e+00 -3.722882e+00 4.973164e+00 4.900448e-05 -3.799161e-04 5.084917e-05
Al 3.161902e+00 -3.722993e+00 -5.303434e+00 -2.750624e-06 6.717878e-05 4.831150e-05
Ga 3.147419e+00 -3.724041e+00 -1.176278e-01 -4.450181e-05 1.082697e-04 1.535823e-04
Al 1.563845e+00 -9.594059e-01 4.958372e+00 3.406971e-04 3.952945e-04 1.099699e-05
Ga 1.581742e+00 -9.446241e-01 -5.267098e+00 -8.524410e-05 9.528779e-05 1.274328e-04
Ga 1.560372e+00 -9.484763e-01 -1.314931e-01 -1.060786e-04 -1.297622e-05 1.658609e-04
Ga 3.161250e+00 1.787293e+00 4.969755e+00 -5.746982e-06 -5.960380e-05 -3.474460e-05
Al 3.152488e+00 1.792042e+00 -5.284363e+00 1.453364e-05 6.040532e-06 5.571433e-05
Al 3.147782e+00 1.800885e+00 -1.244475e-01 3.077262e-05 -4.880487e-05 1.280008e-04
Ga 6.336070e+00 -3.712641e+00 4.965396e+00 1.422455e-05 -1.162483e-05 1.123131e-04
Al 6.324606e+00 -3.716066e+00 -5.294614e+00 2.903180e-05 3.809869e-06 7.052912e-05
Ga 6.346306e+00 -3.729310e+00 -1.091426e-01 1.233486e-05 6.318939e-05 -1.590101e-05
Ga 4.751306e+00 -9.540126e-01 4.963852e+00 5.610289e-07 8.056427e-05 -2.070750e-05
Al 4.748194e+00 -9.551372e-01 -5.297433e+00 -6.053117e-05 7.854888e-06 2.617858e-05
Ga 4.742133e+00 -9.500914e-01 -1.021520e-01 -8.745356e-05 3.008385e-06 2.425092e-04
Al -3.203946e+00 1.806830e+00 4.972650e+00 1.260480e-04 -1.574752e-04 2.991050e-04
Al -3.208043e+00 1.811523e+00 -5.273344e+00 4.668223e-05 -1.392252e-05 7.545277e-05
Ga -3.208305e+00 1.812980e+00 -1.454624e-01 4.743959e-05 1.959823e-05 -6.148153e-05
Ga -2.422575e-03 -3.712610e+00 4.972988e+00 1.954754e-05 -1.789606e-04 3.898755e-05
Ga -9.311584e-03 -3.728447e+00 -5.285851e+00 4.921042e-05 -1.770612e-05 5.875528e-05
Al -1.577781e-02 -3.717042e+00 -1.322498e-01 4.035875e-04 7.009168e-05 8.526850e-05
Al -1.606756e+00 -9.581516e-01 4.964852e+00 -1.080708e-04 4.799232e-05 9.538233e-05
Ga -1.625115e+00 -9.518346e-01 -5.258729e+00 -3.209766e-05 1.534046e-05 1.559986e-04
Ga -1.598126e+00 -9.570750e-01 -1.398882e-01 -1.820659e-05 -4.746773e-05 1.131716e-04
N 1.565891e+00 8.359442e-01 4.316942e+00 -4.133305e-05 4.028428e-05 -1.256682e-04
N 1.609378e+00 8.981732e-01 -5.954445e+00 6.732396e-05 -2.904887e-05 -1.332242e-04
N 1.570429e+00 9.300301e-01 -7.681695e-01 3.366192e-05 -1.184214e-05 -1.660811e-05
N -6.725380e-02 3.649700e+00 4.330115e+00 3.752815e-05 4.713741e-05 -5.273700e-06
N -2.856297e-02 3.683059e+00 -5.932924e+00 -5.263241e-06 1.250312e-05 -7.680312e-05
N -2.705679e-02 3.591169e+00 -7.413431e-01 -2.741695e-05 -8.694803e-05 -1.387325e-05
N 3.115112e+00 -1.907274e+00 4.365096e+00 7.341863e-05 1.111454e-04 -1.300191e-05
N 3.192692e+00 -1.901619e+00 -5.881258e+00 -7.548073e-06 -3.907464e-06 -6.591641e-05
N 3.161131e+00 -1.879717e+00 -7.572877e-01 -1.588412e-05 -1.502034e-05 -9.976731e-05
N -4.751922e+00 9.077425e-01 4.327216e+00 -1.288704e-04 9.356925e-06 -2.011167e-04
N -4.791273e+00 8.892204e-01 -5.845521e+00 3.848651e-05 6.762868e-06 -4.077769e-05
N -4.841229e+00 9.013324e-01 -7.481598e-01 2.006283e-05 8.151666e-05 -8.972965e-05
N -6.378086e+00 3.631472e+00 4.305559e+00 5.754118e-05 9.081249e-05 -3.580825e-05
N -6.427533e+00 3.610285e+00 -5.862972e+00 -4.961518e-05 1.930835e-05 -8.063976e-05
N -6.343531e+00 3.609388e+00 -7.150553e-01 -1.763835e-04 -1.225039e-04 -4.440400e-05
N -3.159462e+00 -1.854309e+00 4.336378e+00 1.079263e-05 2.549667e-06 -5.634449e-05
N -3.238580e+00 -1.897019e+00 -5.871579e+00 -2.961678e-05 1.475642e-05 -7.638812e-05
N -3.210839e+00 -1.879441e+00 -7.515672e-01 3.754390e-05 3.788831e-07 -9.642135e-05
N -1.650365e+00 8.603337e-01 4.411748e+00 1.399805e-04 -6.966357e-05 -7.837179e-05
N -1.661604e+00 9.040591e-01 -5.896169e+00 5.938169e-05 -5.609879e-05 -1.363640e-04
N -1.573775e+00 9.080454e-01 -7.873098e-01 5.909470e-05 -3.167833e-05 -1.822258e-06
N -3.162367e+00 3.609210e+00 4.344690e+00 -1.996914e-04 1.743094e-04 -5.997044e-04
N -3.160540e+00 3.606264e+00 -5.942922e+00 3.436591e-06 -4.227784e-05 -8.710083e-05
N -3.244134e+00 3.662241e+00 -8.035426e-01 -8.956282e-05 -7.446720e-05 1.981418e-05
N -1.999210e-02 -1.833919e+00 4.349083e+00 -2.536278e-04 -1.912917e-04 3.197551e-04
N -2.119051e-02 -1.868976e+00 -5.912532e+00 -8.281260e-06 -5.207378e-05 -1.293475e-04
N -1.847348e-02 -1.927765e+00 -7.840599e-01 -1.914257e-05 -6.297779e-05 -1.229330e-06
N 1.783138e-02 1.817978e+00 1.784006e+00 -2.900784e-04 2.423099e-04 -2.015329e-04
N 2.277542e-02 1.822106e+00 6.978579e+00 -2.587318e-05 8.136708e-05 -6.884886e-05
N -1.977731e-02 1.747126e+00 -3.313093e+00 -1.780161e-05 2.823427e-05 -9.228243e-05
N 3.155683e+00 -3.713678e+00 1.861581e+00 1.854472e-04 -2.334618e-04 3.751309e-05
N 3.160826e+00 -3.766839e+00 6.904604e+00 7.704056e-05 8.982181e-05 7.309847e-05
N 3.115851e+00 -3.742470e+00 -3.385120e+00 2.302697e-06 3.334861e-05 -8.794108e-05
N 1.568724e+00 -9.612253e-01 1.854786e+00 -1.803478e-04 6.275323e-04 -1.949932e-05
N 1.573229e+00 -9.081329e-01 6.880480e+00 -8.288233e-05 -1.618291e-05 6.274620e-05
N 1.522751e+00 -9.258066e-01 -3.286136e+00 -8.452781e-05 5.333392e-05 -3.673475e-05
N 3.156494e+00 1.793593e+00 1.799031e+00 -8.180946e-05 -5.619507e-06 -7.091540e-05
N 3.120891e+00 1.771782e+00 6.943025e+00 -1.827639e-05 1.079726e-05 -2.264856e-05
N 3.103770e+00 1.771175e+00 -3.369137e+00 -3.938957e-05 -1.534646e-06 -8.725993e-05
N 6.339035e+00 -3.714182e+00 1.868937e+00 2.964147e-04 1.233426e-04 -4.652179e-05
N 6.299067e+00 -3.741455e+00 6.944673e+00 2.435259e-05 1.305022e-05 -6.389068e-05
N 6.336735e+00 -3.719599e+00 -3.382856e+00 4.061812e-05 -3.919981e-05 -9.458934e-05
N 4.746699e+00 -9.589470e-01 1.883018e+00 -5.395054e-04 -3.036188e-04 2.563642e-04
N 4.749304e+00 -9.531853e-01 6.937158e+00 -7.733019e-05 -4.554742e-05 -7.817246e-05
N 4.745789e+00 -9.571894e-01 -3.392431e+00 -6.456185e-05 -7.407536e-06 -1.013088e-04
N -3.242882e+00 1.824911e+00 1.831508e+00 5.059855e-04 2.261911e-04 -2.093548e-04
N -3.213112e+00 1.844695e+00 6.889749e+00 4.725543e-05 -2.229032e-05 3.374436e-05
N -3.162626e+00 1.826360e+00 -3.344339e+00 3.315459e-05 1.916255e-05 -1.165544e-04
N -1.069965e-02 -3.709651e+00 1.802678e+00 -6.495805e-05 -1.222966e-04 2.161663e-05
N 2.115256e-02 -3.743991e+00 6.955209e+00 1.525071e-05 3.673393e-05 -5.073342e-05
N 1.982583e-02 -3.688756e+00 -3.304460e+00 1.839184e-05 9.282224e-06 -1.102895e-04
N -1.606533e+00 -1.003747e+00 1.838353e+00 1.351375e-04 -7.944803e-05 8.391322e-06
N -1.615421e+00 -9.608240e-01 6.876868e+00 -7.478234e-05 -3.383854e-05 -1.621149e-04
N -1.569095e+00 -9.310268e-01 -3.279970e+00 -3.416970e-05 1.621241e-05 -1.118263e-04
