108
Energy=-2.496561e+06 Lattice="9.650138e+00 0.000000e+00 0.000000e+00 -4.825270e+00 8.357791e+00 0.000000e+00 -1.824997e-03 -3.774404e-03 1.565807e+01" Stress="6.602208e-06 -5.114749e-07 4.239609e-05 -6.878301e-07 4.255418e-05 -6.515980e-05 3.868456e-05 -7.741452e-05 4.646637e-06" Properties=species:S:1:pos:R:3:forces:R:3 Config_type=AlGaN_super3_45_2_13.xyz
Al 1.579168e+00 9.024824e-01 2.470556e+00 -9.412988e-05 2.591461e-04 1.683533e-05
Al 1.595935e+00 8.939929e-01 7.670969e+00 -6.649973e-05 3.834454e-05 7.528563e-06
Ga 1.584224e+00 8.974525e-01 -2.759395e+00 4.748295e-05 -8.484455e-05 -7.029804e-05
Al -2.381621e-02 3.659812e+00 2.472164e+00 -2.766050e-05 2.058951e-04 -1.355225e-04
Al -3.039845e-02 3.674688e+00 7.661005e+00 -6.171349e-05 1.094294e-05 -4.306980e-05
Ga -2.297257e-02 3.668136e+00 -2.748033e+00 6.312202e-06 -1.428872e-05 1.128436e-04
Ga 3.191880e+00 -1.905055e+00 2.484735e+00 -3.980385e-05 1.788417e-04 -5.655555e-05
Al 3.191982e+00 -1.908679e+00 7.657663e+00 -4.264074e-05 -6.042317e-05 4.058418e-06
Ga 3.191542e+00 -1.895416e+00 -2.756782e+00 -1.382351e-05 -1.005515e-04 2.350952e-05
Ga -4.864076e+00 8.897112e-01 2.484609e+00 -2.119790e-05 3.134571e-04 -5.823091e-05
Ga -4.878239e+00 8.859526e-01 7.677024e+00 2.306370e-05 5.005168e-05 -6.889995e-06
Ga -4.859001e+00 8.935628e-01 -2.772444e+00 -1.603886e-05 -8.941256e-05 4.628180e-05
Ga -6.470857e+00 3.658767e+00 2.482944e+00 -5.405836e-05 2.316707e-04 -3.899524e-05
Ga -6.475596e+00 3.648158e+00 7.672872e+00 9.224707e-06 3.765224e-05 1.127381e-05
Ga -6.459772e+00 3.667099e+00 -2.767368e+00 1.198588e-06 -1.053550e-04 7.221730e-06
Ga -3.245320e+00 -1.907185e+00 2.472936e+00 -8.050958e-05 1.899393e-04 -9.344120e-06
Ga -3.253902e+00 -1.908656e+00 7.678437e+00 2.862241e-05 -3.341723e-06 -1.034672e-08
Ga -3.243823e+00 -1.898513e+00 -2.759935e+00 2.236563e-05 -1.040219e-04 2.695745e-05
Ga -1.608742e+00 9.007686e-01 2.461447e+00 -7.329899e-06 2.792559e-04 -4.335533e-05
Ga -1.616870e+00 8.949757e-01 7.675158e+00 2.952662e-05 5.177184e-05 -1.750337e-05
Ga -1.620645e+00 8.990534e-01 -2.743577e+00 -3.011833e-06 -1.142698e-04 2.298848e-06
Ga -3.223506e+00 3.677883e+00 2.487483e+00 -4.934675e-05 1.760572e-04 -6.866877e-05
Ga -3.218073e+00 3.683579e+00 7.666535e+00 1.447094e-05 4.134019e-05 -6.601131e-06
Ga -3.237168e+00 3.678445e+00 -2.759014e+00 1.763658e-05 -7.084254e-05 3.042885e-05
Ga -1.518044e-02 -1.888587e+00 2.475429e+00 -4.285023e-05 3.518754e-05 -8.081083e-05
Ga -9.822886e-03 -1.888834e+00 7.678936e+00 -2.019123e-05 -3.851798e-06 -3.362633e-06
Ga -1.696510e-02 -1.894368e+00 -2.759010e+00 2.006613e-06 -9.114931e-05 3.067404e-05
Ga -4.937089e-03 1.830303e+00 5.075087e+00 3.684053e-05 -5.435169e-05 -9.414966e-06
Ga -4.790498e-03 1.824642e+00 -5.400932e+00 4.200827e-05 -1.759539e-05 -2.043038e-05
Al -1.426647e-02 1.821743e+00 -1.184390e-01 -4.167221e-05 2.745877e-04 1.175004e-04
Al 3.207402e+00 -3.758469e+00 5.080108e+00 2.005690e-05 -1.321500e-04 3.672808e-05
Ga 3.203648e+00 -3.749362e+00 -5.389962e+00 4.256050e-05 -4.163532e-05 5.619068e-05
Ga 3.203098e+00 -3.765722e+00 -1.305968e-01 8.877605e-06 1.825908e-04 -8.137756e-05
Ga 1.599589e+00 -9.554795e-01 5.083682e+00 5.335666e-06 -5.136152e-05 4.258955e-05
Ga 1.601180e+00 -9.526535e-01 -5.399007e+00 1.605853e-05 -3.071923e-05 -2.128856e-06
Ga 1.582530e+00 -9.520872e-01 -1.275029e-01 -1.501943e-05 1.000294e-04 -8.122107e-05
Al 3.179352e+00 1.808283e+00 5.071801e+00 4.567139e-06 -8.733943e-05 1.773364e-06
Al 3.184485e+00 1.814483e+00 -5.382559e+00 -9.029382e-06 -3.589284e-05 2.945789e-05
Ga 3.179185e+00 1.813321e+00 -1.320369e-01 -4.069468e-06 2.256884e-04 -2.811759e-05
Ga 6.394601e+00 -3.771376e+00 5.073976e+00 4.455502e-05 -1.217298e-04 -2.762336e-05
Ga 6.406432e+00 -3.768123e+00 -5.386356e+00 1.154464e-05 -6.218034e-05 5.994108e-05
Ga 6.401582e+00 -3.768563e+00 -1.278594e-01 -7.740902e-05 1.674217e-04 -9.204060e-05
Ga 4.789346e+00 -9.704885e-01 5.089311e+00 4.183242e-05 -7.908534e-05 1.587146e-06
Ga 4.788051e+00 -9.637695e-01 -5.389909e+00 1.988019e-05 -5.221804e-05 4.129054e-05
Ga 4.799454e+00 -9.672978e-01 -1.373730e-01 -6.259682e-05 2.739760e-04 -2.228898e-06
Ga -3.244675e+00 1.822217e+00 5.075656e+00 -5.826619e-06 -1.355009e-04 -1.214164e-05
Ga -3.247659e+00 1.818347e+00 -5.374403e+00 -1.423258e-05 -7.493436e-05 2.157076e-05
Ga -3.234029e+00 1.817262e+00 -1.391906e-01 -7.185844e-05 1.866169e-04 2.117296e-05
Ga -1.990085e-02 -3.764542e+00 5.079661e+00 -1.025616e-05 -1.553610e-04 -1.207221e-05
Ga -2.779127e-02 -3.762768e+00 -5.379780e+00 -2.370830e-05 -7.579105e-05 4.477724e-05
Ga -2.305796e-02 -3.757095e+00 -1.373833e-01 -7.308789e-05 1.008735e-04 3.409892e-05
Ga -1.630353e+00 -9.681711e-01 5.075728e+00 -1.767260e-05 -7.569335e-05 3.198174e-05
Ga -1.630276e+00 -9.639796e-01 -5.363628e+00 -2.171087e-05 -7.269459e-05 2.396164e-05
Ga -1.626358e+00 -9.608114e-01 -1.429044e-01 -1.171857e-04 1.281168e-04 -7.305704e-05
N 1.622542e+00 9.124733e-01 4.397954e+00 5.991051e-05 1.313008e-04 -4.065218e-05
N 1.633140e+00 9.178690e-01 -6.060424e+00 2.385830e-05 7.294459e-05 9.141793e-06
N 1.540010e+00 9.174527e-01 -7.697544e-01 2.051507e-06 -1.738721e-04 1.193019e-04
N -6.834190e-02 3.692122e+00 4.399295e+00 -6.170797e-05 1.613012e-04 -7.013569e-05
N -2.655662e-02 3.677581e+00 -6.079233e+00 -1.594545e-06 7.795763e-05 -7.895092e-05
N -2.322026e-02 3.621573e+00 -7.611899e-01 3.963156e-05 -2.465705e-04 -5.729994e-05
N 3.191556e+00 -1.949687e+00 4.467070e+00 -2.305539e-05 9.368289e-05 -1.952649e-06
N 3.193114e+00 -1.902147e+00 -6.079499e+00 3.055653e-06 5.780548e-05 -6.932826e-05
N 3.188475e+00 -1.898219e+00 -7.729536e-01 1.561120e-05 -1.934715e-04 2.415612e-05
N -4.893543e+00 9.100182e-01 4.468232e+00 -1.206385e-05 1.909409e-04 4.955897e-05
N -4.895686e+00 9.177698e-01 -5.994545e+00 -8.750166e-06 7.395064e-05 -1.381898e-06
N -4.854389e+00 8.929273e-01 -7.864426e-01 8.060856e-05 -2.601261e-04 -2.432204e-06
N -6.458838e+00 3.621889e+00 4.467432e+00 -8.302076e-07 1.472667e-04 4.116192e-05
N -6.458288e+00 3.620734e+00 -5.998279e+00 -9.609354e-06 8.912157e-05 -7.388178e-06
N -6.459258e+00 3.670950e+00 -7.815392e-01 7.334014e-05 -1.316518e-04 2.470835e-05
N -3.243093e+00 -1.900649e+00 4.449645e+00 -2.404161e-05 1.487284e-04 3.262098e-06
N -3.238828e+00 -1.897091e+00 -6.003464e+00 -1.162961e-05 6.283914e-05 -2.370424e-06
N -3.241223e+00 -1.901519e+00 -7.756449e-01 8.638960e-05 -2.166000e-04 2.655592e-05
N -1.622392e+00 8.939042e-01 4.442014e+00 -8.345307e-05 1.266321e-04 -3.209680e-05
N -1.629325e+00 8.918545e-01 -6.008439e+00 -2.422810e-05 4.481489e-05 3.907297e-05
N -1.581381e+00 9.205913e-01 -7.496676e-01 7.554332e-05 -1.770246e-04 6.329218e-05
N -3.192210e+00 3.700342e+00 4.470907e+00 1.634178e-05 1.603931e-04 2.729268e-06
N -3.234161e+00 3.677329e+00 -6.014651e+00 -2.317213e-05 6.910599e-05 -3.941984e-06
N -3.237207e+00 3.676804e+00 -7.785004e-01 -6.539366e-07 -1.503709e-04 -1.595167e-06
N -1.542135e-02 -1.896619e+00 4.451732e+00 -1.387719e-05 1.172228e-04 8.951542e-06
N -2.069732e-02 -1.893822e+00 -6.003513e+00 -1.833910e-05 4.112181e-05 -1.695109e-05
N -1.732909e-02 -1.895956e+00 -7.765098e-01 7.565226e-05 -1.310235e-04 -2.637353e-05
N 2.522570e-02 1.844876e+00 1.820296e+00 1.016444e-04 -3.881909e-04 -1.005511e-04
N 2.573071e-02 1.841048e+00 7.070970e+00 4.087985e-05 -1.011408e-05 5.282497e-05
N -1.944109e-02 1.821182e+00 -3.419044e+00 -1.176123e-05 5.897416e-05 1.200591e-05
N 3.239395e+00 -3.779945e+00 1.850627e+00 -2.545704e-05 -1.166876e-04 6.078189e-05
N 3.241298e+00 -3.734442e+00 7.013440e+00 5.668803e-05 1.002395e-05 9.496895e-06
N 3.200330e+00 -3.752281e+00 -3.405103e+00 5.162667e-05 1.280221e-05 -8.350459e-05
N 1.589572e+00 -9.151763e-01 1.860778e+00 2.041055e-05 -1.880269e-05 1.913299e-04
N 1.628955e+00 -9.385239e-01 7.078052e+00 4.980058e-05 -3.844627e-05 3.380189e-05
N 1.590068e+00 -9.609054e-01 -3.410948e+00 4.387372e-06 -6.730964e-06 2.066350e-05
N 3.149688e+00 1.791397e+00 1.847608e+00 1.159927e-05 -2.332904e-04 7.069930e-05
N 3.144622e+00 1.787359e+00 6.991519e+00 7.487598e-06 -4.109577e-05 -8.548339e-05
N 3.185556e+00 1.816024e+00 -3.457726e+00 4.747817e-05 6.252249e-05 -3.235361e-05
N 6.366517e+00 -3.783518e+00 1.860235e+00 1.323699e-04 -1.457423e-04 5.613412e-05
N 6.364918e+00 -3.784284e+00 7.056484e+00 6.570576e-06 -1.414265e-05 2.490607e-05
N 6.404753e+00 -3.757826e+00 -3.401852e+00 -3.989557e-05 2.815579e-05 -7.715468e-05
N 4.798001e+00 -9.669256e-01 1.841298e+00 4.833030e-05 -2.637665e-04 -2.959844e-05
N 4.758347e+00 -9.924538e-01 7.068030e+00 -1.440052e-06 -4.815966e-05 -7.658288e-07
N 4.797076e+00 -9.690595e-01 -3.406094e+00 5.692443e-06 5.280226e-05 -3.689939e-05
N -3.243596e+00 1.817455e+00 1.843841e+00 2.640530e-05 -2.222109e-04 1.051551e-04
N -3.245202e+00 1.811782e+00 7.050418e+00 -3.446233e-05 -5.237468e-05 -6.504384e-06
N -3.236948e+00 1.816813e+00 -3.391292e+00 -1.473704e-05 5.175541e-05 -2.117345e-05
N -2.402859e-02 -3.758390e+00 1.847123e+00 1.961691e-05 -1.544342e-04 2.723192e-05
N -2.841597e-02 -3.759030e+00 7.054015e+00 -2.605900e-05 -3.493127e-05 3.296484e-06
N -2.401294e-02 -3.754268e+00 -3.398554e+00 -1.364649e-06 2.026308e-05 -3.054999e-05
N -1.632215e+00 -9.680935e-01 1.835186e+00 4.373338e-05 -1.704677e-04 3.951977e-05
N -1.633567e+00 -9.707923e-01 7.047343e+00 -2.536614e-05 -8.197068e-05 -1.294429e-06
N -1.631092e+00 -9.622482e-01 -3.382881e+00 -1.905296e-05 1.697148e-05 -4.517736e-06
