108
Energy=-2313459.341025 Lattice="9.629738 0.000000 0.000000 -4.818677 8.336933 0.000000 -0.001989 0.000148 15.605795" Stress="0.000003 -0.000001 -0.000000 -0.000001 0.000002 0.000000 -0.000000 0.000000 0.000004" Properties=species:S:1:pos:R:3:forces:R:3
Al 1.571139 0.896705 2.466826 0.000210 0.000117 0.000103
Al 1.575561 0.878847 7.651310 0.000221 -0.000002 0.000491
Al 1.581838 0.876255 -2.763115 0.000225 -0.000005 0.000179
Al -0.029861 3.657074 2.437923 0.000112 -0.000063 0.000463
Ga -0.022382 3.655729 7.650966 0.000066 -0.000078 0.000622
Ga -0.013354 3.666091 -2.737635 0.000144 0.000126 0.000730
Ga 3.180083 -1.907371 2.439201 0.000257 -0.000077 0.000524
Al 3.177496 -1.883744 7.661427 0.000129 0.000007 0.000284
Ga 3.173221 -1.887575 -2.742409 0.000195 -0.000068 0.000527
Ga -4.843386 0.899370 2.445436 0.000249 -0.000034 0.000232
Ga -4.856031 0.881407 7.656554 0.000293 0.000034 0.000245
Ga -4.844647 0.892197 -2.735919 0.000208 0.000058 0.000001
Ga -6.457177 3.659659 2.437901 0.000146 0.000010 0.000315
Ga -6.449645 3.663509 7.674667 0.000118 -0.000046 0.000318
Ga -6.455364 3.667212 -2.753208 0.000117 0.000123 0.000495
Ga -3.237833 -1.905435 2.447512 0.000164 -0.000063 0.000286
Ga -3.243358 -1.898692 7.667970 0.000155 0.000098 0.000306
Ga -3.231648 -1.907975 -2.746334 0.000161 -0.000060 0.000344
Ga -1.619914 0.910753 2.452562 0.000383 -0.000250 0.000236
Ga -1.612079 0.897110 7.642385 0.000330 -0.000161 0.000303
Ga -1.622858 0.894294 -2.727831 0.000258 -0.000262 0.000219
Al -3.218317 3.663215 2.428440 -0.000065 -0.000143 0.000421
Ga -3.235664 3.677425 7.667764 0.000125 -0.000244 0.000480
Ga -3.232850 3.667665 -2.734111 0.000021 -0.000080 0.000475
Ga -0.011611 -1.888843 2.457693 0.000114 -0.000272 0.000240
Ga -0.001367 -1.888132 7.677691 0.000190 -0.000120 0.000296
Ga -0.004414 -1.884526 -2.771384 0.000162 -0.000225 0.000289
Al -0.012946 1.816859 5.035283 -0.000058 0.000123 0.000245
Ga -0.004666 1.807769 -5.342647 -0.000206 0.000179 0.000726
Ga -0.015336 1.824246 -0.142281 -0.000242 0.000303 0.000666
Ga 3.193418 -3.758728 5.042284 -0.000095 0.000173 0.000611
Ga 3.186672 -3.733239 -5.359541 -0.000125 0.000140 0.000530
Al 3.195596 -3.762123 -0.132038 -0.000063 0.000080 0.000206
Ga 1.584605 -0.950007 5.065104 -0.000316 0.000240 0.000429
Al 1.588379 -0.964480 -5.367417 -0.000115 0.000022 0.000253
Ga 1.587792 -0.961506 -0.142730 -0.000309 0.000281 0.000368
Ga 3.163117 1.810532 5.057582 -0.000105 -0.000026 0.000439
Ga 3.168568 1.815704 -5.349154 -0.000061 -0.000020 0.000407
Ga 3.175243 1.811297 -0.153536 -0.000157 0.000064 0.000818
Ga 6.386652 -3.758441 5.041676 -0.000077 -0.000033 0.000671
Al 6.406257 -3.748058 -5.350498 -0.000011 0.000002 0.000285
Al 6.383161 -3.749832 -0.134654 0.000024 -0.000033 0.000292
Ga 4.787467 -0.971266 5.064485 -0.000233 -0.000080 0.000191
Ga 4.781141 -0.978573 -5.350172 -0.000230 -0.000057 0.000355
Ga 4.797561 -0.976765 -0.154149 -0.000329 0.000126 0.000773
Ga -3.226418 1.824385 5.041417 -0.000169 0.000019 0.000375
Ga -3.236502 1.823139 -5.346635 -0.000169 -0.000059 0.000453
Al -3.228924 1.827026 -0.133208 -0.000123 -0.000051 0.000307
Ga -0.014596 -3.750170 5.040512 -0.000095 0.000020 0.000469
Al -0.024627 -3.738994 -5.340742 -0.000097 0.000059 0.000196
Ga -0.012186 -3.754678 -0.145372 -0.000120 0.000073 0.000709
Ga -1.622696 -0.958762 5.060463 -0.000290 -0.000034 0.000149
Ga -1.617868 -0.977767 -5.347706 -0.000329 -0.000031 0.000194
Ga -1.633004 -0.969495 -0.151976 -0.000337 0.000140 0.000584
N 1.537295 0.908498 4.387540 0.000396 -0.000038 -0.000172
N 1.576168 0.839606 -6.028224 0.000246 0.000121 -0.000290
N 1.577576 0.880480 -0.847487 0.000299 -0.000007 0.000044
N -0.028401 3.617469 4.374031 0.000103 0.000082 -0.000410
N 0.017515 3.683279 -5.966420 0.000030 -0.000077 -0.000627
N -0.023614 3.713819 -0.744006 0.000082 -0.000205 -0.000723
N 3.182753 -1.896542 4.416994 0.000224 -0.000113 -0.000342
N 3.144775 -1.868644 -6.019830 0.000275 -0.000134 -0.000205
N 3.181109 -1.947655 -0.752924 0.000261 -0.000040 -0.000459
N -4.843312 0.888842 4.427794 0.000225 0.000194 -0.000278
N -4.843293 0.887381 -5.974171 0.000180 0.000153 -0.000336
N -4.796173 0.914295 -0.750914 0.000169 -0.000004 -0.000232
N -6.447292 3.663801 4.414305 0.000060 0.000064 -0.000489
N -6.442262 3.714054 -5.937419 0.000028 -0.000064 -0.000477
N -6.490216 3.693162 -0.760057 0.000073 0.000020 -0.000458
N -3.233032 -1.893668 4.424718 0.000167 -0.000011 -0.000367
N -3.233234 -1.940721 -5.957472 0.000175 0.000094 -0.000316
N -3.231009 -1.950081 -0.764207 0.000138 0.000102 -0.000309
N -1.587353 0.915018 4.440166 0.000144 -0.000091 -0.000313
N -1.624136 0.892117 -5.983106 0.000260 -0.000028 -0.000469
N -1.668325 0.915309 -0.744360 0.000326 -0.000061 -0.000318
N -3.230717 3.667510 4.351868 0.000117 -0.000113 -0.000306
N -3.278981 3.693399 -5.959370 0.000147 -0.000135 -0.000497
N -3.190083 3.643382 -0.742694 0.000075 -0.000050 -0.000516
N -0.018251 -1.887995 4.431822 0.000205 -0.000242 -0.000345
N 0.024067 -1.917165 -5.935388 0.000103 -0.000104 -0.000324
N -0.015797 -1.894157 -0.789888 0.000111 -0.000275 -0.000207
N 0.024811 1.835723 1.849631 -0.000241 0.000080 -0.000683
N 0.025387 1.790812 6.971821 -0.000197 0.000306 -0.000382
N 0.019985 1.789935 -3.354113 -0.000191 0.000287 -0.000566
N 3.193564 -3.798464 1.802277 -0.000094 0.000271 -0.000201
N 3.190059 -3.700172 7.039307 -0.000040 0.000074 -0.000577
N 3.192684 -3.744958 -3.380581 -0.000036 0.000117 -0.000605
N 1.583807 -0.909071 1.840284 -0.000196 -0.000130 -0.000437
N 1.625540 -0.939415 7.056603 -0.000272 0.000002 -0.000491
N 1.593133 -0.916360 -3.435100 -0.000297 0.000148 -0.000272
N 3.135252 1.784592 1.834227 0.000072 0.000052 -0.000799
N 3.136618 1.792620 7.047236 -0.000099 0.000099 -0.000475
N 3.143034 1.789464 -3.360571 -0.000098 0.000045 -0.000415
N 6.351576 -3.770667 1.789553 -0.000004 0.000016 -0.000193
N 6.397596 -3.748818 7.015966 -0.000089 -0.000049 -0.000391
N 6.396497 -3.748018 -3.436944 -0.000118 -0.000142 -0.000308
N 4.790889 -0.965247 1.821873 -0.000245 -0.000106 -0.000803
N 4.749508 -0.993257 7.048928 -0.000145 -0.000043 -0.000406
N 4.789957 -0.967977 -3.368082 -0.000281 -0.000079 -0.000310
N -3.233226 1.859001 1.791616 -0.000286 0.000092 -0.000139
N -3.236348 1.819143 7.021618 -0.000299 0.000109 -0.000242
N -3.231837 1.814293 -3.373676 -0.000209 0.000110 -0.000311
N 0.020344 -3.767912 1.841014 -0.000162 -0.000018 -0.000753
N -0.022916 -3.744677 7.020560 -0.000201 0.000029 -0.000386
N -0.018542 -3.749387 -3.418962 -0.000147 -0.000100 -0.000142
N -1.626205 -0.962605 1.828817 -0.000307 -0.000067 -0.000645
N -1.623832 -0.970930 7.040322 -0.000354 -0.000114 -0.000190
N -1.627561 -0.961938 -3.370160 -0.000334 0.000033 -0.000264
