108
Energy=-1.626827e+06 Lattice="9.500563e+00 0.000000e+00 0.000000e+00 -4.758737e+00 8.224110e+00 0.000000e+00 -4.649818e-04 1.484696e-04 1.533765e+01" Stress="-1.648271e-02 -1.835848e-04 8.019849e-05 -1.886019e-04 -1.646806e-02 6.995911e-05 5.126892e-05 6.323613e-05 -1.545834e-02" Properties=species:S:1:pos:R:3:forces:R:3 Config_type=AlGaN_super3_26_1_6.xyz
Al 1.559024e+00 8.636016e-01 2.425447e+00 1.147972e-03 -6.445303e-04 -1.633473e-03
Al 1.568093e+00 8.756471e-01 7.517973e+00 -9.227238e-05 1.130712e-03 1.660604e-03
Al 1.562548e+00 8.691772e-01 -2.723203e+00 7.796987e-05 -8.301165e-04 1.460543e-03
Al -2.741339e-02 3.604083e+00 2.444213e+00 2.138858e-03 3.018886e-03 -2.054272e-03
Al -8.923217e-03 3.625863e+00 7.501819e+00 -3.523093e-04 4.809243e-04 2.271548e-04
Al -9.208469e-03 3.607859e+00 -2.714404e+00 -5.545999e-05 3.558481e-04 1.252745e-03
Al 3.154684e+00 -1.867381e+00 2.435387e+00 -2.024361e-03 -4.929322e-04 -2.232701e-03
Al 3.158180e+00 -1.864429e+00 7.469433e+00 1.424621e-03 -6.494987e-03 1.348920e-02
Ga 3.149003e+00 -1.866846e+00 -2.707240e+00 -7.789207e-04 4.433470e-04 1.540901e-03
Al -4.786558e+00 8.736478e-01 2.441846e+00 4.472366e-04 4.735332e-04 -9.783083e-04
Ga -4.808452e+00 8.657516e-01 7.505629e+00 3.937846e-04 4.951246e-04 1.179690e-03
Al -4.794247e+00 8.819124e-01 -2.717696e+00 6.439431e-04 -4.802454e-04 1.237586e-03
Ga -6.363047e+00 3.610217e+00 2.430972e+00 5.718498e-04 2.578714e-04 -2.298720e-04
Al -6.379751e+00 3.619400e+00 7.507760e+00 1.898280e-04 -4.747827e-04 1.236904e-05
Ga -6.375890e+00 3.609748e+00 -2.722164e+00 -1.923742e-04 1.266839e-04 1.840101e-03
Ga -3.204011e+00 -1.870642e+00 2.435757e+00 7.463178e-04 -3.988030e-04 -5.302782e-05
Al -3.187381e+00 -1.886773e+00 7.519498e+00 5.610330e-04 -4.073191e-04 -7.867462e-04
Ga -3.176437e+00 -1.878343e+00 -2.727744e+00 -3.999039e-04 -2.054257e-04 1.631490e-03
Al -1.621351e+00 9.001090e-01 2.417023e+00 1.502562e-04 -1.159830e-03 -1.932661e-03
Ga -1.604363e+00 8.714964e-01 7.532919e+00 1.344694e-03 -7.483480e-04 1.263267e-03
Ga -1.613406e+00 8.785346e-01 -2.715239e+00 1.121282e-03 -4.232769e-04 9.398894e-04
Al -3.193440e+00 3.615995e+00 2.417623e+00 1.192371e-03 3.918856e-04 1.120052e-03
Ga -3.194302e+00 3.645842e+00 7.501836e+00 1.368351e-03 4.549481e-04 5.326261e-04
Ga -3.200526e+00 3.621831e+00 -2.699009e+00 5.291249e-04 -5.902393e-04 2.451366e-03
Ga 2.511731e-03 -1.863506e+00 2.420346e+00 -3.094691e-04 -2.378456e-04 -4.206880e-05
Al -1.926938e-02 -1.866009e+00 7.513899e+00 -9.236827e-04 -3.533746e-04 8.762338e-04
Al -1.467036e-02 -1.853004e+00 -2.713938e+00 7.968473e-04 2.176095e-04 2.267312e-03
Ga -1.137061e-02 1.800089e+00 4.971623e+00 -1.023923e-03 -8.171715e-04 7.216970e-04
Ga -5.974726e-03 1.794540e+00 -5.273664e+00 1.256462e-04 7.798512e-04 1.490694e-03
Ga -1.735330e-02 1.789089e+00 -1.321094e-01 2.369627e-04 3.727092e-04 -2.079041e-03
Al 3.161851e+00 -3.689982e+00 4.954933e+00 -1.312128e-03 -8.289019e-04 1.532313e-03
Ga 3.176550e+00 -3.702126e+00 -5.276629e+00 -3.247305e-04 1.988668e-03 8.036609e-04
Ga 3.154948e+00 -3.707039e+00 -1.125428e-01 -3.110299e-04 1.026849e-03 -2.675552e-03
Ga 1.594720e+00 -9.634953e-01 4.991959e+00 -2.828227e-03 1.251157e-03 -1.473095e-03
Ga 1.567016e+00 -9.516649e-01 -5.289451e+00 2.156161e-04 -1.066531e-04 1.755538e-03
Al 1.566405e+00 -9.596885e-01 -1.510684e-01 -6.140945e-04 5.475900e-04 1.379102e-03
Al 3.133431e+00 1.794377e+00 4.976265e+00 8.814644e-04 5.617669e-04 -1.587479e-03
Al 3.126234e+00 1.797599e+00 -5.275644e+00 3.002162e-04 -6.073917e-04 2.186060e-03
Ga 3.141916e+00 1.786837e+00 -1.479139e-01 -3.382924e-04 2.233251e-05 2.026842e-03
Al 6.310987e+00 -3.702945e+00 4.999838e+00 1.171775e-03 3.042441e-03 -4.566251e-04
Al 6.325349e+00 -3.696417e+00 -5.307207e+00 -2.519500e-03 -1.525316e-03 2.926810e-03
Al 6.315317e+00 -3.702139e+00 -1.467571e-01 1.716277e-04 -3.809597e-05 9.899452e-04
Al 4.724980e+00 -9.628118e-01 4.980091e+00 1.460263e-03 7.655404e-05 -1.261880e-03
Ga 4.747950e+00 -9.576959e-01 -5.282110e+00 -2.075429e-03 -3.119615e-04 1.185444e-03
Ga 4.734424e+00 -9.431211e-01 -1.293390e-01 -8.851436e-04 -1.560393e-04 -2.220256e-03
Ga -3.217521e+00 1.801012e+00 4.952766e+00 8.025343e-04 6.004131e-04 -3.681582e-04
Ga -3.212586e+00 1.788157e+00 -5.269010e+00 1.355849e-04 -7.807390e-05 1.602325e-03
Al -3.216254e+00 1.797800e+00 -1.290165e-01 3.788525e-05 -3.363459e-04 1.538922e-03
Al -2.882670e-02 -3.697428e+00 4.990220e+00 5.131468e-04 -5.461011e-04 -6.042837e-04
Ga -4.649335e-02 -3.681712e+00 -5.286304e+00 4.755543e-04 1.809627e-04 2.245765e-03
Al -1.929580e-02 -3.686627e+00 -1.534837e-01 -2.588523e-05 -2.508275e-05 1.166694e-03
Ga -1.611606e+00 -9.615426e-01 4.986506e+00 -7.314186e-04 4.633300e-06 -4.923861e-04
Al -1.601204e+00 -9.663659e-01 -5.283583e+00 1.238331e-04 -3.108392e-04 1.757225e-03
Ga -1.590663e+00 -9.594198e-01 -1.468458e-01 -7.406310e-04 -1.547651e-04 1.811691e-03
N 1.598484e+00 8.892813e-01 4.332443e+00 -1.048109e-04 -1.089533e-03 -1.158304e-03
N 1.600975e+00 8.965639e-01 -5.917743e+00 3.941167e-04 3.146568e-04 -2.018406e-03
N 1.558277e+00 8.267531e-01 -8.078252e-01 1.174063e-04 -7.507287e-04 1.614937e-03
N -1.604624e-02 3.660301e+00 4.356175e+00 7.737294e-05 4.830443e-04 -2.394162e-03
N 1.598341e-02 3.634580e+00 -5.939966e+00 2.017076e-03 3.324472e-04 3.599252e-04
N 1.656295e-02 3.635417e+00 -8.040539e-01 1.433313e-04 -9.581967e-05 1.760865e-03
N 3.194120e+00 -1.891282e+00 4.350434e+00 -4.960344e-04 1.936209e-04 -1.307911e-03
N 3.159474e+00 -1.874822e+00 -5.929957e+00 -6.883004e-04 9.186290e-04 -8.401024e-03
N 3.117902e+00 -1.853946e+00 -7.426794e-01 -8.972657e-04 4.915873e-05 1.880353e-03
N -4.828819e+00 8.480893e-01 4.359951e+00 1.440225e-04 -6.966448e-04 -1.233444e-03
N -4.829880e+00 8.971998e-01 -5.876021e+00 1.712518e-04 4.512720e-04 -1.373624e-03
N -4.744392e+00 8.999814e-01 -8.063239e-01 1.609041e-03 4.137739e-04 1.237045e-03
N -6.363728e+00 3.621080e+00 4.419441e+00 -5.610011e-04 1.189006e-05 -1.110625e-03
N -6.400426e+00 3.588445e+00 -5.909756e+00 -9.550612e-05 -3.928214e-04 -1.590555e-03
N -6.363841e+00 3.660493e+00 -7.422400e-01 3.679602e-04 5.364659e-04 1.689797e-03
N -3.225490e+00 -1.893181e+00 4.404833e+00 -1.411068e-03 -2.513152e-03 3.203628e-04
N -3.141992e+00 -1.892802e+00 -5.903542e+00 7.049334e-04 3.534885e-04 -1.386025e-03
N -3.183283e+00 -1.914553e+00 -7.566742e-01 1.783109e-05 -2.178673e-04 1.767872e-03
N -1.615848e+00 8.802287e-01 4.320990e+00 1.208039e-03 4.307445e-04 -2.458206e-03
N -1.614515e+00 8.375577e-01 -5.844697e+00 1.050129e-03 -1.316239e-03 -8.509739e-05
N -1.658644e+00 9.052215e-01 -7.427177e-01 3.341805e-04 2.564951e-04 1.955133e-03
N -3.203462e+00 3.675378e+00 4.348748e+00 9.421249e-04 7.070697e-05 -2.438253e-03
N -3.195474e+00 3.629396e+00 -5.882106e+00 -4.082604e-04 -7.995599e-04 -1.198586e-03
N -3.233053e+00 3.597883e+00 -7.236888e-01 2.816155e-04 -9.182952e-04 2.273260e-03
N -1.404734e-02 -1.907452e+00 4.388353e+00 1.438804e-03 -5.895549e-04 -9.827123e-04
N -5.553487e-02 -1.839376e+00 -5.924870e+00 -5.630264e-04 2.634798e-04 -2.413456e-03
N 2.279988e-02 -1.884094e+00 -7.886630e-01 6.965828e-04 -6.356247e-04 1.379992e-03
N -2.114302e-02 1.787540e+00 1.856185e+00 -1.121790e-04 7.390737e-06 1.534064e-03
N 1.396242e-02 1.808148e+00 6.945639e+00 9.514393e-04 -6.884702e-04 -2.429374e-03
N 1.746642e-02 1.808573e+00 -3.299289e+00 2.780922e-04 1.457623e-04 9.205128e-04
N 3.162965e+00 -3.701946e+00 1.867135e+00 -2.169703e-03 -5.981600e-05 2.549822e-03
N 3.200582e+00 -3.678912e+00 6.882345e+00 -1.758775e-03 1.828224e-03 -6.995013e-03
N 3.194671e+00 -3.726175e+00 -3.312557e+00 8.006516e-05 -1.484617e-05 1.563867e-03
N 1.612459e+00 -9.362373e-01 1.781002e+00 -1.205689e-05 1.430433e-03 -5.200028e-05
N 1.578819e+00 -9.590467e-01 6.969970e+00 -4.398030e-03 3.036467e-03 -3.809817e-03
N 1.532633e+00 -9.375608e-01 -3.314987e+00 -1.693062e-03 1.219660e-03 4.776997e-04
N 3.136787e+00 1.742424e+00 1.838169e+00 2.097893e-04 -7.469181e-04 -1.205900e-03
N 3.093763e+00 1.814309e+00 6.884148e+00 -7.006096e-04 4.111265e-05 -3.238379e-03
N 3.133500e+00 1.746269e+00 -3.353534e+00 6.109396e-05 -7.598250e-04 2.042618e-04
N 6.277388e+00 -3.718786e+00 1.766691e+00 -2.536114e-03 -1.884163e-03 1.217065e-03
N 6.315003e+00 -3.695303e+00 6.911350e+00 5.510030e-04 3.249075e-04 -1.246937e-03
N 6.273108e+00 -3.720951e+00 -3.387827e+00 2.235990e-04 -6.235179e-05 -3.568789e-03
N 4.689393e+00 -9.267122e-01 1.841205e+00 2.539395e-04 1.183496e-03 1.277052e-03
N 4.734575e+00 -1.003998e+00 6.896184e+00 2.109023e-03 1.910616e-03 -4.100959e-03
N 4.737506e+00 -9.106456e-01 -3.318821e+00 -4.671840e-04 1.045283e-03 1.215372e-03
N -3.213594e+00 1.793031e+00 1.816005e+00 1.063051e-03 -7.666840e-04 -3.200315e-04
N -3.201153e+00 1.792399e+00 6.908741e+00 7.216000e-05 -6.793222e-04 -2.188827e-03
N -3.243549e+00 1.773716e+00 -3.314105e+00 1.900069e-04 -5.766474e-04 8.319044e-04
N 2.022441e-02 -3.716382e+00 1.768746e+00 -1.309428e-03 6.840363e-04 -2.287682e-03
N -6.554084e-02 -3.669351e+00 6.901621e+00 -7.419448e-04 3.118455e-04 -1.767011e-03
N -2.737003e-02 -3.642345e+00 -3.318505e+00 1.707303e-04 2.676228e-04 5.596458e-04
N -1.604947e+00 -9.059241e-01 1.833611e+00 4.503000e-04 -1.363541e-04 -1.792409e-03
N -1.606464e+00 -9.942566e-01 6.948210e+00 -1.402684e-04 -7.044642e-04 -1.142553e-03
N -1.559948e+00 -9.762814e-01 -3.367883e+00 2.452520e-04 6.046622e-05 1.632909e-04
