108
Energy=-1214847.400929 Lattice="9.488967 0.000000 0.000000 -4.744870 8.216468 0.000000 -0.004360 -0.000267 15.296213" Stress="0.000001 0.000000 -0.000001 0.000000 0.000001 -0.000001 -0.000001 -0.000001 0.000002" Properties=species:S:1:pos:R:3:forces:R:3
Al 1.563131 0.883767 2.400720 -0.000303 0.000542 -0.000009
Al 1.563471 0.881952 7.472877 -0.000010 -0.000040 0.000136
Al 1.550079 0.877622 -2.679234 0.000449 0.000545 -0.000208
Al -0.029134 3.602762 2.389289 0.000538 -0.000085 -0.000317
Al -0.029232 3.599683 7.483988 0.000084 0.000051 0.000074
Al -0.026803 3.596481 -2.671702 0.001081 0.000114 0.000136
Al 3.145047 -1.859547 2.399643 -0.000291 -0.000693 -0.000390
Al 3.141294 -1.858063 7.486851 -0.000086 -0.000200 0.000249
Ga 3.150159 -1.854868 -2.687525 -0.000051 -0.000114 0.000402
Al -4.791407 0.868680 2.402184 0.000241 -0.000404 -0.000328
Al -4.784896 0.874020 7.493940 -0.000052 0.000045 0.000221
Al -4.757804 0.868774 -2.694674 0.000049 0.000115 -0.000190
Al -6.353598 3.589227 2.385913 0.000176 0.000596 -0.000107
Al -6.341738 3.592555 7.490963 -0.000116 -0.000098 0.000112
Ga -6.345698 3.605443 -2.674250 -0.000260 0.000065 -0.000027
Ga -3.205527 -1.863641 2.407156 0.000114 -0.000183 -0.000075
Ga -3.206337 -1.864074 7.483832 -0.000008 0.000030 0.000152
Al -3.204176 -1.859103 -2.678364 -0.000105 -0.000125 0.000263
Al -1.590974 0.885621 2.413338 0.000148 -0.000075 -0.000037
Ga -1.597626 0.896930 7.511289 0.000381 -0.000222 0.000214
Al -1.602098 0.898572 -2.711779 -0.000050 -0.000113 -0.000105
Ga -3.176016 3.619569 2.411461 0.000137 0.000049 -0.000013
Al -3.191763 3.613721 7.485670 -0.000014 0.000242 0.000477
Al -3.182348 3.599465 -2.690796 -0.000083 -0.000146 0.000100
Ga -0.012338 -1.860493 2.417703 -0.000012 -0.000059 -0.000025
Ga -0.005113 -1.874415 7.488287 0.000123 -0.000033 0.000097
Ga -0.007671 -1.864321 -2.690073 0.000081 -0.000110 -0.000043
Al -0.014774 1.782700 4.930411 -0.000091 -0.000069 0.000031
Al -0.011575 1.784970 -5.235064 -0.000500 -0.000451 -0.000078
Al -0.011396 1.791904 -0.145325 0.000553 0.000569 0.001531
Al 3.143844 -3.677148 4.958483 -0.000452 -0.000416 0.000000
Ga 3.134797 -3.696244 -5.256330 -0.000325 -0.000143 -0.000023
Al 3.147619 -3.685519 -0.153977 0.000115 0.000074 0.000911
Al 1.571754 -0.946282 4.940372 -0.000413 -0.000122 -0.000036
Al 1.568228 -0.940292 -5.264253 -0.000231 0.000134 0.000173
Al 1.573670 -0.941242 -0.126517 0.000034 -0.000035 0.000830
Al 3.133908 1.778861 4.945395 -0.000210 0.000031 0.000257
Ga 3.141106 1.769517 -5.256241 -0.000101 -0.000024 0.000417
Al 3.131252 1.778135 -0.142715 -0.000114 -0.000094 0.000533
Ga 6.302923 -3.708336 4.942830 -0.000040 -0.000045 0.000088
Ga 6.300317 -3.698986 -5.244401 -0.000035 0.000062 0.000090
Al 6.292490 -3.700631 -0.140193 -0.000170 0.000008 0.000804
Al 4.695400 -0.946551 4.944580 0.000504 -0.000288 -0.000031
Al 4.717217 -0.938972 -5.246525 -0.000139 0.000118 0.000232
Al 4.706092 -0.952813 -0.140587 0.000006 -0.000103 0.000788
Ga -3.192958 1.778931 4.945314 0.000021 0.000025 0.000246
Al -3.196293 1.793279 -5.241917 0.000447 0.000179 -0.000219
Ga -3.189789 1.789232 -0.148168 -0.000242 0.000139 0.001123
Al -0.027713 -3.692856 4.956171 -0.000113 -0.000227 -0.000007
Al -0.007576 -3.702084 -5.257050 0.000048 -0.000081 0.000111
Al -0.018198 -3.695369 -0.138414 -0.000058 -0.000061 0.000796
Al -1.594340 -0.944308 4.943751 -0.000089 0.000067 0.000076
Ga -1.600881 -0.946655 -5.218551 -0.000070 0.000102 0.000034
Ga -1.603109 -0.948808 -0.160512 -0.000317 0.000029 0.001022
N 1.560114 0.876047 4.327468 0.000093 -0.000049 -0.000097
N 1.513691 0.854242 -5.900380 0.000002 -0.000069 -0.000317
N 1.554337 0.872574 -0.752557 0.000230 -0.000044 -0.000113
N -0.072319 3.589491 4.309293 -0.000239 -0.000031 -0.000006
N -0.024046 3.559094 -5.901317 0.000096 -0.000187 -0.000118
N -0.023455 3.606641 -0.750049 0.000061 -0.000048 0.000024
N 3.139170 -1.870294 4.326992 -0.000101 0.000029 -0.000130
N 3.145605 -1.817853 -5.881732 0.000086 0.000144 -0.000369
N 3.137255 -1.860534 -0.709166 -0.000134 0.000007 -0.000039
N -4.818305 0.848835 4.315534 0.000097 -0.000175 -0.000348
N -4.725536 0.849235 -5.882121 0.000210 -0.000144 -0.000247
N -4.808713 0.848963 -0.776592 -0.000047 -0.000159 -0.000038
N -6.306427 3.581703 4.308201 0.000176 0.000005 -0.000152
N -6.306135 3.629768 -5.890685 0.000146 0.000165 -0.000236
N -6.347717 3.611815 -0.695172 0.000059 -0.000126 0.000292
N -3.192618 -1.820307 4.382328 -0.000415 0.000514 0.000199
N -3.224376 -1.840598 -5.844535 -0.000148 0.000061 -0.000082
N -3.236630 -1.889789 -0.758930 -0.000064 -0.000030 0.000017
N -1.561682 0.854996 4.323496 0.000129 -0.000052 -0.000074
N -1.600253 0.924824 -5.805572 0.000006 0.000435 0.000323
N -1.559349 0.910955 -0.802281 -0.000328 -0.000396 -0.000214
N -3.184091 3.664347 4.380984 0.000706 0.000352 -0.000006
N -3.223234 3.588700 -5.890681 0.000029 -0.000543 -0.000023
N -3.186558 3.658999 -0.771596 0.000109 0.000122 -0.000120
N -0.017775 -1.868779 4.398981 0.000385 0.000383 0.000166
N 0.019468 -1.889205 -5.824510 0.000309 0.000059 -0.000090
N 0.029860 -1.888032 -0.715797 0.000372 -0.000025 0.000145
N -0.021988 1.784598 1.786942 0.000150 -0.000117 -0.001217
N 0.017462 1.808245 6.844344 -0.000080 0.000122 -0.000124
N -0.009927 1.791772 -3.308697 0.000110 0.000094 -0.000115
N 3.184275 -3.665657 1.766506 -0.000786 0.000340 -0.000689
N 3.141947 -3.687150 6.891443 -0.000030 0.000156 -0.000223
N 3.144930 -3.738632 -3.271772 -0.000415 0.000090 -0.000245
N 1.601329 -0.920912 1.792015 0.000026 -0.000709 -0.000743
N 1.605250 -0.925916 6.857761 -0.000205 0.000150 -0.000087
N 1.566589 -0.896995 -3.350281 -0.000050 0.000002 -0.000202
N 3.135812 1.778934 1.781744 0.000284 0.000288 -0.000648
N 3.138901 1.784385 6.877520 0.000072 0.000003 -0.000210
N 3.139682 1.736697 -3.274942 -0.000567 -0.000538 0.000360
N 6.299319 -3.738820 1.784446 0.000081 -0.000410 -0.000675
N 6.304326 -3.746001 6.917510 -0.000105 -0.000141 0.000018
N 6.261978 -3.671771 -3.262737 -0.000545 -0.000180 0.000076
N 4.675874 -0.929736 1.773020 0.000713 0.001747 -0.000672
N 4.671978 -0.923998 6.856204 -0.000112 0.000160 -0.000177
N 4.761307 -0.926011 -3.329684 0.000074 0.000027 -0.000184
N -3.188641 1.739288 1.837127 -0.000290 -0.000627 -0.000884
N -3.230596 1.804058 6.917369 -0.000109 0.000004 -0.000143
N -3.193006 1.791096 -3.307943 0.000138 0.000085 -0.000071
N -0.058807 -3.712832 1.766377 -0.000548 -0.000505 -0.000669
N -0.028943 -3.741819 6.865337 0.000060 -0.000003 -0.000040
N 0.019501 -3.719886 -3.344173 0.000222 -0.000029 -0.000176
N -1.607121 -0.904302 1.810852 0.000065 0.000340 -0.000915
N -1.601801 -0.943832 6.847303 -0.000103 0.000180 -0.000251
N -1.645023 -0.930865 -3.243023 -0.000059 0.000204 0.000100
