108
Energy=-2.633888e+06 Lattice="9.665849e+00 0.000000e+00 0.000000e+00 -4.843495e+00 8.355501e+00 0.000000e+00 6.206190e-02 -1.178684e-01 1.568407e+01" Stress="-3.885505e-03 4.889529e-04 2.273695e-03 4.874233e-04 -2.715984e-03 -3.903227e-03 2.272376e-03 -3.898503e-03 -2.029085e-03" Properties=species:S:1:pos:R:3:forces:R:3 Config_type=AlGaN_super3_48_1_6.xyz
Al 1.615411e+00 8.210049e-01 2.479772e+00 -2.035147e-04 5.239684e-04 -6.123062e-04
Ga 1.621297e+00 8.270401e-01 7.675495e+00 1.144272e-03 -1.240052e-03 6.690956e-04
Ga 1.557243e+00 9.569837e-01 -2.752789e+00 1.109456e-03 -2.003184e-03 -4.137600e-04
Al 1.024167e-02 3.582033e+00 2.470814e+00 2.437975e-04 3.773667e-04 -4.904650e-04
Ga 9.585912e-03 3.601582e+00 7.688425e+00 3.018210e-04 -1.200516e-04 6.448675e-04
Ga -4.535596e-02 3.725739e+00 -2.751594e+00 3.650635e-04 -3.241219e-04 -2.974018e-04
Ga 3.241021e+00 -1.978377e+00 2.473720e+00 -4.020019e-04 2.986931e-04 -3.788670e-04
Ga 3.240903e+00 -1.967288e+00 7.689511e+00 2.702588e-04 -3.221538e-04 2.742138e-04
Ga 3.178678e+00 -1.841611e+00 -2.754998e+00 5.925328e-04 -6.931584e-04 -4.656729e-04
Ga -4.835792e+00 8.190184e-01 2.481894e+00 7.956402e-04 4.508451e-05 -6.999558e-04
Ga -4.835362e+00 8.300774e-01 7.680970e+00 1.951671e-04 -1.123024e-03 1.452244e-04
Ga -4.894789e+00 9.604200e-01 -2.753342e+00 6.809066e-04 -2.023492e-03 -8.910070e-04
Ga -6.451912e+00 3.584539e+00 2.477593e+00 5.510135e-05 1.465255e-03 2.712476e-04
Ga -6.440155e+00 3.600991e+00 7.675529e+00 4.633468e-05 -3.500450e-04 6.469393e-04
Al -6.502116e+00 3.731653e+00 -2.761992e+00 2.386870e-04 -3.303287e-04 -6.100965e-05
Ga -3.201946e+00 -1.964111e+00 2.452905e+00 6.443259e-04 -3.181004e-04 8.783572e-04
Ga -3.203403e+00 -1.964601e+00 7.690726e+00 4.804328e-05 -4.578150e-04 4.095422e-04
Ga -3.255923e+00 -1.844816e+00 -2.744746e+00 -4.108056e-04 -6.376019e-04 -2.338421e-04
Al -1.599860e+00 8.207343e-01 2.469751e+00 1.810725e-03 1.606851e-03 -2.483928e-03
Ga -1.609656e+00 8.289903e-01 7.686032e+00 2.100120e-03 -1.074372e-03 -2.120670e-04
Ga -1.671045e+00 9.476897e-01 -2.733799e+00 2.179008e-03 -1.007153e-03 1.010457e-03
Ga -3.210114e+00 3.593404e+00 2.470696e+00 7.525853e-04 1.491843e-03 -4.613674e-04
Ga -3.221126e+00 3.610048e+00 7.693273e+00 1.272698e-03 1.010107e-04 -2.925580e-04
Ga -3.290769e+00 3.733577e+00 -2.751924e+00 1.872817e-03 -1.257847e-04 -1.266021e-03
Ga -6.290294e-04 -1.945699e+00 2.443118e+00 9.115035e-04 2.907612e-06 2.380575e-03
Ga 1.109835e-02 -1.959257e+00 7.690622e+00 1.700952e-03 -3.549311e-04 3.313726e-05
Ga -5.868772e-02 -1.839915e+00 -2.747423e+00 2.478673e-03 -4.543437e-04 -1.576023e-03
Ga 1.867681e-02 1.743244e+00 5.041802e+00 -1.513495e-03 1.859512e-04 3.140098e-04
Ga -5.146754e-02 1.866227e+00 -5.373790e+00 -1.560438e-03 2.832544e-04 4.270757e-04
Ga -5.169829e-02 1.871187e+00 -1.077366e-01 -1.489458e-03 -4.394519e-03 1.795595e-03
Ga 3.249187e+00 -3.831379e+00 5.071625e+00 -9.818934e-04 -1.452165e-04 -6.919704e-05
Ga 3.183043e+00 -3.703653e+00 -5.370768e+00 -1.366261e-03 6.248181e-05 -3.624488e-04
Ga 3.184586e+00 -3.691371e+00 -1.338034e-01 6.659871e-04 -4.692718e-03 2.052567e-03
Ga 1.637084e+00 -1.034340e+00 5.066248e+00 -2.586075e-03 1.790144e-03 -8.667366e-04
Ga 1.572223e+00 -9.192368e-01 -5.372253e+00 -2.081441e-03 1.382898e-03 -7.583981e-04
Ga 1.564166e+00 -9.038155e-01 -1.343103e-01 6.561535e-04 -2.261012e-03 1.620857e-03
Al 3.223055e+00 1.743934e+00 5.064806e+00 -7.220194e-04 1.173949e-04 3.965255e-04
Ga 3.164655e+00 1.875886e+00 -5.369712e+00 -1.895337e-04 2.305129e-05 6.757712e-04
Ga 3.161997e+00 1.889679e+00 -1.455962e-01 1.440787e-03 -4.410850e-03 1.753650e-03
Ga 6.460031e+00 -3.832566e+00 5.064201e+00 -2.735541e-04 2.913190e-04 2.624193e-05
Ga 6.404227e+00 -3.703541e+00 -5.365517e+00 -3.528310e-04 3.998218e-04 3.090025e-04
Ga 6.407710e+00 -3.691079e+00 -1.447903e-01 7.349876e-04 -4.452362e-03 1.791335e-03
Ga 4.848899e+00 -1.036380e+00 5.080154e+00 -5.008624e-04 1.565326e-03 -7.995639e-04
Ga 4.790433e+00 -9.175768e-01 -5.371472e+00 -5.509411e-04 1.448884e-03 -4.161621e-04
Ga 4.798631e+00 -9.042727e-01 -1.413588e-01 1.172236e-03 -3.076447e-03 1.223213e-03
Ga -3.221789e+00 1.745691e+00 5.065557e+00 -4.162751e-04 1.996276e-04 1.479543e-04
Ga -3.279652e+00 1.872443e+00 -5.373977e+00 -3.338227e-04 3.476125e-04 7.074864e-04
Ga -3.275805e+00 1.874532e+00 -1.271258e-01 3.045360e-03 -4.611509e-03 1.829207e-03
Ga 9.932360e-03 -3.826168e+00 5.072679e+00 -3.590612e-04 8.298457e-04 -2.392955e-04
Ga -5.327340e-02 -3.699518e+00 -5.366532e+00 2.375412e-05 4.254443e-04 2.297980e-04
Ga -5.934580e-02 -3.683941e+00 -1.599926e-01 1.572427e-03 -5.559240e-03 2.434799e-03
Ga -1.595947e+00 -1.033705e+00 5.064007e+00 -6.292761e-04 1.468213e-03 8.980450e-04
Ga -1.656657e+00 -9.130706e-01 -5.372943e+00 -8.747218e-04 1.458092e-03 3.612149e-04
Al -1.646623e+00 -9.196818e-01 -1.358686e-01 -2.514460e-03 2.672663e-03 1.365479e-03
N 1.657322e+00 8.411687e-01 4.406057e+00 2.846785e-03 -4.413203e-04 -7.675335e-04
N 1.557982e+00 9.466171e-01 -6.021191e+00 9.054254e-04 -1.556856e-03 -2.350402e-04
N 1.550949e+00 9.576473e-01 -7.777915e-01 1.413026e-03 -2.292429e-03 4.930146e-04
N 8.177246e-03 3.603889e+00 4.389223e+00 7.220057e-05 1.418610e-05 -1.627675e-03
N -5.130790e-02 3.726257e+00 -6.012030e+00 3.272299e-04 -1.917066e-04 -3.037536e-04
N -5.378593e-02 3.730961e+00 -7.742634e-01 1.042720e-03 -1.502823e-03 3.977585e-04
N 3.241825e+00 -1.970567e+00 4.443065e+00 1.993741e-04 -8.601718e-05 5.602206e-04
N 3.178800e+00 -1.844701e+00 -6.013988e+00 4.208524e-04 -3.483628e-04 -9.695725e-05
N 3.177390e+00 -1.831992e+00 -7.783690e-01 7.069680e-04 -1.314119e-03 1.211949e-03
N -4.868620e+00 8.424241e-01 4.459628e+00 -1.261203e-03 -1.818367e-06 1.286508e-03
N -4.894948e+00 9.491859e-01 -6.016907e+00 6.114992e-04 -1.433470e-03 -1.703551e-04
N -4.891072e+00 9.600536e-01 -7.781838e-01 1.065376e-03 -1.967261e-03 9.100086e-04
N -6.438417e+00 3.560715e+00 4.457104e+00 -4.216780e-05 -2.147494e-03 9.642789e-04
N -6.500857e+00 3.727153e+00 -6.024892e+00 7.689114e-05 -9.796616e-05 -5.384338e-04
N -6.503454e+00 3.737691e+00 -8.376485e-01 8.548232e-04 -1.203485e-03 -9.091168e-04
N -3.205509e+00 -1.964545e+00 4.432609e+00 -2.031245e-05 -3.760788e-04 -2.308320e-04
N -3.266582e+00 -1.844461e+00 -6.011003e+00 1.389935e-04 -4.099857e-04 -2.827804e-04
N -3.225277e+00 -1.816038e+00 -7.583878e-01 2.305848e-03 3.689841e-04 7.037629e-04
N -1.614056e+00 8.227826e-01 4.387623e+00 2.044493e-03 -1.028282e-03 -8.937047e-04
N -1.672912e+00 9.502128e-01 -6.018204e+00 1.919748e-03 -1.311846e-03 -1.438561e-04
N -1.667975e+00 9.092827e-01 -7.414145e-01 2.573973e-03 -3.686185e-03 -1.750961e-03
N -3.220560e+00 3.608850e+00 4.441176e+00 9.720479e-04 1.287813e-04 5.946158e-04
N -3.284655e+00 3.733504e+00 -6.008943e+00 1.215231e-03 -5.202971e-05 -2.825957e-05
N -3.281375e+00 3.739922e+00 -7.758899e-01 1.752222e-03 -1.108986e-03 1.356819e-03
N 8.536302e-03 -1.961093e+00 4.426810e+00 1.720829e-03 -3.360896e-04 1.637944e-04
N -5.042296e-02 -1.839949e+00 -6.011798e+00 1.615601e-03 -3.895735e-04 1.482815e-05
N -8.532506e-02 -1.809195e+00 -7.665664e-01 1.436059e-03 -1.137136e-04 2.566101e-03
N 1.285100e-02 1.732478e+00 1.902109e+00 -2.393036e-03 5.435926e-03 -1.087345e-03
N 1.140094e-02 1.746253e+00 7.030689e+00 -1.779180e-03 3.099307e-05 -4.673252e-04
N -5.372548e-02 1.868021e+00 -3.393066e+00 -1.914282e-03 1.539746e-04 -4.711346e-04
N 3.284086e+00 -3.859202e+00 1.855316e+00 -2.175678e-03 3.788996e-03 -2.581355e-03
N 3.246091e+00 -3.828091e+00 7.050756e+00 -1.473072e-03 8.937021e-05 9.465253e-05
N 3.183022e+00 -3.702998e+00 -3.392829e+00 -1.495908e-03 -1.364945e-05 4.767135e-04
N 1.637875e+00 -1.000920e+00 1.857743e+00 -4.733685e-03 6.011941e-03 -1.667013e-03
N 1.633726e+00 -1.040596e+00 7.046147e+00 -2.002277e-03 1.041607e-03 2.429334e-04
N 1.569624e+00 -9.170103e-01 -3.392562e+00 -2.280178e-03 1.358578e-03 9.550793e-04
N 3.190023e+00 1.717263e+00 1.841353e+00 -3.640211e-03 3.648955e-03 -8.365195e-04
N 3.225505e+00 1.748017e+00 6.994370e+00 1.903580e-05 7.893785e-05 -2.357778e-03
N 3.165149e+00 1.917410e+00 -3.382312e+00 -1.003326e-04 2.331583e-03 5.091399e-04
N 6.426463e+00 -3.855519e+00 1.847517e+00 -3.227560e-03 3.783868e-03 -1.343499e-03
N 6.457975e+00 -3.823104e+00 7.045157e+00 5.031618e-05 3.787253e-04 -4.779640e-04
N 6.436600e+00 -3.718343e+00 -3.376364e+00 1.639229e-03 -7.827506e-04 3.585049e-04
N 4.847225e+00 -1.046451e+00 1.837363e+00 -2.515679e-03 5.568519e-03 -2.187337e-03
N 4.852529e+00 -1.039404e+00 7.055722e+00 -5.032010e-04 1.261427e-03 1.678858e-04
N 4.793870e+00 -9.152021e-01 -3.389494e+00 -2.871779e-04 1.528594e-03 5.260706e-04
N -3.180619e+00 1.716045e+00 1.864056e+00 -2.373493e-03 4.262039e-03 -2.470068e-03
N -3.216724e+00 1.751102e+00 7.046424e+00 -3.766473e-04 2.807959e-04 -1.203338e-04
N -3.276046e+00 1.873744e+00 -3.390744e+00 -4.073855e-05 2.418172e-04 -4.483612e-04
N 7.425235e-03 -3.833123e+00 1.828977e+00 -2.270985e-03 5.381024e-03 -1.949144e-03
N 1.467339e-02 -3.818717e+00 7.050815e+00 -1.390028e-04 3.080418e-04 -2.262207e-05
N -8.558441e-02 -3.715216e+00 -3.377086e+00 -2.032054e-03 -8.280479e-04 1.019134e-03
N -1.607363e+00 -9.765284e-01 1.796405e+00 8.289548e-05 2.765942e-04 -1.983404e-03
N -1.594696e+00 -1.034921e+00 7.046070e+00 -9.009873e-04 1.365931e-03 -2.007624e-04
N -1.656025e+00 -9.107866e-01 -3.395174e+00 -8.600877e-04 1.600736e-03 -2.979783e-04
