108
Energy=-1123296.249533 Lattice="9.475861 0.000000 0.000000 -4.747700 8.201439 0.000000 -0.002954 -0.072709 15.289021" Stress="-0.000005 0.000001 -0.000001 0.000001 -0.000011 -0.000019 -0.000001 -0.000019 0.000022" Properties=species:S:1:pos:R:3:forces:R:3
Al 1.548874 0.851757 2.402861 -0.000699 0.005989 -0.000403
Al 1.561380 0.817849 7.464094 0.000426 0.002214 0.003011
Al 1.549346 0.888131 -2.697563 0.000972 -0.000102 0.003231
Al -0.038728 3.579558 2.401720 0.000012 -0.000550 -0.000086
Al -0.010342 3.556070 7.481612 -0.003427 -0.003042 0.000601
Al -0.019269 3.610839 -2.684314 -0.002118 0.003647 0.001580
Al 3.125683 -1.902126 2.428196 -0.000175 0.010264 -0.020932
Al 3.122158 -1.900016 7.511426 0.015785 -0.007976 -0.000105
Ga 3.154552 -1.839134 -2.695666 0.000399 0.000051 0.002799
Al -4.775698 0.873358 2.429511 -0.002720 0.010726 0.002421
Al -4.760271 0.828368 7.490255 -0.000988 -0.001613 -0.001272
Al -4.772857 0.894425 -2.704233 0.003542 -0.000172 0.001780
Ga -6.344080 3.598911 2.377361 0.000004 -0.001782 0.001244
Al -6.342802 3.560781 7.498856 0.001315 -0.001311 0.001113
Ga -6.350307 3.624161 -2.701557 0.000870 0.000945 0.002550
Al -3.177027 -1.868715 2.392672 0.001112 0.004647 0.005331
Ga -3.172537 -1.910374 7.508660 -0.001338 0.001244 -0.000383
Al -3.189655 -1.843055 -2.711040 0.003252 0.000828 0.002330
Al -1.613397 0.854235 2.427849 0.002583 0.000200 -0.002171
Al -1.607264 0.832316 7.476454 0.001935 0.000862 0.000334
Ga -1.624165 0.903590 -2.689156 0.000749 -0.001145 0.001589
Al -3.184623 3.609666 2.430979 0.000197 -0.004230 0.000313
Ga -3.190455 3.566349 7.483220 0.003404 -0.000098 -0.000751
Al -3.193949 3.631905 -2.707641 0.000864 -0.002704 0.003237
Al -0.029418 -1.865705 2.392701 -0.000718 0.001490 0.000859
Al -0.012767 -1.895454 7.495894 0.002364 0.000999 0.000805
Ga -0.024151 -1.831392 -2.714311 0.000710 -0.000708 0.004589
Al -0.030813 1.744329 4.952326 -0.000713 0.001067 -0.000142
Ga -0.021905 1.798903 -5.273087 -0.001917 0.000376 0.002040
Al -0.016471 1.796681 -0.139480 -0.001062 -0.001531 0.003462
Al 3.143409 -3.724671 4.938659 0.001023 -0.004611 0.003568
Ga 3.149828 -3.659857 -5.250516 -0.000276 -0.000043 0.001734
Al 3.137666 -3.681700 -0.137244 -0.000392 -0.000454 0.000782
Ga 1.577986 -1.007257 4.932699 -0.004781 0.003879 0.001698
Al 1.564973 -0.928866 -5.268163 -0.002790 -0.000912 0.001827
Al 1.550459 -0.931912 -0.133352 -0.001655 0.001289 0.002000
Al 3.137814 1.752924 4.966329 0.000168 -0.000881 0.000306
Ga 3.140589 1.803782 -5.269881 -0.001359 0.001281 0.002318
Al 3.111049 1.790920 -0.166242 0.000534 0.000105 0.001712
Ga 6.311068 -3.733459 4.951875 -0.001539 0.001794 -0.000401
Al 6.302925 -3.652760 -5.244625 0.000651 0.000309 0.000251
Al 6.292750 -3.671775 -0.150901 -0.000441 0.000486 -0.000654
Ga 4.730090 -0.986259 4.921845 0.000131 0.002679 0.003677
Al 4.732014 -0.916929 -5.254986 -0.001157 -0.001062 0.003288
Ga 4.724110 -0.934897 -0.098875 -0.001023 0.001853 0.000949
Al -3.184932 1.756155 4.947023 0.000186 0.001021 -0.001731
Al -3.194069 1.801356 -5.254188 0.000718 0.000484 0.002781
Ga -3.198164 1.814905 -0.112779 0.000303 -0.000557 0.000568
Al -0.018138 -3.714661 4.952416 0.001004 0.000401 0.000553
Al -0.015412 -3.649524 -5.265921 -0.002693 0.002426 0.001827
Al -0.015615 -3.656184 -0.144444 0.000166 -0.001025 -0.001185
Al -1.585763 -0.972945 4.951257 0.000041 0.000622 -0.000082
Al -1.605482 -0.925616 -5.267930 0.000823 0.000465 0.001529
Al -1.593332 -0.943762 -0.132178 -0.001098 0.000037 0.001718
N 1.555672 0.878647 4.335335 0.002306 0.001119 -0.001192
N 1.554230 0.848409 -5.906830 0.001548 0.000162 -0.005105
N 1.541119 0.883029 -0.766804 0.000885 -0.001252 -0.000704
N -0.058979 3.548348 4.327552 -0.000999 -0.001143 -0.003612
N 0.016649 3.652806 -5.901230 0.000949 -0.000304 -0.000761
N -0.026089 3.618281 -0.753983 -0.001277 -0.001087 0.000591
N 3.150821 -1.955011 4.274612 -0.001540 0.000030 0.012689
N 3.145261 -1.796626 -5.862805 0.001005 0.001390 -0.000817
N 3.108807 -1.864011 -0.710104 -0.002268 -0.001483 0.002684
N -4.769053 0.890408 4.338346 -0.001323 0.002339 0.000794
N -4.727149 0.878925 -5.879515 0.002949 -0.001574 -0.003068
N -4.801689 0.908507 -0.787592 -0.001074 -0.000329 -0.001455
N -6.299305 3.545958 4.360424 0.001056 -0.000183 -0.001245
N -6.340216 3.683532 -5.867948 -0.000990 -0.001275 -0.001703
N -6.347676 3.626162 -0.714446 0.000645 0.000141 0.002643
N -3.120280 -1.876305 4.314280 -0.000008 -0.001429 -0.002101
N -3.179094 -1.840642 -5.810759 0.000288 0.001187 0.001288
N -3.146208 -1.861647 -0.772319 0.001761 -0.001639 -0.001301
N -1.607073 0.844652 4.354505 0.001299 -0.000950 -0.001178
N -1.650218 0.883968 -5.894709 -0.000701 -0.001618 0.002271
N -1.582350 0.868136 -0.707787 0.002315 0.000153 -0.000877
N -3.186276 3.586363 4.363430 -0.000733 0.000336 -0.002043
N -3.225931 3.614355 -5.833576 0.001382 -0.002464 -0.001692
N -3.194187 3.667138 -0.776458 0.001043 0.001377 -0.001809
N -0.057940 -1.912574 4.325255 0.001070 -0.001372 -0.003801
N -0.022065 -1.830007 -5.861935 0.001932 0.000092 -0.002460
N -0.024122 -1.836621 -0.720624 0.000964 -0.001706 0.000371
N -0.034337 1.760633 1.803360 0.001003 0.003331 -0.002130
N -0.020479 1.735398 6.884169 -0.000108 -0.001275 -0.002525
N 0.008733 1.820265 -3.292629 0.001023 -0.000059 0.001721
N 3.137340 -3.710106 1.804009 0.000173 0.002272 -0.004444
N 3.198955 -3.716829 6.863136 -0.004315 0.006253 0.000349
N 3.143775 -3.711769 -3.279355 0.002764 -0.001413 0.002158
N 1.525837 -0.932935 1.795096 0.010595 -0.011325 0.003131
N 1.613580 -1.010579 6.915732 -0.020441 0.003403 -0.001110
N 1.571012 -0.892079 -3.346942 -0.001681 0.002731 -0.003511
N 3.120299 1.734283 1.747575 0.000951 -0.002187 0.004419
N 3.139513 1.741750 6.895224 0.000180 0.000706 -0.000971
N 3.124795 1.760539 -3.291179 -0.000731 -0.001566 0.000800
N 6.245779 -3.659124 1.769552 -0.001143 -0.002476 0.000859
N 6.304193 -3.778468 6.919107 0.002751 0.001828 -0.002019
N 6.257002 -3.648119 -3.320759 -0.001875 0.000579 -0.001474
N 4.722160 -0.900481 1.916107 -0.004878 -0.023822 -0.014200
N 4.680584 -0.985218 6.900791 -0.000595 0.002622 0.002114
N 4.765046 -0.901872 -3.320728 -0.002770 0.000309 -0.004069
N -3.195732 1.771626 1.880736 0.001340 0.006037 -0.002196
N -3.185586 1.705435 6.864569 -0.000459 -0.003513 -0.003009
N -3.230485 1.831900 -3.321231 -0.001347 0.000199 -0.003700
N 0.030041 -3.666900 1.767673 -0.000205 0.000603 0.002799
N -0.054576 -3.698226 6.874697 -0.002053 0.002322 -0.002525
N 0.016291 -3.678348 -3.354746 -0.000487 -0.000240 0.000137
N -1.606453 -0.955668 1.796283 -0.000980 -0.001357 -0.000882
N -1.557395 -0.970776 6.874813 0.002218 0.000163 -0.002725
N -1.637257 -0.943230 -3.352080 -0.002580 -0.000818 -0.001410
