108
Energy=-665541.542691 Lattice="9.422421 0.000000 0.000000 -4.730712 8.151188 0.000000 0.018570 0.014471 15.173328" Stress="-0.000001 -0.000007 0.000004 -0.000007 -0.000002 0.000003 0.000004 0.000003 0.000032" Properties=species:S:1:pos:R:3:forces:R:3
Al 1.536203 0.875936 2.375874 0.002498 0.000068 -0.000224
Al 1.548784 0.886886 7.416678 0.001265 -0.006026 -0.004256
Al 1.536148 0.855733 -2.646393 0.001346 0.001384 0.001293
Al -0.034996 3.589883 2.377395 -0.000195 0.001084 0.001150
Al -0.021369 3.583928 7.422327 0.000633 0.001081 0.000602
Al -0.021446 3.573477 -2.679943 -0.000001 0.000193 0.002457
Al 3.125252 -1.840546 2.385168 0.001313 -0.001951 -0.000381
Al 3.153800 -1.849581 7.424450 -0.001502 0.000227 -0.002001
Al 3.138110 -1.855777 -2.665173 0.000985 -0.001647 0.001472
Al -4.745525 0.877188 2.390133 0.001000 0.000361 -0.001258
Al -4.726995 0.869638 7.419648 0.000504 0.000919 -0.000072
Al -4.741729 0.845079 -2.665522 0.001764 0.001532 0.000096
Al -6.318268 3.595815 2.383658 -0.000821 -0.000738 -0.000581
Al -6.306445 3.592027 7.417967 -0.000565 0.000773 0.000600
Al -6.322288 3.581167 -2.658619 0.000054 0.000154 0.000256
Al -3.159327 -1.834296 2.380339 -0.000032 -0.001156 -0.000347
Al -3.160223 -1.839465 7.416277 0.001928 -0.000876 0.001515
Al -3.162277 -1.857435 -2.659126 -0.000323 -0.001331 0.000278
Al -1.603798 0.884041 2.381902 0.000021 -0.000725 0.000266
Al -1.593524 0.893564 7.410299 -0.000056 -0.001456 0.002000
Al -1.600898 0.859538 -2.658268 0.000743 0.001667 0.001419
Al -3.175615 3.600773 2.388220 0.001485 -0.001360 -0.002619
Al -3.163828 3.586685 7.430806 0.000435 0.000154 0.000350
Ga -3.169759 3.578790 -2.661360 0.000702 -0.000746 0.000781
Al -0.020458 -1.827821 2.388402 0.000531 -0.001312 -0.000581
Ga -0.005580 -1.842086 7.411104 0.001323 0.000412 0.000426
Al -0.022457 -1.848684 -2.644716 0.000709 -0.002803 -0.000407
Al -0.024266 1.776471 4.892299 -0.000583 0.002243 0.000253
Al -0.042235 1.771153 -5.204611 -0.004218 0.000674 -0.000138
Al -0.030670 1.761345 -0.144732 0.000131 0.002156 0.001300
Al 3.132930 -3.657447 4.905381 -0.000170 0.001764 -0.000638
Al 3.139409 -3.680518 -5.221079 -0.002782 0.000721 0.000764
Al 3.125829 -3.678954 -0.144305 0.013489 0.008614 0.007114
Al 1.563332 -0.932413 4.886247 0.000462 -0.001274 -0.000283
Ga 1.563058 -0.961859 -5.189598 -0.000801 0.000228 0.000094
Al 1.563819 -0.962255 -0.131759 -0.000913 0.001882 -0.002930
Al 3.112020 1.779734 4.905017 -0.000237 0.000702 -0.000008
Ga 3.103189 1.768308 -5.212009 0.001828 0.000279 0.001463
Al 3.117662 1.760693 -0.134175 -0.001284 0.001145 -0.003794
Al 6.270662 -3.651518 4.900214 -0.000478 0.000212 -0.000644
Al 6.256416 -3.668145 -5.215358 0.000777 -0.000188 0.002039
Al 6.264794 -3.672294 -0.134182 -0.001025 0.001113 -0.003696
Al 4.698985 -0.934222 4.901501 -0.001652 -0.001069 -0.000339
Al 4.698280 -0.962829 -5.212825 -0.001743 0.001630 0.002665
Al 4.699603 -0.957415 -0.131588 -0.001899 0.000206 -0.003010
Al -3.167220 1.785332 4.901109 -0.001502 0.000925 0.000629
Al -3.166033 1.762388 -5.221192 -0.007216 0.004179 0.003013
Al -3.167535 1.749377 -0.126543 -0.000205 0.005655 -0.000919
Al -0.009035 -3.655590 4.892072 -0.000675 0.001184 -0.000182
Al -0.017740 -3.678635 -5.201899 0.000027 -0.000680 0.001164
Al -0.028434 -3.654499 -0.106695 0.008146 -0.003871 -0.008205
Al -1.588188 -0.923243 4.894583 -0.001279 -0.001695 -0.000042
Ga -1.608311 -0.944291 -5.194086 -0.000585 0.001205 -0.000225
Al -1.583374 -0.948006 -0.132109 -0.002633 0.000310 -0.003569
N 1.541851 0.875781 4.295041 0.001683 0.001294 -0.000845
N 1.486372 0.875104 -5.852347 0.000662 0.000397 -0.000107
N 1.539084 0.854422 -0.727021 0.001591 0.000654 -0.000862
N -0.030160 3.592195 4.300922 0.000934 -0.000432 -0.000646
N -0.031972 3.571677 -5.820394 0.000812 -0.001429 -0.001211
N -0.032832 3.572563 -0.750821 0.002387 -0.000084 -0.000394
N 3.128324 -1.841981 4.300909 0.001751 -0.000960 -0.001163
N 3.160499 -1.880158 -5.832114 0.001349 -0.001169 -0.001823
N 3.132125 -1.863995 -0.745677 0.000333 0.000625 0.001468
N -4.741855 0.876058 4.307264 0.001072 0.001041 -0.000229
N -4.710993 0.832287 -5.835034 0.000830 0.000156 -0.000987
N -4.736234 0.850779 -0.744128 0.000752 0.002544 0.000697
N -6.313894 3.592417 4.299798 -0.000113 -0.000249 -0.000467
N -6.320066 3.620847 -5.835316 -0.000407 0.001669 -0.001474
N -6.313811 3.580058 -0.736422 0.001997 -0.000576 0.000687
N -3.156319 -1.836518 4.297714 0.000693 -0.000913 -0.000442
N -3.199397 -1.876190 -5.832218 -0.000768 -0.002647 -0.002801
N -3.157927 -1.858645 -0.739781 0.001148 -0.000338 0.001011
N -1.602372 0.883950 4.300744 0.001241 -0.000114 -0.001574
N -1.630454 0.911103 -5.842746 0.012591 -0.001501 -0.000718
N -1.602104 0.862995 -0.736405 0.001143 -0.001289 -0.001000
N -3.169867 3.598936 4.301463 0.000102 -0.001564 -0.000622
N -3.179422 3.579166 -5.812328 0.000154 -0.000112 -0.000162
N -3.117648 3.587044 -0.683266 -0.028064 -0.007664 -0.001216
N -0.016599 -1.829720 4.304977 -0.000488 -0.002257 -0.000701
N -0.026558 -1.893376 -5.799347 0.000728 -0.002155 0.000213
N -0.017411 -1.851591 -0.730251 0.000724 -0.002147 0.001286
N -0.031592 1.773768 1.781485 -0.000070 0.002268 -0.000629
N -0.019865 1.778043 6.809152 0.000378 0.000745 0.000334
N -0.027358 1.756414 -3.271739 -0.000555 0.000275 -0.002277
N 3.126247 -3.653127 1.786864 0.001435 0.000200 -0.000670
N 3.137701 -3.662216 6.827622 0.000513 -0.000074 0.000391
N 3.169176 -3.654032 -3.301145 0.001809 0.002820 -0.001618
N 1.556340 -0.938216 1.782491 -0.000665 -0.000387 0.001691
N 1.614633 -0.935264 6.783035 -0.000408 0.008379 0.007064
N 1.559535 -0.955659 -3.216655 -0.001180 0.000350 0.001876
N 3.110447 1.781761 1.774910 0.000097 0.000128 0.003601
N 3.121598 1.783196 6.827585 0.000063 -0.000872 -0.000398
N 3.109176 1.761374 -3.229922 -0.000621 0.000362 0.002647
N 6.264286 -3.648082 1.774703 0.000590 -0.001486 0.003505
N 6.275192 -3.652485 6.818509 -0.000019 -0.000330 0.000330
N 6.269591 -3.668527 -3.281016 0.000500 0.000575 -0.001100
N 4.693529 -0.929788 1.779016 -0.000514 -0.001438 0.002494
N 4.706889 -0.936418 6.816487 -0.000872 0.000015 -0.000804
N 4.697504 -0.952504 -3.279699 -0.000548 -0.000973 -0.001766
N -3.175720 1.782400 1.787817 -0.000708 -0.000558 0.001886
N -3.160646 1.783421 6.821012 -0.001849 0.000739 -0.001474
N -3.168517 1.722234 -3.295119 -0.001541 -0.002107 -0.001169
N -0.018149 -3.643009 1.790272 -0.000931 -0.000874 0.004328
N -0.002917 -3.695742 6.800585 -0.000117 -0.003531 -0.001225
N -0.048706 -3.648088 -3.279891 -0.002528 0.001560 -0.001525
N -1.588120 -0.926943 1.778438 -0.000878 -0.001525 0.002870
N -1.612972 -0.908268 6.806817 -0.003843 0.000531 -0.000678
N -1.588403 -0.944975 -3.220670 -0.001101 -0.001707 0.002285
