108
Energy=-2.313459e+06 Lattice="9.628524e+00 0.000000e+00 0.000000e+00 -4.817196e+00 8.336126e+00 0.000000e+00 -1.451891e-03 -5.043209e-04 1.560443e+01" Stress="-3.265450e-05 -6.407986e-05 -2.345554e-05 -6.282718e-05 -6.099507e-05 2.625012e-05 -1.104508e-05 1.856980e-05 2.067381e-05" Properties=species:S:1:pos:R:3:forces:R:3 Config_type=AlGaN_super3_41_1_10.xyz
Al 1.571382e+00 8.966457e-01 2.465155e+00 1.060155e-04 2.515714e-05 3.159912e-04
Al 1.575936e+00 8.785180e-01 7.651078e+00 1.250243e-04 -2.911519e-05 5.046081e-04
Al 1.581524e+00 8.764331e-01 -2.761446e+00 1.334057e-04 -6.845467e-05 3.721418e-04
Al -2.931602e-02 3.656277e+00 2.437035e+00 3.545645e-05 -3.421547e-05 4.370683e-04
Ga -2.178734e-02 3.655097e+00 7.650799e+00 2.254835e-05 -8.140299e-05 5.073995e-04
Ga -1.334399e-02 3.666186e+00 -2.735906e+00 5.127015e-05 6.520820e-05 4.658630e-04
Ga 3.179563e+00 -1.907475e+00 2.438020e+00 1.173662e-04 -1.187352e-04 3.861932e-04
Al 3.176737e+00 -1.883578e+00 7.660935e+00 6.100455e-05 2.633788e-05 3.837343e-04
Ga 3.172064e+00 -1.886955e+00 -2.740605e+00 1.175599e-04 -4.125192e-05 4.648477e-04
Ga -4.842119e+00 8.986863e-01 2.443579e+00 1.895214e-04 -1.124594e-04 2.092493e-04
Ga -4.854664e+00 8.806881e-01 7.655705e+00 1.861784e-04 -7.599451e-05 2.033771e-04
Ga -4.844101e+00 8.921191e-01 -2.735021e+00 1.161007e-04 -4.071958e-05 5.351561e-05
Ga -6.455438e+00 3.658841e+00 2.435986e+00 4.076825e-05 2.276727e-05 2.781922e-04
Ga -6.448039e+00 3.662676e+00 7.674012e+00 8.173457e-05 -4.101800e-05 2.671981e-04
Ga -6.454486e+00 3.667081e+00 -2.751517e+00 5.978463e-05 4.557132e-05 3.576423e-04
Ga -3.237451e+00 -1.905506e+00 2.445571e+00 1.011091e-04 -3.648199e-05 2.638807e-04
Ga -3.243071e+00 -1.898603e+00 7.667173e+00 8.216962e-05 1.038587e-04 2.133037e-04
Ga -3.231911e+00 -1.907496e+00 -2.744807e+00 9.527713e-05 -1.272385e-06 2.881670e-04
Ga -1.618444e+00 9.098954e-01 2.450866e+00 2.560580e-04 -2.060615e-04 2.130067e-04
Ga -1.610499e+00 8.963433e-01 7.641285e+00 2.916570e-04 -1.356802e-04 1.609813e-04
Ga -1.622104e+00 8.938471e-01 -2.726646e+00 2.354365e-04 -2.250359e-04 1.402461e-04
Al -3.217091e+00 3.662333e+00 2.427556e+00 6.538522e-05 -8.419319e-05 4.060851e-04
Ga -3.234106e+00 3.676470e+00 7.667297e+00 1.613109e-04 -1.194932e-04 3.281073e-04
Ga -3.232098e+00 3.667433e+00 -2.732803e+00 9.137021e-05 -6.172690e-06 3.078653e-04
Ga -1.126166e-02 -1.889457e+00 2.455892e+00 1.771379e-04 -1.059569e-04 3.107502e-04
Ga -1.115429e-03 -1.888402e+00 7.676911e+00 1.539882e-04 -3.764790e-05 2.553289e-04
Ga -4.760407e-03 -1.884415e+00 -2.770101e+00 1.843956e-04 -1.048006e-04 2.252558e-04
Al -1.210938e-02 1.816548e+00 5.034177e+00 -8.364634e-05 6.602211e-05 3.263213e-04
Ga -4.978835e-03 1.808158e+00 -5.340936e+00 -2.460051e-04 9.304893e-05 5.339024e-04
Ga -1.566706e-02 1.824734e+00 -1.402615e-01 -2.683853e-04 1.503281e-04 4.542571e-04
Ga 3.192580e+00 -3.758492e+00 5.041670e+00 -1.354928e-04 6.064653e-05 4.307752e-04
Ga 3.185127e+00 -3.732375e+00 -5.358375e+00 -1.722528e-04 2.673609e-05 3.492146e-04
Al 3.194755e+00 -3.761608e+00 -1.308503e-01 -7.850442e-05 6.792611e-05 1.666928e-04
Ga 1.583841e+00 -9.496416e-01 5.063911e+00 -2.967997e-04 1.728993e-04 2.878473e-04
Al 1.587462e+00 -9.639067e-01 -5.366341e+00 -1.280080e-04 3.246566e-05 2.858846e-04
Ga 1.586692e+00 -9.611151e-01 -1.410698e-01 -2.685073e-04 1.768649e-04 2.160948e-04
Ga 3.163391e+00 1.810035e+00 5.056628e+00 -3.019604e-05 -7.899866e-06 4.045751e-04
Ga 3.168126e+00 1.815905e+00 -5.348007e+00 -4.530717e-05 2.178783e-05 3.007843e-04
Ga 3.174989e+00 1.811369e+00 -1.513314e-01 -8.548158e-05 3.279143e-05 4.773362e-04
Ga 6.385717e+00 -3.758310e+00 5.041114e+00 -1.340517e-05 2.323537e-06 5.350523e-04
Al 6.404823e+00 -3.747377e+00 -5.349078e+00 2.436217e-05 9.217836e-06 4.007312e-04
Al 6.381647e+00 -3.749349e+00 -1.333671e-01 1.031359e-05 3.727659e-05 1.237909e-04
Ga 4.786676e+00 -9.711316e-01 5.062930e+00 -1.301351e-04 6.166476e-05 1.471884e-04
Ga 4.779730e+00 -9.780761e-01 -5.349130e+00 -1.075718e-04 6.079816e-05 2.383983e-04
Ga 4.796210e+00 -9.761314e-01 -1.520043e-01 -1.903577e-04 2.033574e-04 4.424359e-04
Ga -3.225094e+00 1.823764e+00 5.040459e+00 -7.465390e-05 -1.362632e-06 3.103370e-04
Ga -3.235912e+00 1.822985e+00 -5.345521e+00 -8.739228e-05 -3.157089e-05 3.409153e-04
Al -3.228046e+00 1.826825e+00 -1.316423e-01 -1.028860e-04 -1.699278e-05 1.611976e-04
Ga -1.451718e-02 -3.750305e+00 5.039577e+00 -6.844508e-05 9.581164e-06 3.802344e-04
Al -2.526954e-02 -3.738303e+00 -5.339564e+00 -5.567450e-05 8.108816e-05 3.082957e-04
Ga -1.256509e-02 -3.754451e+00 -1.434047e-01 -9.161310e-05 5.314246e-05 4.574283e-04
Ga -1.622474e+00 -9.589268e-01 5.058887e+00 -1.956694e-04 7.554425e-05 1.523871e-04
Ga -1.618304e+00 -9.773697e-01 -5.347016e+00 -2.106175e-04 6.529011e-05 1.393175e-04
Ga -1.633360e+00 -9.690628e-01 -1.500692e-01 -2.199805e-04 1.375913e-04 3.291853e-04
N 1.537843e+00 9.083665e-01 4.385778e+00 1.714713e-04 -4.324404e-05 -3.164516e-04
N 1.576095e+00 8.398844e-01 -6.027570e+00 1.913445e-04 -4.768697e-05 -3.614679e-04
N 1.577529e+00 8.805934e-01 -8.456285e-01 2.137183e-04 -7.051252e-05 -2.094877e-04
N -2.759890e-02 3.616812e+00 4.372381e+00 6.482010e-05 -2.075376e-05 -4.439636e-04
N 1.769446e-02 3.683426e+00 -5.965970e+00 1.150200e-04 1.687233e-05 -4.841989e-04
N -2.341543e-02 3.713802e+00 -7.433203e-01 6.925102e-05 -4.935662e-05 -4.666460e-04
N 3.182236e+00 -1.896474e+00 4.415499e+00 1.275635e-04 -8.213282e-05 -2.495629e-04
N 3.143609e+00 -1.868017e+00 -6.019350e+00 9.007136e-05 -5.032583e-05 -3.184208e-04
N 3.180241e+00 -1.947376e+00 -7.515752e-01 1.441333e-04 -1.441702e-04 -2.958415e-04
N -4.841835e+00 8.885761e-01 4.426036e+00 1.778855e-04 7.401684e-05 -2.527188e-04
N -4.842512e+00 8.875101e-01 -5.973659e+00 1.290922e-04 2.053049e-05 -2.520467e-04
N -4.795095e+00 9.144164e-01 -7.493659e-01 2.167105e-04 -5.204390e-06 -1.912233e-04
N -6.445585e+00 3.663210e+00 4.412373e+00 1.851625e-05 7.019361e-05 -4.497732e-04
N -6.441219e+00 3.714143e+00 -5.937010e+00 2.091590e-05 4.385169e-05 -3.527786e-04
N -6.489256e+00 3.693115e+00 -7.586501e-01 -7.706282e-06 5.312626e-05 -3.275542e-04
N -3.232530e+00 -1.893646e+00 4.422652e+00 1.087242e-04 -1.209334e-05 -3.326793e-04
N -3.233340e+00 -1.940312e+00 -5.957023e+00 1.018873e-04 -7.990391e-05 -2.582823e-04
N -3.231135e+00 -1.949579e+00 -7.626405e-01 8.904357e-05 -5.017220e-05 -2.442657e-04
N -1.585816e+00 9.143479e-01 4.438499e+00 2.000550e-04 -6.970962e-05 -2.147653e-04
N -1.623277e+00 8.920822e-01 -5.982790e+00 2.628166e-04 -6.261497e-05 -3.145231e-04
N -1.667624e+00 9.152827e-01 -7.427982e-01 2.278665e-04 -2.405369e-05 -1.960638e-04
N -3.229285e+00 3.666648e+00 4.350432e+00 1.340997e-04 -4.652032e-05 -3.445532e-04
N -3.278247e+00 3.693217e+00 -5.958849e+00 7.975046e-05 -1.989062e-05 -3.252713e-04
N -3.188875e+00 3.642859e+00 -7.417280e-01 1.580550e-04 -8.520832e-05 -3.171306e-04
N -1.786412e-02 -1.888448e+00 4.429940e+00 1.906911e-04 -1.289212e-04 -2.940986e-04
N 2.391073e-02 -1.916911e+00 -5.934933e+00 1.771126e-04 -1.207459e-04 -2.495767e-04
N -1.610000e-02 -1.894156e+00 -7.883013e-01 1.373622e-04 -1.461068e-04 -2.225108e-04
N 2.517983e-02 1.835587e+00 1.847851e+00 -5.668458e-05 2.490093e-05 -4.835438e-04
N 2.616581e-02 1.790612e+00 6.970308e+00 -8.844987e-05 1.251504e-04 -4.223564e-04
N 1.986057e-02 1.790202e+00 -3.353172e+00 -8.593545e-05 1.010897e-04 -3.754197e-04
N 3.192727e+00 -3.798196e+00 1.801182e+00 -8.119369e-05 1.241723e-04 -2.135081e-04
N 3.189259e+00 -3.699685e+00 7.038110e+00 -9.232399e-05 1.350955e-04 -4.186833e-04
N 3.191201e+00 -3.744070e+00 -3.379804e+00 -1.010642e-04 5.370733e-05 -3.941736e-04
N 1.583099e+00 -9.090680e-01 1.838619e+00 -1.948070e-04 8.406215e-05 -3.159273e-04
N 1.624927e+00 -9.393064e-01 7.055161e+00 -1.603896e-04 3.618416e-05 -3.940259e-04
N 1.591853e+00 -9.155149e-01 -3.434364e+00 -2.633304e-04 1.763952e-04 -3.703016e-04
N 3.135322e+00 1.783971e+00 1.832074e+00 -6.492303e-05 -9.297314e-05 -4.976371e-04
N 3.136600e+00 1.791966e+00 7.045954e+00 -1.461408e-04 -7.028050e-06 -3.585808e-04
N 3.142196e+00 1.789430e+00 -3.359732e+00 -1.571596e-04 -1.855322e-05 -2.991190e-04
N 6.350237e+00 -3.770736e+00 1.788047e+00 -9.269641e-05 -5.699461e-05 -1.448673e-04
N 6.396490e+00 -3.748764e+00 7.015012e+00 -7.417473e-05 -2.568916e-05 -3.170438e-04
N 6.394757e+00 -3.747547e+00 -3.435942e+00 -9.184487e-05 -8.845783e-05 -3.477658e-04
N 4.789791e+00 -9.653308e-01 1.819729e+00 -2.001084e-04 1.744462e-05 -4.834500e-04
N 4.748409e+00 -9.934444e-01 7.047479e+00 -2.091395e-04 -3.487174e-05 -2.667765e-04
N 4.788320e+00 -9.675754e-01 -3.367140e+00 -1.913527e-04 1.049174e-05 -2.452738e-04
N -3.232322e+00 1.858703e+00 1.790306e+00 -1.856062e-04 1.260552e-04 -1.040328e-04
N -3.235157e+00 1.818453e+00 7.020425e+00 -1.624965e-04 6.097084e-05 -2.244580e-04
N -3.231352e+00 1.814122e+00 -3.372926e+00 -1.155828e-04 4.567311e-05 -2.139653e-04
N 2.058968e-02 -3.768306e+00 1.838919e+00 2.836706e-05 -8.228382e-05 -5.244644e-04
N -2.300671e-02 -3.744819e+00 7.019379e+00 -1.080965e-04 1.799236e-05 -2.821415e-04
N -1.930035e-02 -3.749055e+00 -3.418087e+00 -9.741787e-05 -5.440611e-05 -2.786207e-04
N -1.626024e+00 -9.628232e-01 1.826689e+00 -1.503078e-04 6.459429e-05 -3.934047e-04
N -1.623764e+00 -9.712231e-01 7.038992e+00 -2.334674e-04 1.342548e-05 -1.598459e-04
N -1.628116e+00 -9.615912e-01 -3.369372e+00 -2.206662e-04 1.012858e-04 -2.053370e-04
