108
Energy=-2313458.897961 Lattice="9.640701 0.000000 0.000000 -4.845761 8.352730 0.000000 -0.063828 0.052295 15.566922" Stress="0.000016 -0.000009 -0.000012 -0.000009 0.000010 0.000009 -0.000012 0.000009 -0.000013" Properties=species:S:1:pos:R:3:forces:R:3
Al 1.521135 0.948392 2.447957 0.003297 0.000823 -0.000995
Al 1.550492 0.922209 7.624684 0.001612 0.001918 0.002578
Ga 1.606116 0.851541 -2.712544 0.001194 0.000960 0.005309
Al -0.084081 3.699084 2.412498 0.002225 -0.001383 0.003662
Ga -0.054936 3.697309 7.617861 -0.000160 0.001136 0.002609
Ga -0.003805 3.625678 -2.708123 0.001092 0.001178 0.004344
Ga 3.149286 -1.858027 2.409219 0.000171 -0.001941 0.007630
Ga 3.170889 -1.853113 7.618499 0.000255 -0.000817 0.002007
Ga 3.236908 -1.941950 -2.724011 0.000684 0.001209 0.000506
Ga -4.903971 0.952822 2.423785 0.000831 0.001414 0.004846
Al -4.888696 0.926048 7.632914 -0.000800 0.000668 0.001302
Ga -4.807468 0.859847 -2.733275 0.000188 0.000411 0.002101
Ga -6.508168 3.716112 2.413591 0.000950 0.001369 0.005655
Al -6.502433 3.698670 7.619131 -0.000467 0.000162 0.001076
Ga -6.423042 3.635973 -2.723672 -0.001045 0.000420 0.002373
Ga -3.282994 -1.838756 2.453080 0.001518 -0.002346 0.002532
Al -3.256806 -1.858165 7.613564 -0.000710 -0.000768 0.002070
Ga -3.189905 -1.935368 -2.736018 -0.000277 0.000220 0.001697
Ga -1.675798 0.951177 2.434881 0.003602 -0.000079 0.000951
Ga -1.691885 0.917879 7.623457 0.002847 -0.000177 0.000934
Ga -1.612919 0.872058 -2.708934 0.000633 -0.000671 0.004286
Al -3.275683 3.712401 2.381307 -0.000614 -0.000513 0.006851
Ga -3.302761 3.693032 7.630636 0.001912 0.001869 0.002237
Ga -3.222217 3.636374 -2.715285 0.000773 -0.000833 0.003894
Ga -0.061034 -1.841948 2.418515 0.001611 -0.003213 0.007015
Ga -0.068997 -1.855905 7.612211 0.002185 -0.000259 0.001529
Ga 0.018817 -1.933679 -2.726950 0.000367 0.000524 -0.000062
Ga -0.063817 1.841382 5.016753 -0.002006 0.002418 0.003955
Ga -0.002590 1.778968 -5.345844 -0.000451 0.000062 0.003688
Al -0.016928 1.791977 -0.090769 0.002912 -0.002084 -0.009786
Ga 3.165305 -3.724264 4.997655 -0.001380 0.000198 0.003672
Ga 3.234091 -3.795244 -5.332753 -0.001457 0.000339 0.002087
Al 3.217302 -3.804830 -0.110637 0.001945 -0.002470 -0.010819
Ga 1.548953 -0.918618 5.025980 -0.001873 -0.001805 0.001141
Ga 1.628496 -0.996377 -5.341834 -0.001709 0.001132 0.002033
Ga 1.635581 -1.043185 -0.117040 -0.004775 0.013222 -0.005718
Ga 3.136737 1.852945 5.043865 -0.000063 0.000966 0.002941
Ga 3.220351 1.786561 -5.368207 -0.000560 0.000258 0.004062
Ga 3.235153 1.770227 -0.118390 -0.008151 0.001213 -0.007517
Ga 6.380545 -3.703186 5.029790 -0.000894 -0.001061 0.001915
Ga 6.452026 -3.778824 -5.357457 0.000383 -0.000237 0.003078
Ga 6.454759 -3.811124 -0.115737 -0.005807 0.001795 -0.006423
Ga 4.779341 -0.920427 5.050239 -0.002389 -0.001007 0.001645
Ga 4.848947 -0.989316 -5.358483 -0.000988 0.000810 0.001796
Ga 4.855719 -1.028029 -0.132119 -0.003232 0.006746 -0.006451
Ga -3.286008 1.856398 5.012614 -0.000846 0.002051 0.004500
Al -3.217805 1.788600 -5.350763 -0.001973 0.000002 0.004947
Al -3.216206 1.812986 -0.109997 0.001389 -0.002143 -0.010994
Ga -0.050884 -3.706620 5.012865 0.001015 -0.000112 0.003665
Ga 0.021055 -3.786609 -5.352572 -0.001216 -0.000187 0.002763
Al 0.028011 -3.783301 -0.126570 -0.000911 -0.003449 -0.008669
Al -1.668541 -0.921433 5.034782 0.000044 -0.002909 0.003107
Ga -1.597840 -0.984415 -5.343602 -0.001340 -0.000261 0.002740
Ga -1.570137 -1.015387 -0.134656 -0.006455 0.010030 -0.006797
N 1.535649 0.929992 4.362180 0.001963 0.000315 -0.003590
N 1.604294 0.855563 -6.012255 0.000824 0.000326 -0.003929
N 1.574552 0.859550 -0.711065 -0.003309 0.001926 -0.006277
N -0.072860 3.705269 4.354612 0.001062 -0.000668 -0.005548
N -0.005052 3.638099 -5.965110 0.000526 0.000466 -0.002693
N -0.041850 3.603654 -0.699192 -0.002630 0.002753 -0.003775
N 3.161834 -1.854631 4.403031 0.001124 -0.000065 -0.001898
N 3.229967 -1.930039 -5.964600 0.001168 -0.000691 -0.001589
N 3.238867 -1.996261 -0.736266 0.000553 -0.000029 0.000630
N -4.897960 0.930112 4.406382 0.000687 0.000307 -0.003022
N -4.783696 0.884242 -5.998372 0.002942 0.000751 -0.003240
N -4.770173 0.867146 -0.737483 0.002619 0.000639 -0.002133
N -6.501985 3.710699 4.401994 -0.000260 -0.000234 -0.002648
N -6.432094 3.643289 -6.017483 0.000041 0.000675 -0.004700
N -6.385761 3.646841 -0.730151 0.001423 0.002709 -0.001930
N -3.235309 -1.827314 4.431980 0.001941 0.000042 -0.001097
N -3.192647 -1.922200 -6.018576 0.000379 -0.000245 -0.004643
N -3.182085 -1.953021 -0.760507 -0.000147 0.001296 -0.001929
N -1.685924 0.882544 4.423837 0.002326 0.000513 -0.002496
N -1.653586 0.885536 -5.953553 0.000520 0.000602 -0.001811
N -1.607806 0.908323 -0.693324 -0.001990 -0.000287 -0.005399
N -3.293399 3.712127 4.333333 0.000394 -0.000322 -0.006920
N -3.222483 3.600747 -5.947699 0.001452 -0.001388 -0.001763
N -3.224551 3.643525 -0.699512 -0.000466 0.000531 -0.003266
N -0.100795 -1.828487 4.417400 -0.000046 0.000250 -0.000755
N 0.009324 -1.916761 -5.969774 0.000903 -0.000852 -0.001717
N 0.022690 -1.985163 -0.747091 0.000418 -0.000030 0.000624
N -0.019512 1.864631 1.806411 -0.002885 0.004149 0.008361
N -0.025240 1.822568 7.010758 -0.000389 -0.001602 -0.001425
N 0.004788 1.777349 -3.351320 -0.000396 -0.000134 -0.004788
N 3.173270 -3.765324 1.779489 -0.000450 0.000418 0.010103
N 3.167505 -3.725908 6.990429 -0.001232 -0.000202 -0.002364
N 3.238724 -3.795252 -3.345512 -0.000495 -0.000232 -0.002725
N 1.543759 -0.847212 1.840888 0.002508 -0.012755 0.002413
N 1.560204 -0.884527 7.013288 -0.001977 -0.000358 -0.001666
N 1.631859 -1.005099 -3.352138 -0.000699 0.000350 -0.002015
N 3.081140 1.847013 1.828834 0.006412 -0.003122 0.006257
N 3.145014 1.848890 7.049412 0.000360 -0.000364 0.000701
N 3.216474 1.782881 -3.363478 -0.000374 -0.001224 -0.003499
N 6.322027 -3.709716 1.837897 0.004061 -0.004825 0.005371
N 6.414864 -3.695082 7.026458 0.002527 0.000797 -0.000568
N 6.451953 -3.789666 -3.358841 -0.000781 -0.001528 -0.003110
N 4.755181 -0.903534 1.814838 0.002028 -0.006363 0.003460
N 4.808335 -0.903538 7.041515 0.001651 0.000026 -0.000110
N 4.844797 -1.001669 -3.365461 -0.001570 0.000024 -0.001675
N -3.277041 1.894011 1.773682 -0.001877 0.002164 0.009063
N -3.321974 1.834896 7.004897 -0.002129 -0.001835 -0.002386
N -3.210222 1.789984 -3.400653 -0.000268 -0.000064 -0.006501
N -0.004886 -3.731729 1.760818 0.000632 0.000780 0.010158
N -0.081745 -3.737291 7.010453 -0.002180 -0.001330 -0.001916
N 0.023306 -3.785128 -3.362072 -0.000167 -0.000430 -0.002976
N -1.678724 -0.904959 1.809007 0.003458 -0.007529 0.005540
N -1.696100 -0.949626 6.969316 -0.002741 -0.000117 -0.003995
N -1.585617 -0.994057 -3.351608 -0.000535 0.001219 -0.001693
