108
Energy=-6.655417e+05 Lattice="9.422737e+00 0.000000e+00 0.000000e+00 -4.711955e+00 8.160596e+00 0.000000e+00 -9.319333e-04 -6.085223e-04 1.512630e+01" Stress="7.639886e-05 -2.608806e-05 -4.800971e-05 -2.431442e-05 3.836161e-05 -1.645030e-05 -5.120944e-05 -1.736444e-05 2.513029e-04" Properties=species:S:1:pos:R:3:forces:R:3 Config_type=AlGaN_super3_5_2_30.xyz
Al 1.543718e+00 8.687660e-01 2.356810e+00 3.967155e-06 2.241280e-05 -3.662678e-05
Al 1.543796e+00 8.715702e-01 7.424420e+00 -1.215999e-05 -4.632639e-06 1.580801e-05
Al 1.553226e+00 8.753594e-01 -2.665140e+00 -2.951611e-06 2.782925e-05 4.572430e-05
Al -2.763979e-02 3.584596e+00 2.356162e+00 4.600959e-06 6.058054e-07 -3.375893e-05
Al -2.510207e-02 3.580619e+00 7.416587e+00 -2.083078e-05 1.517775e-05 2.884750e-05
Al -1.634792e-02 3.584529e+00 -2.657801e+00 -1.805731e-05 8.694572e-06 3.555673e-05
Al 3.122261e+00 -1.853863e+00 2.366017e+00 9.948277e-07 9.820993e-06 -4.045512e-05
Al 3.127989e+00 -1.847447e+00 7.398562e+00 8.611520e-06 -1.521634e-07 2.517636e-05
Al 3.128170e+00 -1.845561e+00 -2.650421e+00 -3.652711e-05 4.599110e-05 3.598476e-05
Al -4.730517e+00 8.647534e-01 2.356489e+00 1.174015e-05 1.086291e-05 -3.083278e-05
Al -4.726804e+00 8.630378e-01 7.425755e+00 2.624009e-05 -2.106798e-05 2.466837e-05
Al -4.733156e+00 8.683615e-01 -2.671725e+00 1.347567e-06 3.233121e-06 4.128572e-05
Al -6.303174e+00 3.587369e+00 2.346084e+00 1.913381e-06 9.138114e-07 -1.082675e-04
Al -6.303375e+00 3.584904e+00 7.438828e+00 -4.414356e-05 -2.093013e-05 1.156811e-06
Al -6.309458e+00 3.579655e+00 -2.665769e+00 6.408414e-06 3.751004e-06 5.164135e-05
Al -3.165894e+00 -1.847980e+00 2.356686e+00 -2.588290e-06 5.817791e-06 -4.313275e-05
Al -3.173628e+00 -1.845560e+00 7.424178e+00 -2.022358e-06 3.780040e-05 2.807487e-05
Al -3.172391e+00 -1.852548e+00 -2.665496e+00 -5.099947e-06 3.500113e-06 4.875867e-05
Al -1.593154e+00 8.701053e-01 2.367480e+00 1.178614e-05 4.715502e-06 -1.767183e-05
Al -1.597920e+00 8.767356e-01 7.409902e+00 8.421965e-06 -2.494298e-05 1.943928e-05
Al -1.598284e+00 8.767936e-01 -2.664763e+00 1.952227e-05 -9.275130e-06 5.376453e-05
Al -3.161717e+00 3.586337e+00 2.366544e+00 4.704268e-06 -3.772311e-06 -4.537385e-05
Al -3.164522e+00 3.576921e+00 7.399198e+00 2.150842e-05 -1.344407e-05 -1.735864e-05
Al -3.163944e+00 3.575570e+00 -2.650336e+00 6.983563e-05 -3.446976e-05 9.320327e-05
Al -2.342168e-02 -1.852750e+00 2.365605e+00 2.129318e-06 2.115300e-06 -5.042724e-05
Ga -2.250588e-02 -1.852862e+00 7.416690e+00 1.866708e-05 -3.864146e-06 8.491144e-06
Ga -2.103743e-02 -1.850957e+00 -2.661887e+00 1.671453e-05 8.257456e-06 1.424320e-05
Al -3.554145e-02 1.766453e+00 4.887018e+00 -1.714226e-05 3.544003e-06 3.646884e-05
Al -2.059045e-02 1.765308e+00 -5.184212e+00 -1.145680e-05 6.305388e-07 3.138652e-05
Al -2.325477e-02 1.772704e+00 -1.521997e-01 -2.005322e-06 1.432035e-05 2.780659e-05
Al 3.111075e+00 -3.666604e+00 4.886519e+00 1.603231e-06 2.604261e-05 5.029336e-06
Ga 3.115482e+00 -3.664361e+00 -5.184264e+00 -3.753720e-05 1.078980e-05 1.373193e-05
Al 3.118485e+00 -3.665766e+00 -1.509366e-01 -1.172028e-05 5.602190e-06 2.312878e-05
Al 1.547281e+00 -9.492538e-01 4.873413e+00 -3.766069e-06 2.691092e-05 -5.037677e-06
Al 1.555863e+00 -9.333717e-01 -5.184554e+00 -3.119028e-05 -4.411786e-05 -2.364072e-05
Al 1.554395e+00 -9.420094e-01 -1.337888e-01 3.725246e-06 1.906426e-05 3.640320e-05
Ga 3.121911e+00 1.766706e+00 4.897373e+00 1.896213e-07 2.041898e-05 1.662532e-05
Al 3.118224e+00 1.773275e+00 -5.189666e+00 4.520866e-06 -2.011390e-06 6.152239e-06
Al 3.119052e+00 1.772470e+00 -1.540587e-01 -4.887394e-06 3.645545e-06 3.323504e-05
Ga 6.255849e+00 -3.658277e+00 4.892618e+00 1.845593e-05 -5.948105e-06 -2.509451e-06
Al 6.267125e+00 -3.664220e+00 -5.187555e+00 -8.014787e-06 2.208159e-05 5.341319e-06
Al 6.259330e+00 -3.665200e+00 -1.503523e-01 -7.053827e-06 -7.837983e-06 3.458524e-05
Al 4.691115e+00 -9.446814e-01 4.886886e+00 -2.489804e-05 5.345118e-06 2.736790e-05
Al 4.692326e+00 -9.396355e-01 -5.183841e+00 -5.497140e-06 -1.967632e-06 1.802684e-05
Al 4.689197e+00 -9.444239e-01 -1.520045e-01 -1.408155e-05 -1.232268e-07 2.198504e-05
Al -3.155785e+00 1.772825e+00 4.884812e+00 8.734612e-06 -2.277104e-06 2.007439e-05
Al -3.165459e+00 1.768748e+00 -5.188001e+00 1.979916e-05 -1.580030e-05 2.723442e-05
Al -3.163322e+00 1.773226e+00 -1.483222e-01 -3.113653e-06 3.368648e-06 3.307309e-05
Al -1.179376e-02 -3.663684e+00 4.876404e+00 -1.793018e-05 -4.605710e-06 -2.061885e-05
Al -2.732500e-02 -3.677480e+00 -5.179692e+00 4.755476e-05 9.084417e-05 -2.025278e-05
Al -2.113192e-02 -3.671870e+00 -1.384353e-01 3.607188e-07 -3.529452e-06 4.628739e-05
Al -1.593698e+00 -9.358108e-01 4.878229e+00 -1.612707e-05 3.248785e-06 2.634361e-05
Al -1.603068e+00 -9.373231e-01 -5.186383e+00 2.835077e-05 -1.281988e-05 -8.984662e-06
Al -1.598379e+00 -9.407292e-01 -1.392968e-01 1.565579e-05 -1.484495e-06 2.130794e-05
N 1.505808e+00 8.485414e-01 4.266642e+00 -3.343711e-05 -9.686370e-07 -6.611129e-05
N 1.544228e+00 8.684523e-01 -5.785706e+00 -2.104221e-06 2.608442e-06 -1.661771e-05
N 1.547888e+00 8.663601e-01 -7.470425e-01 -1.345700e-06 -7.126873e-06 3.865889e-05
N -6.465245e-02 3.562983e+00 4.271307e+00 -3.326150e-05 -2.783109e-05 -5.919711e-05
N 1.586661e-02 3.561281e+00 -5.798189e+00 3.662667e-05 -2.258539e-05 -9.448145e-06
N -2.001364e-02 3.586141e+00 -7.427662e-01 -1.172206e-05 -3.286940e-07 4.243875e-05
N 3.122703e+00 -1.854269e+00 4.287555e+00 -1.365115e-05 -2.459700e-06 -4.642564e-05
N 3.121285e+00 -1.804509e+00 -5.814932e+00 -1.097675e-05 5.798676e-05 1.285707e-05
N 3.118175e+00 -1.849115e+00 -7.384387e-01 -1.473789e-05 1.139921e-05 5.767273e-05
N -4.692841e+00 8.444445e-01 4.267828e+00 5.214048e-05 -1.220027e-05 -6.862003e-05
N -4.730427e+00 8.656178e-01 -5.780778e+00 1.366875e-05 2.315581e-06 -1.010335e-05
N -4.732625e+00 8.680441e-01 -7.521443e-01 1.691252e-05 -6.665042e-06 4.176833e-05
N -6.267464e+00 3.608072e+00 4.246967e+00 6.906278e-05 3.156871e-05 5.292467e-05
N -6.303115e+00 3.589003e+00 -5.775779e+00 2.019558e-05 7.080254e-06 1.492964e-05
N -6.304543e+00 3.587933e+00 -7.457966e-01 4.442696e-07 3.457325e-06 4.622731e-05
N -3.164763e+00 -1.805419e+00 4.264727e+00 2.493945e-06 3.728849e-05 -6.205172e-05
N -3.165953e+00 -1.849736e+00 -5.784451e+00 3.910479e-06 5.162619e-06 -7.659680e-06
N -3.162732e+00 -1.852106e+00 -7.473451e-01 1.102757e-05 8.999268e-06 5.319811e-05
N -1.593647e+00 8.700929e-01 4.283672e+00 3.253276e-05 -1.532373e-05 -7.096617e-05
N -1.592872e+00 8.712580e-01 -5.794374e+00 2.005175e-05 -3.899120e-06 -2.736215e-05
N -1.594094e+00 8.680014e-01 -7.487319e-01 1.851832e-05 -1.000479e-05 3.569878e-05
N -3.161376e+00 3.585589e+00 4.286432e+00 2.194220e-06 -2.142584e-05 -4.729220e-05
N -3.204559e+00 3.562653e+00 -5.814849e+00 -2.256711e-05 1.938475e-06 8.387396e-05
N -3.165872e+00 3.585199e+00 -7.385800e-01 1.195423e-05 -1.175549e-05 7.186918e-05
N -2.448507e-02 -1.852319e+00 4.289338e+00 2.366506e-06 -1.269420e-06 -2.731037e-05
N -2.138504e-02 -1.852429e+00 -5.726428e+00 -3.614750e-05 -7.349197e-05 6.115344e-05
N -2.145730e-02 -1.850953e+00 -6.868481e-01 -7.783321e-05 -8.541801e-05 7.734506e-05
N -2.517402e-02 1.773129e+00 1.760417e+00 -1.235900e-05 -2.027144e-05 -5.967870e-05
N -2.295834e-02 1.772236e+00 6.808470e+00 2.490110e-06 -6.030623e-07 -2.978645e-05
N -2.280068e-02 1.773548e+00 -3.263136e+00 -1.674857e-05 -1.565965e-06 3.514957e-06
N 3.116935e+00 -3.664984e+00 1.766114e+00 -4.287213e-06 7.538303e-06 -4.125930e-05
N 3.119094e+00 -3.666947e+00 6.812283e+00 -9.818563e-06 7.620813e-06 -2.978417e-05
N 3.117584e+00 -3.665084e+00 -3.204941e+00 4.751138e-05 -1.726776e-05 3.283902e-05
N 1.551508e+00 -9.463722e-01 1.778691e+00 -1.132956e-05 3.456012e-06 -2.882998e-05
N 1.587428e+00 -9.191258e-01 6.787183e+00 -2.159660e-05 -1.170471e-05 -1.812049e-05
N 1.595203e+00 -9.201953e-01 -3.276846e+00 4.120817e-05 -5.704078e-05 6.900263e-05
N 3.118478e+00 1.770710e+00 1.762504e+00 8.837299e-06 -1.850235e-05 -4.898986e-05
N 3.119237e+00 1.773644e+00 6.876532e+00 -4.176288e-06 8.523498e-05 -1.105322e-07
N 3.118583e+00 1.774003e+00 -3.267573e+00 7.898860e-06 -8.673861e-06 1.967712e-06
N 6.256367e+00 -3.664794e+00 1.765970e+00 3.512961e-06 2.003249e-06 -3.518957e-05
N 6.261136e+00 -3.664746e+00 6.870983e+00 5.024627e-05 -5.352924e-05 -3.536522e-07
N 6.259721e+00 -3.665172e+00 -3.264500e+00 -2.096313e-06 -5.109986e-06 8.893092e-06
N 4.686940e+00 -9.461988e-01 1.760084e+00 -9.489108e-06 8.821576e-06 -5.904319e-05
N 4.692263e+00 -9.428068e-01 6.806317e+00 -6.027013e-06 1.214547e-05 -3.996985e-05
N 4.688093e+00 -9.462312e-01 -3.264819e+00 -2.069918e-05 1.190595e-06 -1.586777e-06
N -3.161892e+00 1.774875e+00 1.766502e+00 2.262551e-05 -4.923498e-06 -4.999122e-05
N -3.165503e+00 1.770416e+00 6.805124e+00 4.216573e-06 -8.498148e-06 -3.417212e-05
N -3.162667e+00 1.776006e+00 -3.268176e+00 7.701022e-06 -5.103066e-06 -9.654960e-06
N -1.815625e-02 -3.667280e+00 1.771618e+00 2.216507e-05 2.242741e-05 -5.645058e-05
N -2.702408e-02 -3.713722e+00 6.789330e+00 5.177145e-06 -5.495758e-05 -8.882176e-05
N -1.943249e-02 -3.717696e+00 -3.272290e+00 -1.189506e-04 -2.265804e-05 -1.257781e-04
N -1.594076e+00 -9.420652e-01 1.773906e+00 1.367192e-05 1.585320e-05 -3.564738e-05
N -1.636145e+00 -9.215299e-01 6.795296e+00 -3.878672e-05 1.444023e-05 -6.177003e-05
N -1.637516e+00 -9.185243e-01 -3.277839e+00 -4.447576e-05 1.434383e-05 -1.114948e-05
