108
Energy=-2267683.771905 Lattice="9.620356 0.000000 0.000000 -4.810421 8.330885 0.000000 -0.000363 -0.001500 15.597332" Stress="0.000000 0.000000 -0.000000 -0.000000 -0.000000 0.000000 -0.000000 0.000000 0.000000" Properties=species:S:1:pos:R:3:forces:R:3
Al 1.581614 0.886920 2.461500 -0.000002 -0.000000 0.000004
Al 1.588644 0.898718 7.655540 -0.000023 -0.000005 0.000005
Al 1.589389 0.890515 -2.764326 -0.000027 -0.000001 -0.000023
Al -0.009932 3.670588 2.443843 0.000000 0.000027 0.000005
Ga -0.015209 3.644939 7.647052 -0.000007 -0.000007 0.000004
Ga -0.012249 3.656943 -2.732440 -0.000000 0.000006 0.000014
Al 3.196173 -1.885593 2.464543 -0.000010 0.000026 0.000049
Ga 3.191841 -1.872028 7.635179 -0.000011 0.000023 -0.000010
Ga 3.177671 -1.880725 -2.739766 -0.000009 0.000023 0.000016
Ga -4.838237 0.872140 2.460611 -0.000008 0.000020 0.000013
Al -4.845924 0.885331 7.641925 -0.000017 0.000001 0.000011
Ga -4.846966 0.892908 -2.748744 0.000008 0.000007 0.000014
Ga -6.462608 3.661582 2.445605 -0.000005 0.000009 0.000015
Al -6.432516 3.641818 7.667865 -0.000005 0.000006 0.000008
Ga -6.442436 3.650601 -2.756499 -0.000013 0.000008 0.000003
Al -3.250147 -1.905620 2.460668 -0.000029 0.000007 0.000031
Ga -3.234960 -1.878526 7.632280 0.000008 0.000017 -0.000002
Ga -3.230618 -1.896638 -2.735099 0.000002 0.000008 0.000024
Ga -1.623027 0.891891 2.444687 -0.000019 0.000013 0.000011
Al -1.621798 0.885984 7.646105 -0.000015 -0.000016 0.000025
Ga -1.620214 0.889934 -2.731143 -0.000005 0.000000 0.000025
Ga -3.219538 3.658578 2.455084 -0.000015 0.000003 0.000017
Ga -3.240690 3.652401 7.659074 -0.000019 -0.000006 0.000023
Ga -3.235966 3.659400 -2.748063 0.000001 -0.000010 0.000016
Ga -0.016891 -1.882348 2.459737 -0.000001 -0.000002 0.000032
Ga -0.026948 -1.886848 7.657177 -0.000027 0.000007 0.000029
Ga -0.016182 -1.887125 -2.756765 -0.000014 0.000007 0.000016
Ga -0.015360 1.810123 5.051289 0.000019 -0.000010 -0.000006
Ga -0.011072 1.802574 -5.352602 0.000020 0.000010 0.000001
Ga -0.010300 1.816261 -0.136672 0.000017 -0.000017 0.000032
Ga 3.196029 -3.733523 5.026014 0.000015 0.000001 0.000021
Ga 3.175216 -3.741374 -5.343959 -0.000000 0.000008 0.000033
Ga 3.190979 -3.747732 -0.118812 0.000018 0.000002 0.000037
Ga 1.595784 -0.955067 5.050447 0.000012 0.000010 0.000011
Ga 1.581382 -0.951689 -5.356295 0.000026 -0.000014 0.000030
Ga 1.585540 -0.951722 -0.131268 0.000004 -0.000003 0.000011
Ga 3.182083 1.802723 5.072240 0.000014 -0.000012 0.000006
Al 3.185911 1.815595 -5.377983 0.000004 -0.000006 -0.000003
Ga 3.179110 1.812423 -0.143095 0.000004 -0.000008 0.000022
Ga 6.386346 -3.737177 5.049455 0.000008 -0.000003 -0.000012
Ga 6.409834 -3.751527 -5.365358 0.000003 -0.000004 0.000015
Al 6.387649 -3.738879 -0.121764 0.000003 0.000003 -0.000010
Al 4.786964 -0.966513 5.035339 0.000012 0.000015 0.000003
Ga 4.782929 -0.949178 -5.353746 -0.000002 -0.000012 0.000006
Ga 4.797182 -0.968398 -0.121513 0.000015 -0.000021 0.000024
Ga -3.235646 1.797393 5.083309 0.000021 -0.000015 0.000003
Ga -3.243754 1.809291 -5.376232 0.000004 0.000004 -0.000003
Al -3.232423 1.812064 -0.142910 0.000002 -0.000006 0.000012
Ga -0.029846 -3.748111 5.065908 0.000011 -0.000010 0.000006
Al -0.034699 -3.754918 -5.356976 0.000016 -0.000012 0.000015
Ga -0.027522 -3.751786 -0.144920 0.000004 -0.000003 0.000032
Ga -1.642180 -0.964501 5.049978 0.000016 0.000007 0.000008
Ga -1.624423 -0.963321 -5.355984 0.000005 -0.000020 0.000006
Ga -1.640267 -0.970617 -0.129530 0.000020 -0.000011 0.000046
N 1.584133 0.889950 4.373475 -0.000019 -0.000008 -0.000006
N 1.622616 0.913744 -6.023047 -0.000022 -0.000005 -0.000020
N 1.584528 0.887157 -0.843716 0.000004 -0.000002 -0.000016
N -0.014995 3.658468 4.364661 -0.000005 -0.000002 0.000005
N -0.025204 3.661335 -5.979062 -0.000006 -0.000015 -0.000020
N 0.020852 3.688198 -0.747797 -0.000009 0.000002 -0.000020
N 3.224987 -1.862586 4.387944 -0.000008 0.000004 -0.000024
N 3.185535 -1.888839 -5.988374 -0.000004 0.000007 -0.000006
N 3.184583 -1.890783 -0.764614 -0.000007 0.000002 -0.000031
N -4.833552 0.843708 4.443246 -0.000007 0.000000 -0.000007
N -4.879571 0.905873 -6.030173 0.000005 -0.000009 0.000002
N -4.795790 0.908692 -0.759093 -0.000004 0.000008 -0.000025
N -6.440878 3.657060 4.417808 -0.000003 0.000010 0.000009
N -6.392413 3.635026 -5.999780 -0.000018 0.000009 -0.000008
N -6.483400 3.685339 -0.763698 0.000010 -0.000007 0.000005
N -3.273735 -1.872496 4.389277 0.000002 -0.000003 -0.000009
N -3.234781 -1.887469 -5.992786 0.000002 0.000018 -0.000003
N -3.232117 -1.942515 -0.755118 -0.000009 0.000014 -0.000018
N -1.629380 0.892027 4.418132 -0.000008 -0.000011 0.000001
N -1.621488 0.888221 -6.035120 0.000001 -0.000015 -0.000007
N -1.662712 0.910365 -0.744073 -0.000002 -0.000004 -0.000021
N -3.232476 3.652484 4.431843 -0.000010 0.000001 0.000001
N -3.272037 3.689416 -5.961613 0.000010 -0.000008 -0.000012
N -3.227293 3.616994 -0.759170 -0.000007 0.000001 -0.000009
N -0.020632 -1.890586 4.435019 -0.000003 0.000009 -0.000011
N -0.021428 -1.939824 -5.957064 -0.000009 0.000028 -0.000029
N -0.020413 -1.888626 -0.773176 0.000011 0.000004 -0.000034
N 0.025766 1.834413 1.853942 -0.000016 -0.000011 -0.000028
N -0.018081 1.759831 7.043242 0.000005 0.000023 -0.000003
N 0.017772 1.786028 -3.363676 -0.000002 -0.000001 -0.000006
N 3.226020 -3.716112 1.872543 -0.000007 -0.000017 -0.000037
N 3.185202 -3.742858 7.006163 0.000006 0.000007 -0.000010
N 3.186200 -3.742853 -3.367087 -0.000007 0.000000 -0.000021
N 1.626133 -0.937073 1.862221 -0.000011 0.000003 -0.000014
N 1.579851 -0.910753 7.034232 0.000026 -0.000017 -0.000009
N 1.581884 -0.913018 -3.372785 0.000000 -0.000008 -0.000000
N 3.141047 1.782831 1.835879 -0.000012 -0.000006 -0.000016
N 3.180907 1.811903 7.068678 0.000014 -0.000003 -0.000019
N 3.143750 1.787961 -3.438264 0.000017 -0.000009 0.000005
N 6.347695 -3.715080 1.806984 0.000018 -0.000021 0.000006
N 6.436513 -3.769174 7.035657 -0.000015 -0.000002 -0.000003
N 6.392304 -3.743091 -3.393618 0.000001 -0.000003 -0.000007
N 4.787617 -1.013457 1.861846 0.000008 -0.000019 -0.000030
N 4.786822 -0.915069 6.961613 -0.000002 -0.000026 0.000009
N 4.788400 -0.961802 -3.377701 -0.000001 -0.000005 -0.000004
N -3.235904 1.809347 1.770530 0.000028 -0.000004 -0.000026
N -3.231477 1.759949 7.070405 0.000008 0.000020 -0.000031
N -3.229757 1.805209 -3.395427 -0.000006 0.000001 -0.000023
N -0.024738 -3.744306 1.826029 -0.000002 -0.000001 -0.000039
N -0.069452 -3.768452 7.042988 0.000022 0.000003 -0.000022
N -0.027814 -3.745932 -3.431465 0.000003 0.000004 -0.000019
N -1.674378 -0.994187 1.852958 0.000005 0.000014 -0.000049
N -1.626446 -0.917907 7.029445 0.000009 0.000006 -0.000004
N -1.629515 -0.960464 -3.376902 0.000002 0.000001 -0.000011
