108
Energy=-482438.905863 Lattice="9.442443 0.000000 0.000000 -4.727358 8.166113 0.000000 -0.000353 0.002458 15.143942" Stress="0.000056 0.000020 0.000004 0.000020 0.000076 -0.000002 0.000004 -0.000002 0.000084" Properties=species:S:1:pos:R:3:forces:R:3
Al 1.548134 0.884017 2.385183 -0.000687 -0.005552 -0.002474
Al 1.551656 0.881473 7.421930 0.000268 -0.007097 -0.001463
Al 1.556595 0.877757 -2.688061 0.002779 -0.008221 -0.000490
Al -0.014946 3.594235 2.383213 -0.000919 -0.002061 -0.001038
Al -0.013300 3.591434 7.421473 -0.000757 -0.000614 -0.000547
Al -0.010998 3.591946 -2.689593 -0.001196 0.002130 0.000651
Al 3.144399 -1.862261 2.371763 -0.000306 0.000323 -0.000395
Al 3.149824 -1.864781 7.421451 -0.000725 0.000697 -0.000267
Al 3.149036 -1.867289 -2.683220 -0.000676 0.000625 0.001983
Al -4.761907 0.887061 2.374279 0.005183 -0.004648 -0.002415
Al -4.759667 0.885153 7.422581 0.001416 -0.006790 -0.000985
Al -4.757917 0.880772 -2.683455 0.000187 -0.007297 0.002429
Al -6.325795 3.595371 2.375692 -0.000312 -0.000010 -0.000139
Al -6.323626 3.594480 7.422970 -0.000092 0.000070 0.000275
Al -6.321951 3.591237 -2.681795 0.000266 -0.000014 0.002209
Al -3.164521 -1.858559 2.376831 -0.012283 -0.005888 0.008467
Al -3.161384 -1.860933 7.422407 0.000008 0.001179 -0.000634
Al -3.163279 -1.866405 -2.683574 -0.001196 0.000898 0.001187
Al -1.626168 0.887376 2.390351 0.003536 0.000254 -0.002902
Al -1.628987 0.888778 7.423093 0.007975 -0.004465 -0.002706
Al -1.627885 0.889434 -2.681325 0.003559 -0.004209 0.007715
Al -3.194538 3.598953 2.376379 0.006664 -0.002069 -0.002312
Al -3.193036 3.598165 7.423144 0.006654 0.002166 -0.000974
Al -3.191207 3.596159 -2.683990 0.006256 0.003704 0.001660
Al -0.035129 -1.861354 2.401127 0.006028 0.002960 -0.002016
Al -0.030067 -1.858045 7.423205 0.006436 0.003433 -0.001510
Al -0.028653 -1.859739 -2.683240 0.007567 0.002180 -0.000165
Al -0.012968 1.784118 4.904224 -0.007687 -0.003635 -0.002747
Al -0.012351 1.780589 -5.205645 -0.006794 -0.003598 -0.003087
Al -0.016437 1.781652 -0.205003 -0.005902 -0.001284 0.024006
Al 3.149466 -3.671643 4.903908 -0.006789 -0.002585 -0.000957
Al 3.149621 -3.674757 -5.204734 -0.006673 -0.002083 -0.000235
Al 3.152552 -3.679159 -0.147889 -0.008213 -0.002123 -0.003950
Al 1.587902 -0.964207 4.907424 -0.008048 0.004645 -0.001605
Al 1.585952 -0.966238 -5.204331 -0.007634 0.004282 -0.001473
Al 1.587908 -0.965037 -0.141297 -0.007353 0.004164 -0.005844
Al 3.117593 1.786648 4.903114 0.000397 -0.001560 -0.000169
Al 3.118860 1.783907 -5.204721 0.000148 -0.001010 0.000423
Al 3.124280 1.783345 -0.147311 0.001944 -0.001359 -0.003725
Al 6.280200 -3.668461 4.904353 -0.000480 0.001413 -0.000044
Al 6.281399 -3.671676 -5.204787 0.000118 -0.000081 0.000411
Al 6.276060 -3.682460 -0.146523 0.002047 -0.000972 -0.002207
Al 4.715564 -0.959288 4.902529 -0.000095 0.006318 -0.001107
Al 4.715998 -0.962556 -5.203974 -0.001565 0.006693 -0.000111
Al 4.710593 -0.969440 -0.144035 -0.002202 0.010031 -0.004919
Al -3.193627 1.789963 4.903359 0.001678 -0.001184 -0.001740
Al -3.192627 1.787713 -5.205727 0.000814 -0.000601 -0.000925
Al -3.165908 1.774572 -0.174844 -0.047876 0.026201 0.023029
Al -0.029148 -3.668512 4.905680 0.001184 0.000156 -0.000142
Al -0.029900 -3.668072 -5.203894 0.000894 0.000306 0.000477
Al -0.022151 -3.675844 -0.147895 0.000931 -0.000976 -0.002065
Al -1.593294 -0.957641 4.907414 -0.001576 0.007838 -0.004080
Al -1.594451 -0.958222 -5.202645 -0.000448 0.007371 -0.002165
Ga -1.610321 -0.977390 -0.120264 0.001297 0.010703 0.008535
N 1.552621 0.880805 4.307951 0.001148 -0.007724 0.000593
N 1.552010 0.878993 -5.802058 0.000113 -0.006815 0.001683
N 1.557478 0.879508 -0.768070 -0.004002 -0.008049 0.001048
N -0.013144 3.595585 4.306249 -0.000585 0.000132 -0.000585
N -0.012461 3.589559 -5.802871 -0.000655 -0.000641 0.000482
N -0.010378 3.590538 -0.771422 -0.001891 -0.001242 -0.000444
N 3.149355 -1.864015 4.300654 -0.001250 0.000694 -0.002316
N 3.150012 -1.867248 -5.802875 -0.000947 0.000693 -0.000622
N 3.147467 -1.869224 -0.756034 -0.001457 0.000324 -0.001083
N -4.760330 0.885264 4.301070 0.000238 -0.007062 0.000510
N -4.759344 0.881783 -5.802007 0.001464 -0.006742 0.001393
N -4.750920 0.877634 -0.760788 -0.001277 -0.007143 0.000202
N -6.324640 3.594671 4.302092 0.000191 -0.000003 -0.001530
N -6.323043 3.592169 -5.801977 0.000025 0.000048 -0.000132
N -6.320405 3.589552 -0.756961 -0.000586 0.001170 -0.000331
N -3.161620 -1.861104 4.302722 -0.002577 -0.000786 0.001716
N -3.161255 -1.863804 -5.801674 0.000313 0.001050 0.000224
N -3.183153 -1.882993 -0.760926 -0.009456 -0.004130 -0.005533
N -1.630089 0.888746 4.311200 0.008600 -0.003530 0.004582
N -1.628290 0.886415 -5.800380 0.008189 -0.004529 0.002971
N -1.705538 0.944498 -0.594758 0.065745 -0.029324 -0.054862
N -3.192328 3.597823 4.302677 0.006653 0.003530 0.000469
N -3.192228 3.596603 -5.801790 0.006641 0.002291 0.001346
N -3.185329 3.590423 -0.762955 0.005687 0.004713 0.000204
N -0.024778 -1.862366 4.314185 0.007205 0.003708 0.001743
N -0.030094 -1.859884 -5.800734 0.006075 0.003504 0.001384
N -0.016587 -1.867366 -0.760978 0.013930 0.000497 -0.001968
N -0.015928 1.785627 1.808882 -0.003267 -0.004178 -0.012324
N -0.013036 1.783080 6.825259 -0.006209 -0.003202 0.001298
N -0.010005 1.781765 -3.285440 -0.008897 -0.005315 0.006700
N 3.147455 -3.671453 1.762404 -0.005926 -0.001659 0.005459
N 3.148753 -3.673051 6.824754 -0.006702 -0.002484 0.000974
N 3.149614 -3.674564 -3.285134 -0.006261 -0.003200 0.000610
N 1.574300 -0.960354 1.765540 -0.007688 0.003775 0.007493
N 1.586197 -0.963875 6.826907 -0.008029 0.004514 0.002426
N 1.586606 -0.966289 -3.284458 -0.008734 0.004817 0.002074
N 3.114764 1.788148 1.762473 -0.000323 -0.001744 0.004219
N 3.118367 1.787244 6.824332 0.000103 -0.000797 -0.000428
N 3.120965 1.783978 -3.284315 -0.000240 -0.000506 -0.001119
N 6.279143 -3.666126 1.762628 -0.000955 -0.001244 0.003719
N 6.280650 -3.668875 6.824799 0.000101 -0.000391 0.000153
N 6.282345 -3.671995 -3.285964 0.000375 -0.000409 -0.000487
N 4.712920 -0.957624 1.760841 -0.002657 0.005595 0.006290
N 4.716283 -0.959047 6.824172 -0.001486 0.006881 0.001130
N 4.715835 -0.962875 -3.283724 -0.000677 0.006721 0.000419
N -3.192340 1.790002 1.762587 -0.002527 0.000964 0.006308
N -3.193569 1.790211 6.824835 0.000787 -0.000487 -0.000222
N -3.192689 1.787986 -3.285411 0.003218 -0.001717 0.001441
N -0.033711 -3.663158 1.769248 0.001177 0.000775 0.002149
N -0.030389 -3.667396 6.825492 0.000622 0.000231 -0.000273
N -0.029764 -3.668747 -3.283072 0.000549 0.000501 -0.000822
N -1.635560 -0.974140 1.885087 0.018714 0.012297 -0.010773
N -1.594830 -0.956829 6.826780 -0.000151 0.006960 0.001308
N -1.594841 -0.958256 -3.279272 -0.000199 0.009910 0.004409
