108
Energy=-1.535276e+06 Lattice="9.530029e+00 0.000000e+00 0.000000e+00 -4.766950e+00 8.251249e+00 0.000000e+00 4.337273e-03 -5.851993e-03 1.538555e+01" Stress="8.888763e-05 1.434909e-04 2.775953e-04 1.443618e-04 -8.911324e-05 -3.448923e-04 2.795523e-04 -3.322331e-04 -3.021013e-05" Properties=species:S:1:pos:R:3:forces:R:3 Config_type=AlGaN_super3_24_2_12.xyz
Al 1.551618e+00 8.741576e-01 2.460090e+00 5.196306e-04 -1.802324e-04 3.368027e-04
Al 1.572861e+00 8.890383e-01 7.531487e+00 2.062431e-04 -2.268542e-04 -1.617772e-04
Al 1.566841e+00 8.950791e-01 -2.746662e+00 3.069724e-04 -2.147416e-04 3.195952e-04
Al -3.165248e-02 3.600897e+00 2.458272e+00 7.985204e-04 2.907257e-03 -2.515652e-03
Al -1.549264e-02 3.618748e+00 7.550116e+00 1.688954e-04 3.486902e-05 3.209750e-04
Ga -1.660053e-02 3.620731e+00 -2.757153e+00 -2.857569e-05 1.461986e-05 5.990848e-04
Ga 3.145850e+00 -1.878124e+00 2.414564e+00 2.566658e-04 -2.668446e-04 7.566609e-04
Al 3.161895e+00 -1.875831e+00 7.555568e+00 2.107663e-04 -2.449581e-04 -2.205491e-04
Ga 3.160122e+00 -1.872999e+00 -2.718110e+00 1.460121e-04 -1.953889e-04 3.873383e-04
Ga -4.785928e+00 8.837343e-01 2.456252e+00 1.548622e-04 -3.493738e-04 -3.448363e-04
Al -4.792866e+00 8.799160e-01 7.540602e+00 4.844420e-04 6.939581e-04 8.494801e-05
Ga -4.812519e+00 8.815250e-01 -2.743661e+00 4.267020e-04 -4.278334e-05 1.522757e-04
Ga -6.385052e+00 3.615815e+00 2.474864e+00 -2.544872e-04 4.708619e-04 -3.515869e-05
Al -6.376377e+00 3.615132e+00 7.536948e+00 1.651378e-04 8.367120e-05 1.498639e-04
Al -6.383845e+00 3.620612e+00 -2.769620e+00 8.535963e-05 1.005634e-04 1.964273e-04
Ga -3.205645e+00 -1.883638e+00 2.447530e+00 -1.358915e-04 -4.038681e-04 -2.124815e-04
Al -3.205240e+00 -1.884068e+00 7.564985e+00 1.329916e-04 -1.694169e-04 3.050188e-04
Ga -3.198303e+00 -1.874971e+00 -2.757265e+00 1.660338e-04 4.029119e-05 2.423814e-04
Al -1.605323e+00 8.976514e-01 2.465930e+00 5.464498e-04 -5.287933e-04 -2.782318e-04
Al -1.602679e+00 8.903325e-01 7.536600e+00 -8.905061e-04 2.777790e-04 2.649513e-04
Ga -1.595744e+00 8.815791e-01 -2.746664e+00 4.262988e-04 -4.554287e-04 2.742537e-04
Al -3.186027e+00 3.616427e+00 2.452899e+00 9.385748e-05 3.582444e-04 -1.636470e-04
Al -3.198944e+00 3.620617e+00 7.542529e+00 -1.370731e-04 -4.969878e-04 4.606085e-05
Ga -3.204987e+00 3.642222e+00 -2.739271e+00 3.104654e-04 -2.816909e-04 2.672254e-04
Ga -5.026822e-03 -1.866547e+00 2.452999e+00 3.940399e-04 -1.142721e-04 3.558689e-05
Ga -1.373750e-02 -1.883706e+00 7.545345e+00 7.205683e-05 -3.550071e-04 1.791082e-04
Ga -2.801775e-02 -1.871655e+00 -2.741493e+00 2.483569e-04 -2.796534e-04 4.392744e-05
Al -1.060964e-02 1.794491e+00 4.996964e+00 -7.186743e-04 -9.280349e-04 3.425115e-04
Al -1.335499e-02 1.802452e+00 -5.320412e+00 -3.351286e-04 1.157743e-04 -1.049598e-03
Ga -1.378887e-02 1.793590e+00 -1.196130e-01 -1.833646e-06 1.517527e-05 -8.315963e-04
Ga 3.153262e+00 -3.722007e+00 5.008611e+00 -2.329571e-04 4.447868e-05 5.747857e-04
Al 3.161941e+00 -3.702812e+00 -5.333009e+00 -1.671171e-04 -3.802527e-05 -3.304389e-04
Al 3.156029e+00 -3.699908e+00 -1.245160e-01 2.561550e-04 -6.767798e-06 1.008935e-03
Al 1.571406e+00 -9.451263e-01 5.014631e+00 -6.083509e-04 1.188561e-04 3.582060e-04
Ga 1.576499e+00 -9.434572e-01 -5.300565e+00 -4.437201e-04 4.158524e-05 2.287180e-04
Al 1.578465e+00 -9.463192e-01 -1.584499e-01 -3.485168e-04 4.194971e-04 4.564056e-04
Al 3.144795e+00 1.792359e+00 5.018651e+00 -1.142974e-03 9.005988e-04 7.782828e-04
Al 3.139822e+00 1.808915e+00 -5.316039e+00 3.177627e-04 1.234572e-04 -1.664630e-07
Ga 3.138711e+00 1.785662e+00 -1.515047e-01 -1.606082e-04 -1.990516e-04 -1.230482e-04
Al 6.334534e+00 -3.726505e+00 5.028927e+00 3.897857e-04 -1.638643e-03 9.068997e-04
Al 6.335374e+00 -3.707919e+00 -5.321287e+00 1.135472e-04 -4.637539e-05 -1.073293e-03
Ga 6.320995e+00 -3.704864e+00 -1.584810e-01 6.547924e-05 -5.472954e-04 1.036387e-03
Ga 4.737706e+00 -9.556631e-01 5.034864e+00 -7.591324e-05 -8.332164e-05 3.733877e-04
Al 4.743175e+00 -9.596447e-01 -5.330216e+00 -1.203363e-04 1.069940e-04 -9.245751e-04
Al 4.732002e+00 -9.624640e-01 -1.464438e-01 -1.658376e-04 2.633247e-04 6.919029e-04
Al -3.196535e+00 1.800656e+00 5.009260e+00 -1.767005e-03 1.626306e-03 2.346799e-03
Ga -3.203383e+00 1.800046e+00 -5.327876e+00 -2.308152e-04 1.170597e-04 4.841275e-05
Ga -3.197844e+00 1.800472e+00 -1.306375e-01 -3.669694e-04 -2.168404e-04 -1.536135e-04
Al -1.690850e-02 -3.727870e+00 5.007832e+00 -1.224118e-03 1.342017e-04 1.107682e-03
Al -3.608052e-02 -3.712765e+00 -5.306997e+00 8.603442e-05 -4.089539e-04 -5.971439e-04
Ga -1.690427e-02 -3.704019e+00 -1.455251e-01 -2.100760e-04 -2.420838e-04 6.313401e-04
Ga -1.606629e+00 -9.540460e-01 5.013596e+00 2.069235e-04 2.269858e-04 1.334032e-04
Al -1.618885e+00 -9.544978e-01 -5.323916e+00 -3.309219e-04 4.465565e-06 -3.269382e-04
Ga -1.611538e+00 -9.504523e-01 -1.271119e-01 -3.117492e-04 -6.398141e-05 -3.525020e-05
N 1.566727e+00 8.708829e-01 4.393083e+00 -1.346638e-04 2.413543e-04 -6.133855e-04
N 1.564343e+00 9.309483e-01 -5.943838e+00 2.420353e-04 -3.728622e-04 -3.865693e-04
N 1.557240e+00 8.406533e-01 -8.239999e-01 2.876134e-04 -2.144331e-04 -2.863411e-04
N 2.076510e-02 3.604168e+00 4.379816e+00 -2.945913e-04 -5.922372e-04 -6.914011e-04
N -2.056121e-02 3.627961e+00 -5.914845e+00 4.727686e-05 -1.557821e-04 -2.982913e-04
N -7.063618e-02 3.647361e+00 -7.687589e-01 -1.452960e-04 -2.092839e-04 -5.286747e-04
N 3.115122e+00 -1.853765e+00 4.394243e+00 2.544985e-04 -1.793888e-04 -6.594354e-04
N 3.189489e+00 -1.891711e+00 -5.927708e+00 -2.061551e-05 4.877733e-05 -2.660183e-04
N 3.156106e+00 -1.879210e+00 -7.131071e-01 1.110769e-04 -2.990218e-06 -4.702260e-04
N -4.793130e+00 9.212679e-01 4.439549e+00 1.803614e-03 -2.688158e-04 -8.853971e-04
N -4.839531e+00 8.635699e-01 -5.930141e+00 2.232778e-04 -5.417360e-05 -2.288645e-04
N -4.792334e+00 8.339172e-01 -7.584568e-01 4.782799e-04 -5.436708e-05 -8.493328e-05
N -6.379515e+00 3.622630e+00 4.457453e+00 -2.207354e-04 -1.079611e-04 -1.177404e-04
N -6.377131e+00 3.629860e+00 -5.925112e+00 -1.577924e-04 -7.633710e-05 -2.386745e-04
N -6.377944e+00 3.627939e+00 -8.437834e-01 1.332643e-04 1.478238e-05 -1.412213e-06
N -3.203830e+00 -1.932687e+00 4.418603e+00 -1.477820e-05 1.816466e-03 -7.764460e-04
N -3.199908e+00 -1.875349e+00 -5.906698e+00 7.152739e-05 -2.624405e-05 -1.593115e-04
N -3.237755e+00 -1.845838e+00 -7.702526e-01 5.694261e-05 1.117161e-04 -1.150875e-04
N -1.616594e+00 9.276627e-01 4.387583e+00 2.379549e-03 3.459134e-05 -1.139177e-03
N -1.568846e+00 8.647092e-01 -5.936378e+00 6.804954e-04 -9.973042e-05 -1.561247e-04
N -1.607068e+00 8.838040e-01 -7.765369e-01 2.314097e-04 -1.930370e-04 -3.192704e-05
N -3.240131e+00 3.604593e+00 4.374856e+00 1.581560e-03 -2.015659e-03 -1.489575e-03
N -3.207834e+00 3.683246e+00 -5.933118e+00 1.644599e-04 -3.043698e-04 -6.407040e-05
N -3.157251e+00 3.658319e+00 -7.603366e-01 1.402433e-04 -3.615696e-04 -1.792468e-04
N 2.552487e-02 -1.902764e+00 4.438487e+00 1.360158e-04 1.041129e-03 -4.872492e-04
N -5.679941e-02 -1.896223e+00 -5.871032e+00 8.814122e-05 3.626411e-04 -1.788947e-04
N 1.371941e-02 -1.846369e+00 -7.562319e-01 1.620704e-04 -2.349358e-04 7.968603e-05
N -1.831253e-02 1.783218e+00 1.874539e+00 -6.331534e-04 9.792756e-04 1.934761e-03
N -1.669448e-02 1.794560e+00 6.922528e+00 -8.763974e-05 1.530584e-04 -5.933206e-04
N 2.125364e-02 1.771808e+00 -3.409099e+00 -2.323922e-04 2.746446e-04 1.030663e-03
N 3.156816e+00 -3.762179e+00 1.809941e+00 7.850277e-04 -1.120705e-03 6.195268e-04
N 3.160031e+00 -3.713380e+00 6.989976e+00 3.226851e-04 7.676619e-05 -3.005695e-04
N 3.156377e+00 -3.702003e+00 -3.420830e+00 -1.074981e-04 3.360577e-04 -9.113775e-05
N 1.565524e+00 -8.994349e-01 1.768532e+00 -4.886961e-04 -2.309790e-04 -6.977415e-04
N 1.615215e+00 -9.328628e-01 6.926980e+00 -3.180939e-04 6.262252e-04 9.091992e-04
N 1.575081e+00 -9.070065e-01 -3.328876e+00 -3.817817e-04 3.153211e-04 -3.686531e-05
N 3.105241e+00 1.767353e+00 1.833881e+00 -9.365117e-05 3.528722e-04 3.471745e-04
N 3.154287e+00 1.791397e+00 6.934564e+00 -3.961263e-04 -1.645650e-04 -1.748197e-04
N 3.108391e+00 1.819494e+00 -3.386350e+00 -3.393371e-04 -6.879979e-05 -1.970522e-04
N 6.293332e+00 -3.741852e+00 1.825615e+00 -1.376115e-03 -7.428409e-04 2.494847e-04
N 6.331936e+00 -3.711058e+00 6.952085e+00 -3.162015e-04 -2.081431e-04 -1.263366e-04
N 6.370223e+00 -3.728053e+00 -3.406011e+00 -5.651605e-05 -4.154285e-05 1.083886e-03
N 4.746533e+00 -9.534909e-01 1.768541e+00 -1.647012e-04 2.386585e-05 -8.555541e-04
N 4.746185e+00 -9.608041e-01 7.006875e+00 1.146806e-04 -1.054105e-04 -3.409831e-04
N 4.738110e+00 -9.554303e-01 -3.421090e+00 -3.034386e-04 2.558524e-05 1.057763e-03
N -3.157945e+00 1.812635e+00 1.857294e+00 -1.917751e-04 6.732682e-04 1.294261e-04
N -3.194965e+00 1.793051e+00 6.941122e+00 -3.663006e-05 3.754867e-05 -6.597367e-05
N -3.203219e+00 1.797428e+00 -3.360611e+00 -2.760270e-04 5.382425e-05 4.725408e-05
N 1.502536e-02 -3.738467e+00 1.842916e+00 -2.027606e-04 1.957891e-04 -6.378685e-04
N -1.648896e-02 -3.761888e+00 6.918356e+00 -3.401965e-04 -4.339133e-07 6.834958e-05
N -6.418919e-02 -3.730444e+00 -3.391970e+00 -7.725897e-05 1.830158e-04 5.243284e-04
N -1.609488e+00 -9.075351e-01 1.858911e+00 -1.916468e-04 2.662635e-04 2.875847e-05
N -1.652145e+00 -9.340201e-01 6.981933e+00 1.153356e-04 -1.368282e-04 -2.350114e-04
N -1.611396e+00 -9.513591e-01 -3.416383e+00 -3.572633e-04 8.438100e-05 1.688976e-04
