108
Energy=-1.443725e+06 Lattice="9.517354e+00 0.000000e+00 0.000000e+00 -4.763299e+00 8.238739e+00 0.000000e+00 -6.688077e-03 6.628032e-03 1.536543e+01" Stress="-6.964569e-05 -1.005393e-04 -3.867639e-04 -9.779703e-05 -3.710430e-04 2.352745e-04 -3.860249e-04 2.427585e-04 5.102281e-04" Properties=species:S:1:pos:R:3:forces:R:3 Config_type=AlGaN_super3_22_0_18.xyz
Al 1.564307e+00 8.858900e-01 2.435624e+00 -6.595517e-04 -1.015981e-03 1.632479e-04
Al 1.549939e+00 8.752451e-01 7.509349e+00 -2.922948e-04 -3.883502e-04 3.815183e-04
Al 1.567385e+00 8.776805e-01 -2.713194e+00 1.453482e-04 -2.239001e-04 6.962787e-05
Al -2.643222e-02 3.615000e+00 2.427538e+00 -1.251753e-04 7.360006e-04 4.448302e-04
Al -4.279601e-02 3.604818e+00 7.512178e+00 5.412865e-05 -1.110509e-05 1.763689e-04
Al -3.735157e-03 3.615571e+00 -2.694883e+00 -1.808732e-04 1.050045e-04 3.573193e-04
Al 3.153120e+00 -1.866579e+00 2.430550e+00 3.441952e-06 -1.796497e-04 -4.826183e-04
Ga 3.129196e+00 -1.864087e+00 7.545447e+00 -1.038912e-05 -4.272185e-05 1.492608e-04
Ga 3.157596e+00 -1.854253e+00 -2.729743e+00 1.380353e-04 1.275760e-05 6.818504e-05
Ga -4.798050e+00 8.754679e-01 2.415252e+00 2.258955e-04 -9.255421e-05 3.887071e-04
Al -4.779821e+00 8.919332e-01 7.536670e+00 -1.767966e-04 -3.491656e-04 -1.065871e-03
Al -4.789519e+00 8.702626e-01 -2.713869e+00 2.212006e-03 -7.685238e-04 1.096445e-03
Ga -6.383158e+00 3.608829e+00 2.393374e+00 -2.418485e-05 2.079929e-04 4.875877e-04
Ga -6.367938e+00 3.612217e+00 7.551165e+00 -6.139834e-05 7.527813e-05 3.366493e-05
Al -6.369858e+00 3.623338e+00 -2.703142e+00 9.757625e-04 4.947981e-04 -8.267375e-05
Ga -3.195980e+00 -1.866405e+00 2.389915e+00 1.126153e-04 -6.940718e-05 3.626525e-04
Ga -3.185819e+00 -1.852871e+00 7.554837e+00 -2.585373e-04 -1.484442e-04 3.233029e-04
Al -3.188311e+00 -1.871009e+00 -2.706594e+00 5.711603e-04 1.021201e-03 4.020118e-06
Al -1.597290e+00 8.744449e-01 2.440355e+00 -4.922215e-05 -3.651328e-04 4.434411e-05
Al -1.611522e+00 8.839462e-01 7.525183e+00 -1.335916e-04 1.473457e-04 5.366088e-05
Ga -1.606601e+00 8.635091e-01 -2.729352e+00 1.928334e-05 -2.708922e-04 1.119543e-04
Ga -3.182130e+00 3.625046e+00 2.434532e+00 -1.633110e-04 4.389181e-05 1.154963e-04
Al -3.193489e+00 3.613048e+00 7.535566e+00 -3.336858e-04 -3.156086e-04 3.281948e-04
Ga -3.214994e+00 3.618316e+00 -2.720592e+00 3.406244e-05 -9.082547e-05 -2.369711e-04
Ga -2.065216e-02 -1.850524e+00 2.418234e+00 -2.477247e-04 -4.734801e-05 3.247861e-04
Al -2.059880e-02 -1.842837e+00 7.541779e+00 7.219434e-04 -1.701417e-03 3.083317e-04
Al -2.969825e-02 -1.871042e+00 -2.725648e+00 -8.872188e-04 -3.699520e-04 6.022500e-04
Al -3.177969e-02 1.784099e+00 4.969037e+00 7.350594e-05 3.917522e-05 2.388037e-04
Ga -2.545029e-02 1.773810e+00 -5.287996e+00 2.283568e-05 2.789451e-04 2.815216e-04
Ga -9.275222e-03 1.788727e+00 -1.255616e-01 -3.441955e-04 4.166436e-05 -1.496906e-05
Al 3.149002e+00 -3.706318e+00 4.981796e+00 3.219816e-05 -7.848997e-05 3.593476e-04
Ga 3.145795e+00 -3.708702e+00 -5.278057e+00 -3.959224e-04 -2.532793e-04 -2.482482e-05
Ga 3.167606e+00 -3.694785e+00 -1.352837e-01 -2.796255e-04 3.444219e-04 1.239067e-04
Al 1.557993e+00 -9.413441e-01 4.971152e+00 8.707999e-05 7.022455e-05 1.041284e-03
Al 1.548412e+00 -9.550887e-01 -5.274644e+00 1.095429e-05 -2.438355e-04 4.910953e-04
Ga 1.564557e+00 -9.499339e-01 -1.448597e-01 -3.820041e-04 -1.504613e-05 4.620274e-04
Al 3.137916e+00 1.779053e+00 4.993945e+00 1.528145e-05 -5.227872e-05 1.706410e-04
Ga 3.163632e+00 1.769246e+00 -5.260354e+00 -9.350676e-06 7.252131e-05 2.755116e-04
Al 3.147795e+00 1.793257e+00 -1.810582e-01 4.629849e-04 -1.374390e-05 -1.239137e-04
Ga 6.311586e+00 -3.708897e+00 4.979086e+00 -8.883198e-05 1.195751e-04 -1.054429e-04
Ga 6.325119e+00 -3.693980e+00 -5.241176e+00 -6.097576e-05 1.021650e-04 3.695610e-04
Al 6.334474e+00 -3.695958e+00 -1.759909e-01 -2.285595e-05 5.347465e-05 -6.367958e-05
Ga 4.726585e+00 -9.449539e-01 4.980521e+00 -2.043538e-04 -3.180494e-05 2.855179e-04
Al 4.751043e+00 -9.374071e-01 -5.263654e+00 -1.767931e-04 5.339734e-05 -2.962944e-04
Al 4.746813e+00 -9.519534e-01 -1.589253e-01 -6.539774e-05 1.068059e-04 1.601681e-04
Al -3.187689e+00 1.788314e+00 4.997012e+00 1.177762e-04 -1.530491e-04 -5.567596e-07
Al -3.202688e+00 1.770469e+00 -5.293499e+00 -5.492525e-04 2.638402e-03 -9.128182e-04
Ga -3.209122e+00 1.777504e+00 -1.446859e-01 1.228972e-04 -1.060653e-04 1.272598e-04
Ga -1.352590e-02 -3.694556e+00 5.005043e+00 9.672431e-05 1.940572e-04 1.597240e-04
Al -1.056094e-02 -3.685721e+00 -5.281593e+00 3.815332e-04 -3.597825e-04 1.109386e-03
Al -4.192928e-02 -3.693825e+00 -1.676118e-01 -1.048505e-05 -5.298329e-06 -7.448560e-05
Al -1.597110e+00 -9.311847e-01 4.993477e+00 -3.514524e-04 1.152774e-04 1.437009e-04
Al -1.597964e+00 -9.603764e-01 -5.271115e+00 1.760160e-05 2.084280e-04 1.450303e-04
Al -1.613668e+00 -9.675302e-01 -1.679475e-01 1.268304e-06 -1.322141e-04 4.838531e-04
N 1.563918e+00 8.831081e-01 4.366845e+00 5.686861e-05 -1.461212e-04 -3.056012e-04
N 1.567791e+00 8.258229e-01 -5.937658e+00 1.366450e-04 1.756972e-04 -4.178257e-04
N 1.596651e+00 8.952504e-01 -8.062186e-01 1.620508e-04 3.693084e-05 -3.007161e-04
N -6.993092e-02 3.598361e+00 4.348520e+00 8.884882e-05 -2.777567e-05 -4.449968e-04
N -2.004056e-02 3.617688e+00 -5.949031e+00 2.952436e-04 -5.565066e-05 -2.729910e-04
N 1.498587e-02 3.636434e+00 -7.895899e-01 1.574497e-04 -3.337627e-05 9.826652e-05
N 3.105734e+00 -1.893988e+00 4.356020e+00 6.792844e-05 2.844586e-04 -4.229699e-04
N 3.151160e+00 -1.820428e+00 -5.835768e+00 -1.347623e-04 8.896690e-06 -3.330699e-05
N 3.190362e+00 -1.844030e+00 -7.610158e-01 2.059663e-04 7.720478e-05 -1.663801e-04
N -4.787143e+00 9.312867e-01 4.393945e+00 2.800277e-04 9.819041e-05 -6.526248e-05
N -4.744012e+00 8.514044e-01 -5.919478e+00 2.396866e-04 -3.135754e-04 1.334640e-03
N -4.820025e+00 8.494715e-01 -7.913834e-01 -2.289929e-04 1.790725e-04 -1.796404e-05
N -6.368708e+00 3.574122e+00 4.375574e+00 1.982650e-04 -1.381876e-04 -2.453832e-04
N -6.330368e+00 3.638529e+00 -5.847851e+00 -2.302299e-04 -2.125260e-04 -3.894167e-04
N -6.366032e+00 3.622838e+00 -7.727109e-01 -8.533470e-05 -1.745265e-04 -1.633100e-04
N -3.149987e+00 -1.841671e+00 4.370026e+00 2.703222e-04 1.332212e-04 -1.368827e-04
N -3.188559e+00 -1.825772e+00 -5.838236e+00 -1.527252e-04 -1.898436e-04 -4.065104e-04
N -3.194005e+00 -1.865203e+00 -7.706216e-01 -1.538825e-05 -9.394275e-05 -1.554522e-04
N -1.615454e+00 8.755059e-01 4.371576e+00 2.932174e-04 -2.359791e-04 -2.178088e-04
N -1.649768e+00 8.453198e-01 -5.911729e+00 6.310085e-04 -4.519743e-04 -2.738865e-04
N -1.605758e+00 8.325522e-01 -7.597520e-01 2.185794e-04 -8.389776e-05 -2.189958e-04
N -3.162736e+00 3.597948e+00 4.410164e+00 6.119859e-05 6.294533e-05 -1.743263e-04
N -3.237367e+00 3.593205e+00 -5.906230e+00 4.051506e-05 -1.007240e-03 4.022784e-04
N -3.236903e+00 3.646544e+00 -7.464462e-01 -9.002669e-05 -2.470249e-04 -1.890169e-05
N -2.908399e-02 -1.820956e+00 4.394411e+00 1.344124e-04 6.939910e-05 -3.545569e-04
N -1.889522e-02 -1.863992e+00 -5.894965e+00 -9.333715e-05 -3.521798e-04 1.521352e-04
N -5.986216e-02 -1.889217e+00 -7.954646e-01 2.376858e-04 -1.381102e-04 -2.240880e-04
N -2.179920e-02 1.789775e+00 1.869167e+00 3.065903e-04 -3.786415e-04 -4.516449e-04
N -2.998994e-02 1.788910e+00 6.903698e+00 -5.042107e-05 3.669248e-05 -9.963775e-05
N 2.097046e-02 1.814289e+00 -3.309361e+00 3.384961e-04 1.880576e-04 5.089608e-06
N 3.198413e+00 -3.673637e+00 1.843728e+00 -1.623278e-04 -3.401965e-04 -5.316948e-04
N 3.145775e+00 -3.741797e+00 6.907399e+00 3.049181e-04 2.813909e-04 -5.040126e-04
N 3.197244e+00 -3.733902e+00 -3.309846e+00 2.818319e-04 1.263114e-04 1.184469e-04
N 1.607878e+00 -9.243589e-01 1.840029e+00 -1.594501e-04 4.939002e-04 -3.098273e-04
N 1.519856e+00 -9.292615e-01 6.893043e+00 4.979122e-05 3.679745e-04 -9.211256e-04
N 1.514822e+00 -9.293500e-01 -3.349489e+00 5.502496e-04 6.218822e-04 -4.769471e-04
N 3.101265e+00 1.762606e+00 1.738053e+00 2.245226e-04 2.298373e-04 -1.208968e-04
N 3.142628e+00 1.744226e+00 6.910146e+00 6.182906e-04 1.232391e-04 -1.578803e-04
N 3.155980e+00 1.786612e+00 -3.273743e+00 -2.083276e-03 8.061796e-04 -1.373415e-04
N 6.278364e+00 -3.726695e+00 1.748027e+00 -5.585964e-05 -2.105765e-05 6.731712e-05
N 6.280665e+00 -3.719309e+00 6.945173e+00 7.902704e-05 4.080556e-05 -4.001925e-04
N 6.325761e+00 -3.701848e+00 -3.256745e+00 -1.532981e-04 -2.925225e-04 -1.477618e-04
N 4.693529e+00 -9.747054e-01 1.760849e+00 -1.718417e-04 9.922440e-05 9.441601e-05
N 4.730457e+00 -9.078640e-01 6.944462e+00 1.341677e-06 3.405188e-04 -3.044049e-04
N 4.786976e+00 -9.270050e-01 -3.346605e+00 -4.116632e-05 -1.821580e-04 -1.142713e-04
N -3.152888e+00 1.764565e+00 1.825922e+00 -3.522010e-04 -8.374102e-06 -1.670100e-04
N -3.197297e+00 1.791847e+00 6.924794e+00 4.186928e-05 -1.217095e-04 -3.969777e-04
N -3.238470e+00 1.763417e+00 -3.376931e+00 -4.470040e-04 -3.488838e-04 3.607057e-04
N -1.888282e-02 -3.696439e+00 1.747775e+00 -1.379372e-04 9.124808e-05 -3.302690e-04
N 1.878262e-02 -3.668793e+00 6.976457e+00 -2.527852e-04 7.940118e-04 5.480638e-05
N -6.110828e-02 -3.673893e+00 -3.354263e+00 -3.564169e-04 -2.680702e-04 -3.286097e-04
N -1.604488e+00 -9.023400e-01 1.749330e+00 -9.388236e-05 1.898737e-04 -4.464343e-04
N -1.567873e+00 -9.258904e-01 6.910383e+00 -4.342827e-04 4.790258e-04 -3.350685e-04
N -1.604096e+00 -1.007214e+00 -3.353415e+00 -7.007736e-04 4.041603e-05 8.246204e-05
