108
Energy=-2221902.255744 Lattice="9.482023 0.000000 0.000000 -4.741878 8.210672 0.000000 -0.000869 -0.000401 15.274185" Stress="-0.000387 0.000034 -0.000000 0.000034 -0.000348 -0.000002 -0.000000 -0.000002 -0.000373" Properties=species:S:1:pos:R:3:forces:R:3
Al 1.564530 0.902119 2.477107 -0.002271 -0.013749 -0.010767
Al 1.564620 0.902337 7.499330 -0.000842 -0.014171 -0.002856
Ga 1.565637 0.902067 -2.754191 -0.001692 -0.017920 -0.006481
Al -0.001518 3.613854 2.476830 -0.003135 -0.002243 -0.009174
Ga -0.001544 3.613575 7.499155 -0.002955 -0.000989 -0.001425
Ga -0.001001 3.614631 -2.753277 -0.003096 -0.001590 -0.002156
Ga 3.174348 -1.885286 2.470356 -0.003409 0.001114 -0.010274
Al 3.174105 -1.885029 7.498859 -0.003045 0.001476 -0.002344
Ga 3.175354 -1.884566 -2.750059 -0.003269 0.001920 -0.002661
Ga -4.786753 0.902867 2.471282 0.000817 -0.016275 -0.010696
Ga -4.787299 0.903027 7.499292 0.000507 -0.016518 -0.003275
Al -4.785525 0.902701 -2.750848 0.001539 -0.012416 -0.003464
Ga -6.352423 3.613671 2.471293 -0.000206 0.000056 -0.007956
Al -6.351832 3.613519 7.499135 -0.000065 -0.000009 -0.000055
Ga -6.350990 3.614130 -2.750959 0.000066 -0.000376 -0.001411
Ga -3.176945 -1.885620 2.476064 0.000131 0.003019 -0.009847
Ga -3.176351 -1.885257 7.499186 -0.000765 0.002990 -0.001537
Ga -3.175993 -1.884403 -2.752830 -0.000620 0.003379 -0.001856
Ga -1.655729 0.903760 2.480979 0.016463 -0.008842 -0.015320
Ga -1.655110 0.903229 7.499346 0.015732 -0.008868 -0.007196
Al -1.655188 0.903455 -2.755556 0.013284 -0.007458 -0.005410
Al -3.220786 3.614037 2.471430 0.012355 0.005368 -0.008698
Al -3.221500 3.614589 7.499017 0.011978 0.005633 -0.002250
Ga -3.220161 3.614392 -2.750155 0.014760 0.006941 -0.003950
Ga -0.043742 -1.885009 2.476680 0.014376 0.010479 -0.012836
Ga -0.044208 -1.885309 7.499403 0.014875 0.010154 -0.004145
Ga -0.043240 -1.884559 -2.753602 0.014965 0.010456 -0.005517
Ga -0.000888 1.806078 4.987770 -0.014716 -0.010731 -0.006324
Al -0.000301 1.806121 -5.264559 -0.010711 -0.008463 -0.004619
Al -0.000806 1.805471 -0.253690 -0.012023 -0.008225 0.032721
Ga 3.174381 -3.692702 4.986215 -0.014719 -0.007950 -0.003921
Ga 3.174970 -3.692433 -5.263731 -0.014965 -0.007538 -0.004772
Ga 3.176254 -3.693702 -0.234533 -0.014764 -0.007793 0.038572
Ga 1.609917 -0.981741 4.987261 -0.016202 0.009229 -0.007095
Al 1.610213 -0.981290 -5.264330 -0.013594 0.008296 -0.005823
Ga 1.608286 -0.980209 -0.235910 -0.015919 0.009123 0.035255
Ga 3.129946 1.806178 4.986401 0.000331 -0.003402 -0.001436
Al 3.130986 1.806509 -5.263957 -0.000647 -0.002929 -0.002905
Ga 3.129749 1.806280 -0.235870 0.000258 -0.003789 0.040771
Ga 6.306136 -3.693064 4.987145 0.000063 -0.000187 -0.000391
Ga 6.307288 -3.693035 -5.263883 0.000570 -0.000954 -0.001459
Ga 6.306859 -3.692589 -0.236882 -0.000306 -0.000080 0.042612
Ga 4.739638 -0.981481 4.986600 -0.000547 0.017037 -0.003418
Ga 4.740334 -0.980500 -5.263281 -0.001226 0.016638 -0.004174
Ga 4.742190 -0.980817 -0.234978 -0.000896 0.016540 0.038394
Ga -3.221448 1.807050 4.986986 0.003057 -0.001996 -0.002941
Ga -3.220446 1.807267 -5.263550 0.002724 -0.001529 -0.002642
Ga -3.218354 1.805630 -0.237809 0.003416 -0.002062 0.039446
Ga -0.044357 -3.693214 4.986318 0.003052 0.001223 -0.001448
Al -0.043487 -3.692623 -5.264046 0.002583 0.001087 -0.003058
Ga -0.044303 -3.691220 -0.235051 0.003332 0.001724 0.040869
Ga -1.610506 -0.981430 4.988155 0.001966 0.018192 -0.005657
Ga -1.608990 -0.980644 -5.263980 0.002449 0.017613 -0.005270
Al -1.609035 -0.979859 -0.253935 0.001180 0.014769 0.032612
N 1.564965 0.901800 4.391004 -0.001050 -0.017489 -0.016507
N 1.565246 0.902647 -5.859553 -0.000628 -0.013051 0.003289
N 1.564670 0.902755 -0.838456 -0.018732 -0.006680 0.014678
N -0.001574 3.614576 4.391163 -0.002179 0.000250 -0.020783
N -0.000818 3.613247 -5.859074 -0.002639 -0.020970 0.008937
N -0.000528 3.613734 -0.837544 -0.001818 -0.020655 0.011586
N 3.174585 -1.885216 4.388875 -0.002967 0.001843 0.000702
N 3.174470 -1.884269 -5.860173 -0.020377 0.011852 -0.014792
N 3.175125 -1.884709 -0.831337 -0.002987 0.001539 0.003709
N -4.786714 0.902485 4.389489 0.000405 -0.017304 0.005455
N -4.786749 0.903541 -5.858921 -0.017557 -0.006876 0.013378
N -4.785697 0.902962 -0.833711 0.000132 -0.016407 -0.014858
N -6.352193 3.613901 4.389281 -0.000495 0.000487 0.001947
N -6.350226 3.613726 -5.859776 0.018212 -0.010238 -0.006451
N -6.351248 3.614346 -0.832736 -0.000538 0.000335 0.004096
N -3.177014 -1.885447 4.391952 -0.001137 0.002099 0.001577
N -3.175419 -1.884558 -5.859160 -0.001326 0.002551 0.001504
N -3.174935 -1.884591 -0.837438 0.017073 0.011683 0.011744
N -1.656050 0.903273 4.394373 0.016246 -0.009550 0.010277
N -1.653649 0.903885 -5.859116 0.031044 -0.000884 0.015778
N -1.653934 0.902945 -0.843815 0.031341 -0.017880 0.000962
N -3.220990 3.614313 4.388389 0.014798 0.008310 -0.016952
N -3.221197 3.615252 -5.859988 -0.003154 0.018531 -0.010111
N -3.220261 3.614604 -0.832101 0.014673 0.008305 0.007707
N -0.043917 -1.885218 4.392259 0.014551 0.009879 0.005925
N -0.042875 -1.885120 -5.858710 0.029299 -0.003252 0.018462
N -0.044233 -1.884185 -0.838040 -0.003470 0.019526 0.014819
N -0.000512 1.805962 1.891981 0.004163 0.001097 -0.035057
N -0.000146 1.805472 6.903874 0.003990 -0.020503 0.012461
N -0.001224 1.806024 -3.350241 -0.029713 -0.017914 -0.010695
N 3.175084 -3.695198 1.875705 -0.011899 -0.026747 -0.019456
N 3.173587 -3.692501 6.903440 -0.030028 0.004636 0.018160
N 3.175253 -3.692282 -3.347219 -0.015296 -0.007964 0.004990
N 1.608130 -0.979583 1.876138 -0.015944 0.026884 -0.023361
N 1.610313 -0.981080 6.903909 0.001564 0.016450 0.022743
N 1.610578 -0.981554 -3.349350 -0.016095 0.008909 -0.013569
N 3.127974 1.805376 1.875145 -0.016907 -0.012916 -0.030392
N 3.129045 1.806768 6.903592 -0.017622 0.009080 0.016086
N 3.132016 1.806033 -3.348387 0.019593 -0.012352 -0.014112
N 6.304611 -3.693528 1.876719 -0.018125 -0.010712 -0.029974
N 6.307014 -3.693625 6.903760 0.019278 -0.011210 0.008611
N 6.306967 -3.692540 -3.347998 0.000712 0.000021 0.001980
N 4.740971 -0.981405 1.874003 -0.000716 0.017460 -0.033084
N 4.739029 -0.981749 6.903355 -0.018724 0.006647 0.012375
N 4.740575 -0.979880 -3.346753 -0.000613 0.034222 0.011084
N -3.219805 1.807192 1.876417 0.002512 0.019110 -0.031045
N -3.221261 1.807819 6.903653 0.002689 0.019138 0.008257
N -3.220366 1.806134 -3.347125 0.002555 -0.022687 0.015945
N -0.043731 -3.692579 1.874978 0.020623 -0.010712 -0.029899
N -0.044528 -3.693985 6.903454 0.001516 -0.021210 0.015965
N -0.043504 -3.692694 -3.348475 0.002316 0.000314 -0.021800
N -1.609918 -0.980307 1.890626 0.000964 0.017685 -0.049563
N -1.610283 -0.981315 6.903956 0.001564 0.017412 0.004896
N -1.609647 -0.979867 -3.348627 0.000698 0.034510 0.012033
