108
Energy=-1169071.461914 Lattice="9.483185 0.000000 0.000000 -4.764032 8.207631 0.000000 0.009958 0.006070 15.250891" Stress="-0.000015 -0.000004 0.000002 -0.000004 -0.000017 0.000001 0.000002 0.000001 -0.000027" Properties=species:S:1:pos:R:3:forces:R:3
Al 1.563002 0.888391 2.398214 -0.007508 -0.011453 0.007888
Al 1.553579 0.869244 7.460292 0.001675 0.000121 0.001534
Al 1.537039 0.887739 -2.686980 0.001334 -0.003533 -0.012766
Al -0.030895 3.602967 2.374342 0.001918 0.000925 0.001525
Al -0.022707 3.593420 7.472931 -0.003252 0.000978 0.000440
Al -0.030501 3.592292 -2.697246 0.004602 0.000362 0.003608
Al 3.154350 -1.882046 2.399172 -0.001345 0.001471 0.001834
Al 3.114841 -1.862366 7.513594 0.008179 -0.002704 -0.024006
Al 3.142607 -1.862952 -2.691877 0.004649 -0.001596 0.004901
Al -4.763407 0.857561 2.394375 -0.000943 0.000730 -0.001292
Al -4.786009 0.864306 7.480393 0.001238 0.002998 0.000737
Ga -4.792179 0.872546 -2.680632 0.000971 -0.000258 0.002310
Al -6.355372 3.614593 2.410468 -0.002006 0.002930 0.002515
Ga -6.354753 3.608014 7.467783 0.000947 -0.000154 0.000453
Al -6.367643 3.623788 -2.696475 0.003161 0.000037 -0.000770
Al -3.196274 -1.873291 2.406266 0.012628 0.003157 -0.008047
Ga -3.178196 -1.858343 7.513255 -0.002047 -0.001838 -0.001368
Ga -3.183793 -1.868147 -2.705904 0.003340 0.002077 0.000063
Al -1.595414 0.882882 2.357585 0.001314 0.006339 0.006364
Al -1.601414 0.880431 7.489086 0.000996 0.002847 0.000061
Al -1.609911 0.893965 -2.685097 0.002695 -0.003972 0.000288
Al -3.194424 3.616266 2.374802 0.002218 -0.000534 0.000380
Ga -3.192205 3.633781 7.466510 0.002643 -0.000491 -0.001317
Ga -3.198759 3.630633 -2.662200 -0.000990 0.000051 0.002330
Al 0.008019 -1.869837 2.418301 -0.000684 0.004541 -0.001502
Al -0.037889 -1.827478 7.451401 0.011945 -0.006964 0.007931
Al 0.012856 -1.836035 -2.725940 -0.016989 -0.007393 0.000183
Ga -0.014106 1.780086 4.922679 -0.001352 0.001467 0.001731
Al -0.018302 1.770716 -5.239021 -0.002484 0.002720 0.001250
Al -0.032582 1.788092 -0.169529 -0.001920 0.003242 0.006072
Al 3.158771 -3.696489 4.912256 0.000893 0.001203 0.003562
Ga 3.177543 -3.685579 -5.232602 -0.001644 -0.002134 0.002684
Al 3.169538 -3.696958 -0.150195 -0.002389 0.002794 0.002281
Al 1.585245 -0.973803 4.937915 -0.000895 0.003839 -0.000153
Ga 1.571444 -0.950907 -5.246143 -0.004761 0.001413 0.001397
Ga 1.562831 -0.965184 -0.178237 -0.000890 -0.001640 0.010972
Al 3.125466 1.785759 4.922921 0.001704 0.000018 -0.002475
Al 3.116524 1.797601 -5.229996 0.002723 -0.001663 0.000625
Ga 3.103863 1.790254 -0.118804 0.004520 -0.000032 0.003333
Al 6.312920 -3.684896 4.905661 -0.000605 -0.011605 0.009229
Al 6.318022 -3.705189 -5.232532 -0.001949 0.002335 0.002427
Al 6.299450 -3.692315 -0.164713 -0.001616 0.000157 0.008191
Ga 4.722126 -0.974633 4.938784 -0.001360 0.002467 0.003453
Al 4.723053 -0.948690 -5.248061 -0.000424 0.001399 0.002071
Al 4.725164 -0.963012 -0.135354 -0.003466 -0.000258 0.003665
Ga -3.198436 1.786390 4.921918 -0.000422 0.000521 0.002285
Ga -3.201776 1.780036 -5.242174 -0.000496 -0.000538 0.000978
Al -3.164152 1.788225 -0.074641 -0.009527 0.001854 -0.025943
Al -0.001353 -3.684197 4.914316 -0.002949 -0.000719 0.001583
Al -0.035473 -3.673852 -5.228205 0.000187 0.000206 0.001178
Al -0.050886 -3.694683 -0.101694 0.011766 0.005019 -0.017394
Ga -1.574514 -0.968566 4.928196 -0.002797 0.002819 -0.000764
Al -1.595920 -0.948111 -5.243122 0.000241 0.002080 0.005811
Ga -1.587839 -0.952233 -0.139061 -0.000043 0.001616 -0.000329
N 1.586398 0.843811 4.321308 0.002557 -0.003106 0.000091
N 1.558444 0.918975 -5.864497 -0.001241 -0.001623 -0.000261
N 1.504662 0.894700 -0.818709 0.000517 -0.000060 0.012431
N -0.027168 3.639670 4.296275 -0.000098 0.002218 -0.002872
N 0.005770 3.578364 -5.857626 0.002568 -0.001304 -0.001450
N -0.030938 3.600842 -0.762813 0.001507 0.000333 -0.000395
N 3.122575 -1.898102 4.321568 -0.002794 -0.001402 -0.004569
N 3.182844 -1.847312 -5.893888 -0.000092 0.000090 0.012147
N 3.180260 -1.883997 -0.769348 0.004909 -0.001893 -0.001071
N -4.801952 0.878561 4.286986 -0.001506 0.000704 0.002106
N -4.821879 0.851476 -5.853399 -0.001973 0.001693 -0.000284
N -4.759021 0.845188 -0.703471 0.008197 0.003943 0.004817
N -6.354032 3.614257 4.326524 0.002097 -0.000044 0.002496
N -6.356486 3.609599 -5.805279 0.001048 -0.000316 0.001579
N -6.370201 3.644011 -0.769472 0.001422 0.002274 0.000321
N -3.166435 -1.928863 4.305744 -0.000879 0.009237 -0.003194
N -3.176923 -1.862266 -5.761991 -0.000229 -0.003458 -0.001567
N -3.214412 -1.878430 -0.720763 -0.000645 -0.002343 -0.000417
N -1.616899 0.871265 4.264630 0.002614 -0.000084 -0.001402
N -1.581958 0.859960 -5.853693 0.004229 -0.002023 -0.001305
N -1.613689 0.920600 -0.759068 0.000107 0.001082 -0.001266
N -3.191986 3.645677 4.301021 -0.000045 0.002225 -0.003006
N -3.233670 3.645708 -5.821946 -0.001581 0.001212 0.001184
N -3.185978 3.619647 -0.679759 -0.008272 -0.002602 0.003835
N 0.030906 -1.883019 4.321182 0.003209 -0.003287 -0.000959
N -0.060701 -1.881760 -5.868282 0.000806 0.000702 -0.000927
N -0.024819 -1.895505 -0.843926 0.000047 -0.009399 0.016179
N -0.012732 1.784254 1.778884 0.000827 0.002231 -0.005725
N -0.024825 1.777525 6.902576 -0.001021 0.000104 0.001582
N -0.035097 1.782282 -3.302037 0.000156 0.000242 -0.003152
N 3.160083 -3.693479 1.784609 -0.000691 -0.000353 -0.002299
N 3.208864 -3.676143 6.836911 -0.003404 0.004254 0.002426
N 3.206071 -3.667173 -3.258622 -0.003809 0.001174 -0.000925
N 1.580277 -0.962776 1.857837 -0.000226 0.004701 -0.011777
N 1.559672 -0.953740 6.875529 -0.000297 0.001174 -0.001971
N 1.572354 -0.975001 -3.255782 0.005359 0.013913 -0.003536
N 3.123035 1.787076 1.906910 0.006278 0.002493 -0.019433
N 3.134740 1.748650 6.844440 0.000035 -0.002871 -0.002836
N 3.089572 1.813439 -3.306689 -0.002955 0.000575 -0.001437
N 6.315747 -3.690879 1.791878 0.000988 0.000729 -0.006170
N 6.270222 -3.709226 6.854697 0.002203 0.002665 -0.010362
N 6.305732 -3.728937 -3.317123 -0.001161 -0.003735 0.000672
N 4.721828 -0.963692 1.800259 0.001871 0.001146 -0.001704
N 4.690909 -0.933461 6.914559 -0.004025 -0.001086 -0.001576
N 4.678777 -0.970909 -3.341261 -0.002533 0.000424 -0.001328
N -3.194183 1.785639 1.771339 0.001050 -0.000373 0.017723
N -3.192252 1.751026 6.899815 -0.001101 -0.003574 0.001926
N -3.168659 1.776182 -3.279259 0.001560 -0.000661 0.001089
N -0.017130 -3.681903 1.784236 -0.002339 -0.000309 0.006958
N -0.014623 -3.620370 6.828618 -0.001216 -0.001380 -0.004691
N -0.045016 -3.652945 -3.312197 -0.003159 -0.000340 -0.002370
N -1.534270 -0.902825 1.842898 -0.016866 -0.022256 -0.001102
N -1.562252 -0.919840 6.904612 -0.006472 0.003098 -0.003742
N -1.567108 -0.904199 -3.317105 0.003733 -0.002010 -0.000476
