108
Energy=-8.486435e+05 Lattice="9.453949e+00 0.000000e+00 0.000000e+00 -4.733790e+00 8.180080e+00 0.000000e+00 -1.998675e-02 -1.096702e-02 1.520852e+01" Stress="3.164370e-03 -4.206801e-04 -9.176493e-04 -4.237764e-04 1.969806e-03 -4.768339e-04 -9.244951e-04 -4.792107e-04 4.433748e-03" Properties=species:S:1:pos:R:3:forces:R:3 Config_type=AlGaN_super3_9_1_18.xyz
Al 1.545455e+00 8.693589e-01 2.426837e+00 5.114715e-04 -9.560606e-04 -5.405499e-04
Al 1.546353e+00 8.689061e-01 7.452902e+00 1.734051e-04 1.706728e-04 2.386259e-04
Al 1.557063e+00 8.725622e-01 -2.722568e+00 1.242733e-04 1.172008e-04 -2.865147e-04
Al -1.585875e-02 3.599095e+00 2.421675e+00 7.209045e-04 -4.015027e-04 1.973277e-04
Al -3.501713e-02 3.588020e+00 7.452234e+00 -1.432653e-04 7.481979e-06 3.060661e-05
Al -1.723750e-02 3.591584e+00 -2.719119e+00 -7.491415e-05 8.057475e-05 3.250480e-04
Al 3.137055e+00 -1.848768e+00 2.418499e+00 -4.374320e-05 3.382483e-04 -5.985493e-05
Al 3.132790e+00 -1.865404e+00 7.453985e+00 -1.490886e-04 1.156137e-05 1.822368e-04
Al 3.137440e+00 -1.850770e+00 -2.714453e+00 3.573845e-05 1.167314e-05 7.990670e-05
Al -4.752099e+00 8.590675e-01 2.405739e+00 -1.841162e-04 2.131619e-04 1.002774e-04
Al -4.768607e+00 8.614132e-01 7.443029e+00 2.994994e-04 5.171469e-05 -1.846658e-05
Al -4.753794e+00 8.715191e-01 -2.692204e+00 1.698961e-05 -1.004336e-04 1.409447e-04
Al -6.347602e+00 3.599270e+00 2.396119e+00 4.449599e-04 -2.359106e-04 -2.811492e-04
Al -6.349711e+00 3.577764e+00 7.467641e+00 9.329973e-05 -1.855524e-05 8.258639e-05
Al -6.321025e+00 3.596234e+00 -2.703160e+00 -2.204410e-04 -3.339690e-05 -2.195106e-05
Al -3.176561e+00 -1.860271e+00 2.385733e+00 -2.444427e-04 1.454344e-05 -1.355508e-04
Al -3.187555e+00 -1.862747e+00 7.453208e+00 1.503132e-05 1.554372e-04 1.663287e-04
Ga -3.166893e+00 -1.853303e+00 -2.684704e+00 -2.190246e-04 -7.465560e-06 7.995011e-04
Al -1.610003e+00 8.632176e-01 2.403626e+00 3.970282e-04 -1.940392e-04 3.892107e-04
Al -1.612148e+00 8.682130e-01 7.445111e+00 4.726458e-04 -1.267606e-04 1.876059e-04
Al -1.588020e+00 8.774255e-01 -2.691897e+00 2.885637e-04 -4.471455e-04 3.019228e-05
Ga -3.181083e+00 3.591950e+00 2.393289e+00 -1.662596e-04 -5.751832e-04 -8.458806e-05
Al -3.176805e+00 3.585664e+00 7.460199e+00 2.489276e-04 -5.536910e-05 1.307599e-05
Al -3.177083e+00 3.605631e+00 -2.690510e+00 9.488078e-05 -2.101996e-04 1.201958e-04
Al -3.668810e-02 -1.848787e+00 2.397557e+00 5.767079e-04 1.085399e-04 2.653896e-05
Ga -3.150966e-02 -1.853416e+00 7.471551e+00 2.121412e-04 4.991200e-05 4.205173e-04
Al -1.052263e-02 -1.853145e+00 -2.706122e+00 -1.587876e-04 -1.154342e-05 -8.834444e-04
Al -3.464426e-02 1.773240e+00 4.928865e+00 -8.554457e-05 1.278451e-05 -1.364395e-04
Al -1.027369e-02 1.779117e+00 -5.234982e+00 -9.340990e-05 2.621362e-04 3.990150e-04
Ga -3.061903e-02 1.782491e+00 -1.410452e-01 1.422763e-05 1.045929e-04 -1.857028e-04
Al 3.138786e+00 -3.676697e+00 4.939726e+00 7.682266e-04 5.696786e-04 3.872710e-04
Al 3.145919e+00 -3.666205e+00 -5.227371e+00 -3.119567e-05 2.134553e-04 3.156980e-04
Ga 3.142843e+00 -3.668935e+00 -1.581811e-01 2.746189e-04 1.135589e-04 -1.308332e-04
Al 1.556413e+00 -9.463742e-01 4.924066e+00 -1.430801e-04 1.796765e-04 -9.222776e-05
Al 1.572704e+00 -9.442166e-01 -5.218838e+00 -2.553234e-04 2.910850e-04 2.163116e-04
Ga 1.554421e+00 -9.556471e-01 -1.495068e-01 -4.651517e-05 9.941247e-05 4.579158e-04
Al 3.113350e+00 1.768103e+00 4.926665e+00 7.804965e-05 1.215149e-04 1.189972e-04
Al 3.127223e+00 1.781706e+00 -5.226203e+00 1.272060e-04 -1.358242e-04 2.645043e-04
Ga 3.138590e+00 1.786507e+00 -1.440927e-01 2.461554e-04 -6.448648e-05 -7.928863e-04
Al 6.268443e+00 -3.677691e+00 4.932033e+00 2.874426e-04 2.393256e-04 3.915353e-04
Al 6.291917e+00 -3.673869e+00 -5.239965e+00 1.393539e-06 8.881212e-06 -3.204190e-05
Al 6.291268e+00 -3.666871e+00 -1.403486e-01 -1.193080e-04 -1.414527e-05 -1.322306e-04
Al 4.703637e+00 -9.555096e-01 4.927125e+00 -1.879008e-04 -3.335533e-05 1.944606e-04
Al 4.710336e+00 -9.492468e-01 -5.241597e+00 -2.011460e-04 -4.396872e-05 1.061054e-04
Al 4.716591e+00 -9.442176e-01 -1.331501e-01 -1.940900e-04 1.475253e-04 9.606256e-05
Al -3.182225e+00 1.760355e+00 4.944061e+00 1.959402e-04 3.430965e-04 9.251808e-05
Ga -3.170475e+00 1.781697e+00 -5.223384e+00 5.923575e-05 -1.304140e-04 2.966741e-04
Al -3.179969e+00 1.766181e+00 -1.678766e-01 -7.072924e-04 9.392415e-05 9.645531e-04
Ga -3.546915e-02 -3.679960e+00 4.936512e+00 -6.237761e-05 5.691597e-05 1.436950e-05
Al -1.658180e-02 -3.670282e+00 -5.217100e+00 1.113494e-04 -1.118040e-04 -5.687745e-05
Al -3.544552e-02 -3.666288e+00 -1.625734e-01 -1.165034e-04 4.155605e-04 7.781962e-04
Al -1.615033e+00 -9.439300e-01 4.915790e+00 -2.477526e-04 -1.703718e-04 9.823300e-05
Al -1.587765e+00 -9.435797e-01 -5.222315e+00 -3.269631e-04 1.049608e-05 4.871493e-04
Al -1.600714e+00 -9.450793e-01 -1.385347e-01 -8.060690e-04 -1.057038e-03 -6.879680e-04
N 1.540762e+00 8.663192e-01 4.338396e+00 4.659823e-04 2.581682e-04 -1.122234e-04
N 1.560748e+00 8.715239e-01 -5.828844e+00 1.319070e-04 3.446030e-06 -3.077173e-04
N 1.551915e+00 8.733914e-01 -8.170695e-01 1.846083e-04 7.298440e-05 3.246638e-04
N -3.018459e-02 3.593678e+00 4.339410e+00 1.270410e-04 -6.546373e-05 7.299240e-05
N -1.858475e-02 3.598132e+00 -5.833496e+00 -1.208986e-04 -1.756636e-05 -1.517854e-04
N 2.274619e-02 3.620257e+00 -8.052136e-01 -1.075252e-04 -1.211960e-04 -3.623374e-04
N 3.129210e+00 -1.862156e+00 4.334905e+00 -5.236924e-05 1.618682e-04 -1.660565e-05
N 3.140280e+00 -1.855918e+00 -5.833077e+00 -2.003106e-04 -2.665255e-05 -2.047591e-04
N 3.178269e+00 -1.826476e+00 -8.027921e-01 -1.006301e-04 -8.758094e-05 2.410774e-05
N -4.757020e+00 8.643765e-01 4.332025e+00 3.658186e-04 2.105795e-04 -1.024197e-04
N -4.787254e+00 8.518326e-01 -5.853553e+00 2.118289e-04 2.482250e-04 -2.684354e-04
N -4.717479e+00 8.412292e-01 -7.763462e-01 5.677346e-04 1.505221e-04 -9.436234e-05
N -6.381292e+00 3.570301e+00 4.307634e+00 -1.755610e-04 8.613868e-05 -3.582588e-04
N -6.320571e+00 3.596354e+00 -5.824436e+00 -1.059463e-04 9.044029e-05 -3.035212e-05
N -6.332647e+00 3.643808e+00 -7.824826e-01 -1.680163e-05 3.631402e-04 1.595476e-05
N -3.179923e+00 -1.864993e+00 4.314221e+00 -1.419986e-04 7.797031e-05 -4.319282e-04
N -3.160730e+00 -1.852061e+00 -5.831524e+00 1.724758e-05 5.896453e-05 -2.550999e-04
N -3.172532e+00 -1.854564e+00 -6.959818e-01 6.757764e-04 2.361626e-04 7.725366e-06
N -1.614139e+00 8.690050e-01 4.324932e+00 3.488170e-04 6.086224e-05 3.191701e-05
N -1.553921e+00 8.520275e-01 -5.851822e+00 4.335510e-04 -2.901867e-04 -4.377122e-04
N -1.634671e+00 8.467577e-01 -7.762899e-01 3.230795e-04 2.153637e-04 5.179051e-04
N -3.140846e+00 3.568800e+00 4.365392e+00 -1.120550e-03 -1.030742e-03 -3.474194e-04
N -3.167068e+00 3.649398e+00 -5.836938e+00 4.408134e-05 -3.376316e-04 -1.157660e-04
N -3.220160e+00 3.580383e+00 -7.643209e-01 4.892459e-04 -8.572615e-05 -6.135327e-04
N -3.043509e-02 -1.813236e+00 4.312723e+00 -8.595075e-05 -1.224529e-04 5.770731e-06
N -1.040741e-02 -1.848414e+00 -5.764805e+00 -6.168885e-05 -3.365788e-04 -2.687181e-05
N -6.351591e-02 -1.869582e+00 -7.863514e-01 3.444339e-05 -1.172627e-03 1.422407e-03
N -3.004146e-02 1.778665e+00 1.848808e+00 6.160423e-04 2.139421e-04 3.141077e-04
N -3.260487e-02 1.770333e+00 6.851149e+00 -5.075342e-05 3.048097e-04 -1.989876e-04
N -2.154585e-02 1.778301e+00 -3.313213e+00 -2.625492e-04 2.422832e-04 -6.306613e-05
N 3.179694e+00 -3.649216e+00 1.821513e+00 -1.107402e-03 -8.009161e-05 -1.151499e-04
N 3.126845e+00 -3.681258e+00 6.857769e+00 2.401844e-04 2.537190e-04 5.959995e-05
N 3.137168e+00 -3.674808e+00 -3.300910e+00 -1.899667e-04 1.271310e-04 2.350176e-05
N 1.552751e+00 -9.537471e-01 1.842905e+00 3.101263e-04 1.624959e-03 -2.302402e-04
N 1.590196e+00 -9.333112e-01 6.838786e+00 -3.316579e-04 1.827564e-04 -2.877130e-04
N 1.565508e+00 -9.482953e-01 -3.301868e+00 -2.852107e-04 1.903445e-04 -1.869482e-05
N 3.124189e+00 1.774346e+00 1.840681e+00 -6.493302e-04 -9.151587e-05 1.076146e-03
N 3.114423e+00 1.774070e+00 6.847450e+00 5.839797e-07 4.691114e-05 -2.695597e-04
N 3.136830e+00 1.782865e+00 -3.303102e+00 -1.011659e-04 -7.170270e-05 -1.812382e-04
N 6.275415e+00 -3.679702e+00 1.785758e+00 3.114728e-04 -1.815751e-04 5.753109e-06
N 6.274971e+00 -3.680393e+00 6.857369e+00 5.679202e-05 -1.196663e-04 -9.499631e-05
N 6.292029e+00 -3.714379e+00 -3.328867e+00 1.934117e-06 -5.682018e-05 -2.854490e-04
N 4.698646e+00 -9.481815e-01 1.794743e+00 5.724706e-05 2.280116e-04 1.262537e-04
N 4.700298e+00 -9.570330e-01 6.848452e+00 -2.730496e-04 -1.408029e-04 -2.448900e-04
N 4.678756e+00 -9.212740e-01 -3.329813e+00 -3.700799e-04 -5.886933e-05 -4.660514e-04
N -3.180851e+00 1.727643e+00 1.760583e+00 -3.049877e-04 -1.293257e-05 -9.819576e-04
N -3.187666e+00 1.770711e+00 6.862764e+00 -9.744714e-05 -6.660403e-05 -4.838474e-05
N -3.171592e+00 1.781988e+00 -3.244793e+00 7.290279e-05 1.217567e-04 1.479925e-04
N -6.647778e-02 -3.649454e+00 1.768989e+00 -6.265194e-04 -2.352007e-04 -6.846993e-04
N -3.370980e-02 -3.726858e+00 6.900846e+00 -2.974501e-04 -1.796556e-05 -1.835219e-04
N -1.477979e-02 -3.674083e+00 -3.298058e+00 1.702332e-04 -9.118695e-05 2.034364e-04
N -1.600456e+00 -9.433946e-01 1.788190e+00 5.458026e-05 -4.644477e-04 1.073504e-04
N -1.647594e+00 -9.326097e-01 6.829571e+00 -3.974344e-04 -6.818306e-05 -4.443139e-04
N -1.554934e+00 -9.188844e-01 -3.312710e+00 -3.397864e-04 1.411397e-04 -1.021050e-04
