108
Energy=-5.282121e+05 Lattice="9.475409e+00 0.000000e+00 0.000000e+00 -4.738031e+00 8.205720e+00 0.000000e+00 3.223949e-05 -1.884454e-04 1.526600e+01" Stress="1.917390e-02 4.692823e-03 8.330207e-06 4.678188e-03 2.475444e-02 -1.638267e-04 9.797167e-06 -1.598374e-04 3.009342e-02" Properties=species:S:1:pos:R:3:forces:R:3 Config_type=AlGaN_super3_2_2_1.xyz
Al 1.564309e+00 9.025088e-01 2.481675e+00 -1.415978e-03 -1.388514e-02 -1.056121e-02
Al 1.564075e+00 9.024536e-01 7.495302e+00 -1.178673e-03 -1.410147e-02 -5.635935e-03
Al 1.564672e+00 9.022426e-01 -2.755316e+00 -1.233706e-03 -1.408767e-02 -5.887328e-03
Al -4.563837e-04 3.612543e+00 2.481495e+00 -2.738838e-03 -1.495217e-03 -9.336017e-03
Al -3.489474e-04 3.612063e+00 7.495311e+00 -2.757793e-03 -1.225033e-03 -3.923652e-03
Al -3.834917e-04 3.612913e+00 -2.755211e+00 -2.810360e-03 -1.303431e-03 -4.198984e-03
Al 3.173169e+00 -1.884292e+00 2.476279e+00 -3.029224e-03 1.604535e-03 -9.884702e-03
Al 3.173369e+00 -1.884397e+00 7.495186e+00 -2.939530e-03 1.773143e-03 -4.903972e-03
Al 3.173399e+00 -1.884171e+00 -2.752834e+00 -3.001323e-03 1.704181e-03 -4.765860e-03
Al -4.782893e+00 9.028865e-01 2.476611e+00 1.344435e-03 -1.286623e-02 -8.582421e-03
Al -4.782844e+00 9.026028e-01 7.495266e+00 1.366484e-03 -1.292392e-02 -4.427223e-03
Al -4.782899e+00 9.026729e-01 -2.752873e+00 1.400394e-03 -1.283605e-02 -4.224805e-03
Al -6.347454e+00 3.611929e+00 2.477172e+00 -7.894327e-05 2.359601e-04 -7.649403e-03
Al -6.347035e+00 3.612081e+00 7.495209e+00 -1.986443e-04 7.579734e-05 -2.632193e-03
Al -6.347259e+00 3.612123e+00 -2.752973e+00 -1.532687e-05 1.562906e-04 -2.964440e-03
Al -3.173338e+00 -1.884230e+00 2.476286e+00 -3.031399e-04 2.855566e-03 -8.601196e-03
Al -3.173526e+00 -1.884339e+00 7.495150e+00 -1.986804e-04 3.157549e-03 -4.060699e-03
Al -3.173604e+00 -1.884095e+00 -2.752663e+00 -4.738232e-04 3.008436e-03 -3.151067e-03
Al -1.654732e+00 9.026662e-01 2.481413e+00 1.397338e-02 -7.517254e-03 -1.052275e-02
Al -1.654424e+00 9.027055e-01 7.495274e+00 1.349828e-02 -8.044523e-03 -6.700474e-03
Al -1.655097e+00 9.024244e-01 -2.755001e+00 1.344955e-02 -7.815183e-03 -6.108820e-03
Al -3.218490e+00 3.612010e+00 2.477243e+00 1.194897e-02 5.387215e-03 -8.832307e-03
Al -3.218749e+00 3.612146e+00 7.495221e+00 1.185118e-02 5.237530e-03 -4.435730e-03
Al -3.218639e+00 3.612187e+00 -2.752920e+00 1.169309e-02 5.296016e-03 -4.651999e-03
Al -4.483767e-02 -1.883639e+00 2.475804e+00 1.167931e-02 8.257951e-03 -9.663621e-03
Al -4.484064e-02 -1.884441e+00 7.495113e+00 1.145286e-02 8.258616e-03 -5.804323e-03
Al -4.494830e-02 -1.884017e+00 -2.752732e+00 1.174913e-02 7.844321e-03 -5.254006e-03
Al -2.512346e-04 1.805633e+00 4.987881e+00 -1.163392e-02 -8.087893e-03 -6.229108e-03
Al -2.983152e-04 1.805873e+00 -5.262733e+00 -1.145738e-02 -8.118550e-03 -5.507925e-03
Al -4.636782e-04 1.805661e+00 -2.568356e-01 -1.182666e-02 -8.281958e-03 3.119024e-02
Al 3.173344e+00 -3.690325e+00 4.986862e+00 -1.182468e-02 -5.244696e-03 -4.516042e-03
Al 3.173261e+00 -3.690357e+00 -5.262221e+00 -1.184624e-02 -5.241787e-03 -4.209065e-03
Al 3.173821e+00 -3.691210e+00 -2.437302e-01 -1.194874e-02 -5.011590e-03 3.037380e-02
Al 1.609308e+00 -9.816337e-01 4.986670e+00 -1.347965e-02 7.838204e-03 -6.352534e-03
Al 1.609227e+00 -9.814019e-01 -5.262218e+00 -1.331351e-02 7.947306e-03 -6.186621e-03
Al 1.608790e+00 -9.805676e-01 -2.434938e-01 -1.340288e-02 7.667173e-03 2.828821e-02
Al 3.128570e+00 1.805571e+00 4.986896e+00 3.937096e-04 -3.073757e-03 -3.894844e-03
Al 3.128441e+00 1.805909e+00 -5.262297e+00 3.440476e-04 -3.024676e-03 -3.758136e-03
Al 3.127394e+00 1.805669e+00 -2.438931e-01 5.767020e-04 -3.266745e-03 3.122535e-02
Al 6.302048e+00 -3.690258e+00 4.986813e+00 1.676072e-04 -2.328138e-05 -2.788049e-03
Al 6.302018e+00 -3.690331e+00 -5.262241e+00 2.019331e-04 -3.954558e-04 -2.525919e-03
Al 6.301413e+00 -3.691168e+00 -2.437148e-01 1.928772e-04 1.862996e-04 3.232767e-02
Al 4.737655e+00 -9.812115e-01 4.986046e+00 -1.305784e-03 1.294672e-02 -4.458376e-03
Al 4.737554e+00 -9.811279e-01 -5.261914e+00 -1.565667e-03 1.305057e-02 -4.205037e-03
Al 4.737567e+00 -9.811756e-01 -2.420385e-01 -1.401205e-03 1.293192e-02 2.999507e-02
Al -3.218867e+00 1.805644e+00 4.986835e+00 2.953988e-03 -1.809601e-03 -5.014281e-03
Al -3.218788e+00 1.806086e+00 -5.262273e+00 2.644576e-03 -1.712962e-03 -4.625938e-03
Al -3.217868e+00 1.805821e+00 -2.437884e-01 2.852210e-03 -1.950811e-03 3.017552e-02
Al -4.485025e-02 -3.690646e+00 4.985971e+00 2.769035e-03 1.273413e-03 -3.516805e-03
Al -4.479854e-02 -3.690388e+00 -5.261906e+00 2.715465e-03 8.636311e-04 -3.307437e-03
Ga -4.489840e-02 -3.690456e+00 -2.421502e-01 2.845832e-03 1.255239e-03 4.115132e-02
Al -1.609326e+00 -9.814803e-01 4.986590e+00 1.167886e-03 1.415121e-02 -5.401431e-03
Ga -1.609217e+00 -9.811901e-01 -5.262123e+00 1.838441e-03 1.795438e-02 -6.100154e-03
Al -1.608922e+00 -9.803986e-01 -2.434542e-01 9.750577e-04 1.403218e-02 2.948774e-02
N 1.564673e+00 9.020997e-01 4.393566e+00 -5.875717e-04 -1.354862e-02 5.913345e-03
N 1.564054e+00 9.026486e-01 -5.857158e+00 -7.597112e-04 -1.360490e-02 5.237104e-03
N 1.564283e+00 9.023963e-01 -8.433648e-01 -5.322663e-04 -1.324939e-02 6.748175e-03
N -3.608516e-04 3.612816e+00 4.393470e+00 -1.992750e-03 1.766849e-05 3.377211e-03
N -3.733158e-04 3.612257e+00 -5.857126e+00 -2.098853e-03 1.525326e-04 2.708451e-03
N -4.345177e-04 3.612522e+00 -8.432171e-01 -1.864660e-03 -3.803246e-05 4.648198e-03
N 3.173427e+00 -1.884274e+00 4.391013e+00 -2.497319e-03 1.445757e-03 2.331886e-03
N 3.173343e+00 -1.884218e+00 -5.857052e+00 -2.424233e-03 1.290989e-03 2.311877e-03
N 3.173178e+00 -1.884367e+00 -8.380996e-01 -2.517554e-03 1.317159e-03 3.506917e-03
N -4.782876e+00 9.025287e-01 4.391195e+00 8.616324e-04 -1.329638e-02 5.739590e-03
N -4.782882e+00 9.027796e-01 -5.857059e+00 1.024879e-03 -1.346574e-02 5.624735e-03
N -4.782933e+00 9.028856e-01 -8.382346e-01 8.511798e-04 -1.303397e-02 6.408269e-03
N -6.347291e+00 3.611908e+00 4.391374e+00 -2.882456e-04 3.598281e-04 3.300005e-03
N -6.347060e+00 3.612267e+00 -5.857032e+00 -5.073492e-04 5.050275e-04 3.160636e-03
N -6.347566e+00 3.611913e+00 -8.385243e-01 -1.937258e-02 -1.069489e-02 -3.117032e-03
N -3.173547e+00 -1.884205e+00 4.390998e+00 -1.066162e-03 1.700359e-03 2.774975e-03
N -3.173813e+00 -1.884309e+00 -5.857161e+00 -2.011181e-02 -9.075574e-03 -5.138348e-03
N -3.173442e+00 -1.884302e+00 -8.379966e-01 -8.367436e-04 1.541478e-03 3.924925e-03
N -1.655032e+00 9.022370e-01 4.393437e+00 1.336837e-02 -7.805383e-03 8.703227e-03
N -1.654465e+00 9.031919e-01 -5.857225e+00 1.308607e-02 9.964076e-03 1.994679e-03
N -1.654756e+00 9.026237e-01 -8.429830e-01 1.361422e-02 -7.547836e-03 9.308015e-03
N -3.218544e+00 3.611975e+00 4.391383e+00 1.171580e-02 5.971416e-03 5.617197e-03
N -3.218777e+00 3.612346e+00 -5.857001e+00 1.213345e-02 5.984479e-03 5.406953e-03
N -3.218343e+00 3.612019e+00 -8.385116e-01 3.065198e-02 -5.002579e-03 -9.279589e-04
N -4.492155e-02 -1.884458e+00 4.390720e+00 1.137392e-02 7.137406e-03 5.188927e-03
N -4.462710e-02 -1.884385e+00 -5.857131e+00 3.018414e-02 -3.441245e-03 -2.717385e-03
N -4.494058e-02 -1.883769e+00 -8.383154e-01 1.151196e-02 2.888789e-02 -1.307151e-03
N -4.576780e-04 1.805721e+00 1.895268e+00 -1.173552e-02 -7.597876e-03 -2.813636e-02
N -2.691541e-04 1.805641e+00 6.900898e+00 -1.130210e-02 -7.201591e-03 5.253109e-03
N -2.825307e-04 1.805788e+00 -3.349631e+00 -1.139991e-02 -7.310998e-03 5.555296e-03
N 3.173653e+00 -3.691202e+00 1.882257e+00 -1.213566e-02 -5.767286e-03 -2.544371e-02
N 3.173298e+00 -3.690540e+00 6.900465e+00 -1.201530e-02 -5.975423e-03 5.670808e-03
N 3.173295e+00 -3.690201e+00 -3.348575e+00 -1.194649e-02 -5.887702e-03 5.443323e-03
N 1.608868e+00 -9.802144e-01 1.881822e+00 -1.359091e-02 7.829986e-03 -2.281423e-02
N 1.609174e+00 -9.815885e-01 6.900350e+00 -1.342640e-02 7.763264e-03 8.025085e-03
N 1.609316e+00 -9.814056e-01 -3.348519e+00 -1.355756e-02 7.794432e-03 7.945520e-03
N 3.127480e+00 1.805798e+00 1.882432e+00 1.250951e-03 -1.936691e-03 -2.858484e-02
N 3.128470e+00 1.805733e+00 6.900487e+00 9.584538e-04 -1.622644e-03 2.866085e-03
N 3.128577e+00 1.805778e+00 -3.348632e+00 9.873170e-04 -1.659501e-03 2.642944e-03
N 6.301540e+00 -3.691144e+00 1.882264e+00 4.821975e-04 -3.263836e-05 -2.798165e-02
N 6.302091e+00 -3.690465e+00 6.900418e+00 4.886789e-04 -4.547283e-04 3.119153e-03
N 6.302036e+00 -3.690112e+00 -3.348543e+00 5.497105e-04 -1.660421e-04 3.016576e-03
N 4.737638e+00 -9.811351e-01 1.880491e+00 -8.993537e-04 1.352882e-02 -2.521062e-02
N 4.737655e+00 -9.812616e-01 6.900090e+00 -9.808357e-04 1.331002e-02 5.490171e-03
N 4.737631e+00 -9.810913e-01 -3.347792e+00 -7.451374e-04 1.328312e-02 5.480504e-03
N -3.217892e+00 1.805903e+00 1.882355e+00 2.528177e-03 -1.603435e-03 -2.919901e-02
N -3.218742e+00 1.805823e+00 6.900439e+00 2.456132e-03 -1.241319e-03 2.381115e-03
N -3.218923e+00 1.805850e+00 -3.348553e+00 2.540549e-03 -1.460759e-03 2.131787e-03
N -4.425016e-02 -3.688652e+00 1.876274e+00 1.987694e-03 -6.043969e-04 -1.408070e-02
N -4.483235e-02 -3.690550e+00 6.900049e+00 2.042470e-03 -9.787869e-05 2.633677e-03
N -4.488912e-02 -3.690364e+00 -3.347758e+00 1.932073e-03 1.309573e-04 1.966650e-03
N -1.608924e+00 -9.801478e-01 1.881722e+00 5.297928e-04 1.369645e-02 -2.602419e-02
N -1.609172e+00 -9.814117e-01 6.900359e+00 7.193125e-04 1.345675e-02 4.436336e-03
N -1.609416e+00 -9.812254e-01 -3.348027e+00 6.957370e-04 1.374910e-02 2.843766e-02
