108
Energy=-2.725439e+06 Lattice="9.690231e+00 0.000000e+00 0.000000e+00 -4.854862e+00 8.389043e+00 0.000000e+00 -5.548589e-02 -5.002068e-02 1.573638e+01" Stress="2.076624e-03 -1.010038e-03 -1.909927e-03 -1.016230e-03 3.776117e-03 -1.432125e-03 -1.895824e-03 -1.417146e-03 3.198443e-03" Properties=species:S:1:pos:R:3:forces:R:3 Config_type=AlGaN_super3_50_2_8.xyz
Al 1.553024e+00 8.344045e-01 2.473115e+00 -1.061712e-04 2.620719e-03 -2.125462e-03
Al 1.551374e+00 8.623051e-01 7.732391e+00 3.869998e-04 2.423521e-04 -4.361030e-04
Ga 1.608611e+00 9.206266e-01 -2.767772e+00 5.726183e-04 -2.288888e-04 1.317725e-03
Ga -6.350456e-02 3.627355e+00 2.482209e+00 2.747185e-04 4.308122e-04 -1.909873e-04
Ga -5.536381e-02 3.639245e+00 7.732044e+00 2.509910e-04 1.708725e-05 -6.533340e-04
Ga 1.857775e-03 3.708275e+00 -2.782375e+00 6.155120e-05 -6.279105e-04 -5.852947e-04
Ga 3.158586e+00 -1.933989e+00 2.466660e+00 4.960824e-04 -1.044600e-03 7.445983e-06
Ga 3.171115e+00 -1.925232e+00 7.719443e+00 5.342125e-04 -6.590823e-04 -5.132372e-04
Ga 3.228644e+00 -1.866683e+00 -2.756590e+00 2.786103e-04 -6.228317e-04 -4.438847e-04
Ga -4.921008e+00 8.441261e-01 2.485714e+00 4.399687e-04 1.435592e-03 -4.342812e-04
Ga -4.915610e+00 8.607651e-01 7.722488e+00 4.832169e-04 3.411461e-05 -1.111493e-03
Ga -4.844407e+00 9.263084e-01 -2.769059e+00 2.245369e-05 -1.071293e-04 -1.182514e-03
Ga -6.533769e+00 3.629846e+00 2.483717e+00 4.813880e-04 4.878766e-04 -5.587771e-04
Ga -6.523907e+00 3.648394e+00 7.720816e+00 1.564111e-04 -8.887373e-05 -9.877964e-04
Ga -6.458960e+00 3.719106e+00 -2.769764e+00 -3.182424e-04 -7.785434e-04 -1.341716e-03
Ga -3.288583e+00 -1.951522e+00 2.479637e+00 6.291717e-04 -2.064956e-04 -4.406770e-04
Ga -3.282300e+00 -1.931385e+00 7.725837e+00 2.161262e-04 -5.198634e-04 -7.671459e-04
Ga -3.221240e+00 -1.869121e+00 -2.770904e+00 -6.375149e-05 -9.277208e-04 -1.212249e-03
Ga -1.669518e+00 8.454181e-01 2.482064e+00 2.551702e-04 8.411975e-04 -1.476022e-04
Ga -1.654408e+00 8.660127e-01 7.731775e+00 -3.200402e-04 -6.070929e-04 -6.628786e-04
Ga -1.600005e+00 9.335428e-01 -2.783184e+00 -2.779130e-04 -7.518957e-04 -7.895754e-04
Ga -3.295604e+00 3.641368e+00 2.480233e+00 -1.429743e-04 -1.488357e-04 -1.036027e-04
Ga -3.289282e+00 3.661198e+00 7.725446e+00 -6.500566e-04 -8.937949e-04 -6.503067e-04
Ga -3.227995e+00 3.723412e+00 -2.769682e+00 -7.817434e-04 -1.383710e-03 -9.876373e-04
Ga -4.204152e-02 -1.928369e+00 2.455383e+00 8.059296e-04 -5.026905e-04 2.010762e-03
Ga -4.538334e-02 -1.921433e+00 7.718256e+00 -4.872289e-04 -1.306291e-03 -4.577702e-04
Ga 1.784632e-02 -1.863231e+00 -2.762236e+00 -6.652823e-04 -1.330753e-03 -1.849273e-03
Ga -4.527207e-02 1.773602e+00 5.097587e+00 -5.699284e-04 1.008659e-03 -1.195468e-04
Al 8.831168e-03 1.842283e+00 -5.405354e+00 2.342996e-04 7.524483e-04 -2.142390e-04
Ga 1.538862e-02 1.856078e+00 -1.362748e-01 -1.132875e-04 -2.841856e-03 3.043060e-03
Ga 3.177365e+00 -3.806107e+00 5.102289e+00 1.853734e-04 2.078818e-04 -1.008846e-03
Ga 3.242741e+00 -3.751112e+00 -5.389060e+00 3.350939e-04 7.432309e-04 -9.652526e-04
Ga 3.241942e+00 -3.718910e+00 -1.536782e-01 -1.149755e-03 -2.530620e-03 3.319403e-03
Ga 1.560643e+00 -9.928046e-01 5.100176e+00 -4.268997e-04 -8.210156e-04 2.396729e-04
Ga 1.615550e+00 -9.302946e-01 -5.405747e+00 4.029244e-06 -1.912670e-04 -3.436568e-04
Al 1.611934e+00 -9.385017e-01 -1.371668e-01 2.812774e-03 3.121357e-03 2.287721e-04
Ga 3.152362e+00 1.774792e+00 5.101778e+00 5.742762e-04 7.163692e-04 -3.731323e-04
Ga 3.210076e+00 1.843569e+00 -5.402505e+00 2.224700e-04 4.714312e-04 -2.522791e-04
Ga 3.229871e+00 1.855408e+00 -1.410720e-01 -4.434282e-03 -3.746393e-03 4.094814e-03
Ga 6.405099e+00 -3.805937e+00 5.107141e+00 -2.918716e-05 4.680115e-05 -8.908328e-04
Ga 6.462773e+00 -3.751506e+00 -5.392635e+00 1.810537e-05 2.623424e-04 -1.085775e-03
Ga 6.475923e+00 -3.724581e+00 -1.527917e-01 -2.421416e-03 -3.052538e-03 3.521297e-03
Ga 4.788503e+00 -1.009385e+00 5.099607e+00 1.388735e-04 -7.416890e-04 -6.183665e-04
Ga 4.847838e+00 -9.460877e-01 -5.387548e+00 -3.032628e-04 -6.398420e-04 -6.328902e-04
Ga 4.846476e+00 -9.258905e-01 -1.503802e-01 -2.737968e-03 -3.784175e-03 3.691160e-03
Ga -3.288932e+00 1.786004e+00 5.106425e+00 -2.539627e-04 3.223315e-04 -5.764767e-04
Ga -3.220054e+00 1.848982e+00 -5.395598e+00 -2.481378e-04 2.903588e-04 -6.841145e-04
Ga -3.218129e+00 1.867997e+00 -1.520247e-01 -2.755940e-03 -2.751873e-03 3.314457e-03
Ga -5.159265e-02 -3.801465e+00 5.095055e+00 -2.588447e-04 1.677468e-04 -9.535527e-04
Ga 7.720075e-03 -3.739409e+00 -5.389725e+00 -2.049106e-04 2.450478e-04 -9.110754e-04
Ga 2.106296e-02 -3.713134e+00 -1.564237e-01 -2.596477e-03 -4.520980e-03 4.540922e-03
Ga -1.667284e+00 -1.005796e+00 5.099273e+00 -4.497202e-04 -9.918055e-04 -3.374048e-04
Ga -1.601754e+00 -9.361719e-01 -5.391181e+00 -4.494206e-04 -4.237363e-04 -7.933274e-04
Ga -1.588193e+00 -9.239185e-01 -1.609019e-01 -3.833219e-03 -2.727284e-03 4.390964e-03
N 1.553725e+00 8.472143e-01 4.387605e+00 4.928787e-04 3.759213e-04 2.256321e-03
N 1.568209e+00 9.415751e-01 -6.077368e+00 9.529774e-04 -9.549050e-05 1.055165e-03
N 1.615677e+00 8.772216e-01 -7.708717e-01 2.865153e-04 2.675898e-04 -2.326382e-03
N -6.363199e-02 3.645488e+00 4.464527e+00 4.376829e-04 -5.099809e-05 8.680421e-04
N -2.898929e-03 3.659286e+00 -6.013411e+00 1.130850e-04 5.441738e-04 2.949993e-04
N 4.969493e-03 3.723334e+00 -7.941268e-01 -5.789620e-04 -8.635173e-04 1.982681e-04
N 3.167615e+00 -1.937900e+00 4.454531e+00 2.164595e-04 -2.796040e-04 7.265583e-04
N 3.232747e+00 -1.878619e+00 -6.035412e+00 3.445962e-04 -4.177707e-04 8.608594e-04
N 3.187618e+00 -1.835527e+00 -7.633461e-01 1.074490e-03 -9.017319e-04 -4.986792e-04
N -4.908791e+00 8.538747e-01 4.468025e+00 3.127163e-04 1.261459e-03 6.349668e-04
N -4.847785e+00 9.163820e-01 -6.031833e+00 1.852040e-04 8.267271e-04 5.073745e-04
N -4.839483e+00 9.358560e-01 -7.876230e-01 -1.873712e-04 1.948509e-04 3.266660e-04
N -6.524599e+00 3.646650e+00 4.466274e+00 2.155897e-04 -4.856380e-05 1.065770e-03
N -6.460798e+00 3.713517e+00 -6.034817e+00 -7.506183e-05 -2.949811e-04 7.226160e-04
N -6.452552e+00 3.727831e+00 -7.874070e-01 -4.840755e-04 -8.956028e-04 7.346334e-04
N -3.284574e+00 -1.941394e+00 4.459738e+00 2.505589e-04 -1.215733e-04 7.946652e-04
N -3.223827e+00 -1.876045e+00 -6.029306e+00 1.114866e-04 -3.798895e-04 9.466514e-04
N -3.217474e+00 -1.857358e+00 -7.910341e-01 -4.906008e-04 -8.462752e-04 5.623206e-04
N -1.673583e+00 8.552911e-01 4.463737e+00 1.395350e-04 7.803659e-04 4.344246e-04
N -1.567167e+00 9.443438e-01 -6.014645e+00 -9.114890e-04 -3.470497e-04 6.343692e-05
N -1.600043e+00 9.404593e-01 -7.975356e-01 -9.300736e-04 -4.508972e-04 -1.043973e-04
N -3.291369e+00 3.651331e+00 4.460470e+00 -2.484989e-04 -5.661992e-04 8.313469e-04
N -3.231821e+00 3.717309e+00 -6.031705e+00 -3.506033e-04 -7.044231e-04 6.877068e-04
N -3.223472e+00 3.733142e+00 -7.917151e-01 -1.108480e-03 -1.349273e-03 2.950524e-04
N -4.879205e-02 -1.932335e+00 4.448391e+00 2.960714e-04 -6.124107e-04 5.272384e-04
N 5.903659e-03 -1.875075e+00 -6.038741e+00 -1.044883e-04 -8.228346e-04 7.972679e-04
N 6.084064e-02 -1.832790e+00 -7.755980e-01 -3.209776e-03 -2.581806e-03 1.077741e-03
N -1.787014e-02 1.740772e+00 1.864405e+00 8.373754e-04 5.224299e-03 -3.464767e-03
N -8.735104e-03 1.759550e+00 7.089737e+00 -1.839109e-04 1.409204e-03 -1.542404e-04
N 1.018756e-02 1.847878e+00 -3.478508e+00 2.134498e-04 1.278572e-03 1.067440e-03
N 3.172367e+00 -3.819154e+00 1.842189e+00 2.995165e-03 4.214931e-03 -3.243322e-03
N 3.182421e+00 -3.804206e+00 7.086242e+00 7.465931e-04 1.231605e-03 4.670246e-04
N 3.239786e+00 -3.737234e+00 -3.405614e+00 9.209661e-04 1.310997e-03 4.478644e-04
N 1.569028e+00 -9.483269e-01 1.787865e+00 -1.464273e-03 -4.057135e-03 1.111962e-03
N 1.562308e+00 -9.458809e-01 7.096036e+00 3.580751e-04 -2.856682e-04 -1.565553e-04
N 1.622263e+00 -9.392451e-01 -3.423790e+00 5.246573e-04 7.600512e-04 2.055043e-06
N 3.115175e+00 1.744280e+00 1.867854e+00 5.470093e-03 5.371841e-03 -5.645724e-03
N 3.119683e+00 1.760744e+00 7.098178e+00 5.024467e-04 7.549678e-04 1.076732e-04
N 3.225697e+00 1.849719e+00 -3.414825e+00 -1.068179e-04 6.489540e-04 2.655553e-04
N 6.399689e+00 -3.820737e+00 1.841536e+00 2.678292e-03 3.414763e-03 -3.540923e-03
N 6.406308e+00 -3.801337e+00 7.087977e+00 -7.468543e-05 2.389733e-04 8.284647e-04
N 6.470199e+00 -3.739075e+00 -3.412127e+00 6.555771e-05 6.806435e-04 8.373888e-04
N 4.786307e+00 -1.019336e+00 1.845282e+00 2.388716e-03 2.451798e-03 -4.219629e-03
N 4.792509e+00 -1.004052e+00 7.078647e+00 -4.414069e-04 -1.677470e-04 7.673052e-04
N 4.848821e+00 -9.421478e-01 -3.404622e+00 -3.252423e-04 -4.621479e-06 8.040075e-04
N -3.294982e+00 1.771100e+00 1.842807e+00 2.111493e-03 3.362008e-03 -3.029005e-03
N -3.284160e+00 1.788451e+00 7.089500e+00 -5.158333e-04 6.132429e-04 1.050223e-03
N -3.225623e+00 1.854084e+00 -3.414395e+00 -4.982917e-04 6.134555e-04 1.030473e-03
N -5.806889e-02 -3.817030e+00 1.843013e+00 2.089799e-03 4.550622e-03 -3.990236e-03
N -5.032657e-02 -3.797892e+00 7.077822e+00 -3.011086e-04 3.921968e-04 7.396473e-04
N 1.037329e-02 -3.733288e+00 -3.407502e+00 -2.035890e-04 5.124646e-04 1.210334e-03
N -1.675360e+00 -1.016119e+00 1.835574e+00 2.841345e-03 1.862079e-03 -4.020410e-03
N -1.666101e+00 -9.994546e-01 7.081874e+00 -5.657534e-04 -1.296292e-04 7.501214e-04
N -1.601151e+00 -9.403624e-01 -3.408814e+00 -6.343692e-04 1.632550e-04 1.310552e-03
