108
Energy=-5.282153e+05 Lattice="9.408713e+00 0.000000e+00 0.000000e+00 -4.709993e+00 8.144364e+00 0.000000e+00 3.902707e-03 1.797262e-02 1.508015e+01" Stress="-1.330016e-04 -3.102490e-04 1.386306e-04 -3.101958e-04 -6.226438e-04 8.314020e-04 1.384821e-04 8.334262e-04 -4.896080e-04" Properties=species:S:1:pos:R:3:forces:R:3 Config_type=AlGaN_super3_2_2_10.xyz
Al 1.547975e+00 8.687854e-01 2.365108e+00 1.062394e-05 -8.852765e-05 2.748582e-04
Al 1.545024e+00 8.745862e-01 7.387798e+00 2.916735e-04 -3.542449e-05 2.155256e-05
Al 1.542623e+00 8.606043e-01 -2.665150e+00 3.033604e-04 4.609465e-05 -1.804357e-04
Al -2.248315e-02 3.583198e+00 2.365325e+00 3.253799e-04 -2.440862e-05 -4.115428e-06
Al -2.196738e-02 3.587602e+00 7.388026e+00 1.021671e-04 1.624623e-06 6.286669e-05
Al -2.662872e-02 3.576987e+00 -2.664584e+00 7.989354e-05 -5.715599e-05 1.024988e-04
Al 3.118711e+00 -1.848154e+00 2.366287e+00 -1.776643e-05 6.314621e-05 -1.023707e-04
Al 3.119550e+00 -1.839039e+00 7.387859e+00 1.266216e-04 -1.046086e-04 2.352279e-05
Al 3.113888e+00 -1.853704e+00 -2.664903e+00 9.651229e-05 -1.532550e-04 -2.489763e-04
Al -4.726560e+00 8.692007e-01 2.365411e+00 3.514307e-05 -1.705131e-04 1.062318e-04
Al -4.726195e+00 8.736352e-01 7.388046e+00 2.107298e-04 -1.072902e-05 -4.702830e-05
Al -4.730550e+00 8.622204e-01 -2.664836e+00 2.343017e-04 1.453501e-04 -1.282781e-04
Al -6.302205e+00 3.576566e+00 2.378747e+00 -2.075484e-04 5.215651e-04 1.351856e-04
Al -6.294858e+00 3.590836e+00 7.386686e+00 -6.450636e-05 -1.002129e-04 1.012016e-05
Al -6.305003e+00 3.574382e+00 -2.675220e+00 1.434492e-04 -4.502496e-05 3.242300e-04
Al -3.153159e+00 -1.845873e+00 2.365794e+00 1.985470e-04 -2.818494e-04 -1.947953e-04
Al -3.160494e+00 -1.841656e+00 7.378016e+00 1.118383e-04 -9.245597e-05 -6.981830e-05
Al -3.165562e+00 -1.856927e+00 -2.650328e+00 1.638968e-04 -9.860831e-05 -2.036072e-04
Al -1.589998e+00 8.698334e-01 2.366017e+00 4.616088e-04 -2.998429e-04 -7.529677e-05
Al -1.589924e+00 8.821416e-01 7.378208e+00 2.073589e-04 -1.573689e-04 1.764254e-05
Al -1.595857e+00 8.702428e-01 -2.650103e+00 2.763772e-04 -8.229644e-05 5.048401e-06
Al -3.150519e+00 3.579056e+00 2.378221e+00 -1.116578e-03 8.942267e-04 8.063927e-05
Al -3.160945e+00 3.590802e+00 7.386824e+00 1.513872e-04 -2.730078e-04 1.345841e-04
Al -3.158470e+00 3.574570e+00 -2.674924e+00 2.809799e-05 -1.532146e-04 6.948702e-05
Al -1.885152e-02 -1.834812e+00 2.379062e+00 3.738153e-05 -3.280798e-04 1.331870e-04
Al -1.374568e-02 -1.842175e+00 7.376530e+00 1.055041e-04 -1.376193e-04 5.359948e-05
Al -1.596971e-02 -1.850095e+00 -2.659861e+00 1.449596e-04 -2.732407e-04 -3.904276e-06
Al -2.050825e-02 1.777079e+00 4.872766e+00 8.113062e-05 1.712630e-04 1.268424e-04
Al -2.232366e-02 1.770233e+00 -5.176205e+00 6.446900e-07 2.697314e-04 7.727155e-05
Al -2.373572e-02 1.770189e+00 -1.482424e-01 -3.435241e-04 4.378177e-04 -3.702727e-04
Al 3.121007e+00 -3.652982e+00 4.880909e+00 4.624481e-05 2.032049e-04 5.653976e-05
Al 3.116101e+00 -3.665811e+00 -5.182843e+00 1.158129e-05 2.485424e-04 -6.498940e-05
Al 3.123118e+00 -3.659518e+00 -1.489616e-01 3.554696e-04 -8.849288e-06 -5.521995e-04
Al 1.552745e+00 -9.361389e-01 4.877535e+00 -1.084585e-04 1.157242e-04 -4.626621e-05
Al 1.555469e+00 -9.511651e-01 -5.180493e+00 -1.612840e-04 1.740624e-04 3.626324e-05
Al 1.551866e+00 -9.366872e-01 -1.468046e-01 -3.797698e-06 -1.851841e-04 4.743604e-04
Al 3.113631e+00 1.775258e+00 4.881768e+00 -8.552956e-05 1.129581e-05 1.140905e-04
Al 3.109614e+00 1.762748e+00 -5.182724e+00 -4.550222e-05 3.943505e-05 -7.508564e-06
Al 3.105013e+00 1.763340e+00 -1.489167e-01 3.088358e-04 2.382769e-04 -9.529902e-04
Al 6.253026e+00 -3.653398e+00 4.877691e+00 8.265080e-05 -2.264795e-05 -8.310578e-05
Al 6.245089e+00 -3.671528e+00 -5.180591e+00 3.226288e-05 6.250738e-05 3.578418e-05
Al 6.241553e+00 -3.660488e+00 -1.443211e-01 3.849629e-04 -9.900466e-05 -7.030858e-04
Al 4.684855e+00 -9.367161e-01 4.873417e+00 -1.767901e-04 -1.044862e-04 -1.501763e-04
Al 4.673448e+00 -9.508133e-01 -5.175645e+00 -1.341236e-04 9.195219e-07 -6.699409e-05
Al 4.679416e+00 -9.431963e-01 -1.469621e-01 2.199153e-04 -2.420356e-04 -5.024956e-04
Al -3.159562e+00 1.776913e+00 4.877715e+00 -1.703819e-04 -2.237122e-05 6.086508e-05
Al -3.167426e+00 1.770570e+00 -5.180487e+00 -8.304407e-05 6.888239e-05 5.008832e-05
Al -3.160245e+00 1.765609e+00 -1.436733e-01 3.097472e-04 -1.753490e-04 -1.098956e-03
Al -1.796336e-02 -3.653067e+00 4.871474e+00 -1.048170e-04 1.018512e-04 3.372226e-04
Al -1.782482e-02 -3.671664e+00 -5.177475e+00 -7.098534e-05 9.661766e-05 -8.249315e-06
Ga -2.104471e-02 -3.661031e+00 -1.402255e-01 -3.346229e-04 2.184979e-04 -8.246923e-04
Al -1.588026e+00 -9.350549e-01 4.880310e+00 -2.858974e-04 -1.125948e-04 -1.776179e-04
Ga -1.591738e+00 -9.498951e-01 -5.175347e+00 -3.938924e-04 1.215593e-04 7.992742e-05
Al -1.594989e+00 -9.366185e-01 -1.481293e-01 -6.603899e-05 -3.983365e-05 -7.587504e-05
N 1.547745e+00 8.723374e-01 4.280352e+00 1.665158e-04 7.413280e-05 -2.193765e-05
N 1.539838e+00 8.588652e-01 -5.774635e+00 3.037548e-04 2.521014e-05 -3.768420e-05
N 1.541649e+00 8.650044e-01 -7.479460e-01 3.382499e-04 -1.556605e-05 2.293979e-04
N -2.350817e-02 3.587447e+00 4.280038e+00 3.200451e-05 -1.210087e-04 3.592789e-05
N -2.711244e-02 3.572396e+00 -5.776250e+00 5.143441e-05 -7.564389e-05 -1.142189e-05
N -2.663954e-02 3.579564e+00 -7.465018e-01 2.483325e-05 -1.084138e-04 -1.137272e-04
N 3.117837e+00 -1.844393e+00 4.280665e+00 1.600737e-04 -1.272349e-04 1.261959e-04
N 3.114869e+00 -1.855663e+00 -5.776402e+00 1.726522e-04 -1.147417e-04 6.068148e-05
N 3.112981e+00 -1.849747e+00 -7.462344e-01 2.329367e-04 -5.342939e-05 2.703124e-04
N -4.727861e+00 8.732308e-01 4.280545e+00 2.261333e-04 7.671591e-05 -6.794345e-05
N -4.730725e+00 8.575346e-01 -5.774575e+00 1.915848e-04 7.678354e-05 -1.276790e-05
N -4.731113e+00 8.663415e-01 -7.452485e-01 2.817113e-04 7.643257e-05 1.209411e-04
N -6.299863e+00 3.583080e+00 4.290126e+00 1.181654e-04 -2.078494e-05 -1.243016e-04
N -6.299703e+00 3.575169e+00 -5.773569e+00 6.034574e-06 -5.469857e-05 2.798185e-06
N -6.342211e+00 3.556724e+00 -7.637571e-01 8.132074e-05 -1.697208e-04 -4.838134e-04
N -3.154515e+00 -1.842603e+00 4.282027e+00 6.681838e-05 -6.657549e-05 1.861132e-04
N -3.202448e+00 -1.878677e+00 -5.794277e+00 1.549436e-04 -5.254653e-05 3.019003e-05
N -3.162503e+00 -1.851598e+00 -7.357346e-01 7.116992e-05 7.371513e-05 1.959862e-04
N -1.591427e+00 8.735458e-01 4.282102e+00 1.855791e-04 -1.006865e-04 4.269016e-05
N -1.594436e+00 9.100632e-01 -5.794024e+00 1.627029e-04 -3.321123e-04 -7.237863e-05
N -1.594974e+00 8.704184e-01 -7.365793e-01 1.462978e-04 -6.778118e-06 -7.958137e-05
N -3.154568e+00 3.586114e+00 4.289933e+00 -1.542642e-04 -1.974732e-04 -3.707620e-04
N -3.164047e+00 3.575425e+00 -5.775082e+00 -1.604483e-05 -2.581090e-04 -5.640780e-06
N -3.121503e+00 3.556950e+00 -7.644729e-01 -4.782010e-05 -2.950340e-04 4.059918e-05
N -1.922985e-02 -1.835892e+00 4.291561e+00 1.557555e-04 -5.563741e-04 1.125988e-04
N 1.871969e-02 -1.878700e+00 -5.793308e+00 9.340990e-05 -2.964214e-04 -3.583252e-05
N -1.918972e-02 -1.801872e+00 -7.538596e-01 7.918544e-05 -2.723792e-04 -2.829802e-04
N -2.060530e-02 1.772698e+00 1.769741e+00 8.738254e-05 1.789781e-04 5.406873e-04
N -1.847620e-02 1.779565e+00 6.786400e+00 -1.408431e-04 2.742670e-04 9.036880e-06
N -2.594012e-02 1.764894e+00 -3.257138e+00 -1.792762e-04 3.000492e-04 -1.788526e-04
N 3.120413e+00 -3.658664e+00 1.768355e+00 -5.730215e-04 4.416640e-04 3.955076e-04
N 3.120300e+00 -3.651015e+00 6.796667e+00 -6.243103e-05 2.320651e-04 -8.731711e-05
N 3.117961e+00 -3.662815e+00 -3.266132e+00 -5.163722e-05 2.756505e-04 7.146059e-05
N 1.551372e+00 -9.423967e-01 1.773397e+00 -7.922425e-05 2.464215e-04 -4.720299e-04
N 1.554193e+00 -9.342136e-01 6.790400e+00 -2.310449e-04 1.214422e-04 -7.361449e-05
N 1.548830e+00 -9.489389e-01 -3.264524e+00 -2.303531e-04 2.466702e-04 6.513488e-05
N 3.115048e+00 1.772209e+00 1.766922e+00 -1.265903e-04 2.042373e-04 7.427146e-04
N 3.114526e+00 1.778442e+00 6.797256e+00 -1.461259e-04 6.871505e-05 4.580723e-05
N 3.110507e+00 1.763297e+00 -3.266325e+00 -1.430366e-04 5.237973e-05 2.033594e-05
N 6.257090e+00 -3.658285e+00 1.770873e+00 -6.807610e-04 1.940195e-04 9.190925e-04
N 6.254588e+00 -3.652664e+00 6.790413e+00 -4.778233e-05 -4.689372e-06 -1.082136e-05
N 6.248377e+00 -3.661071e+00 -3.264530e+00 -9.438717e-05 8.433497e-05 -5.503139e-05
N 4.686726e+00 -9.420652e-01 1.770427e+00 -5.842041e-04 6.051055e-05 3.845668e-04
N 4.684126e+00 -9.336303e-01 6.786300e+00 -2.730825e-04 -3.956517e-05 7.966614e-05
N 4.682625e+00 -9.489986e-01 -3.257653e+00 -2.557314e-04 5.088587e-05 1.534339e-04
N -3.157148e+00 1.772654e+00 1.771446e+00 -1.005142e-03 7.046085e-04 6.418986e-04
N -3.161094e+00 1.780255e+00 6.790455e+00 -2.007625e-04 1.522057e-04 -3.055885e-05
N -3.162154e+00 1.763426e+00 -3.264555e+00 -2.291174e-04 1.356980e-04 6.238627e-05
N -2.199045e-02 -3.652861e+00 1.832275e+00 1.884810e-03 -1.549571e-03 1.539836e-03
N -1.782779e-02 -3.652668e+00 6.787416e+00 -8.206053e-05 1.062032e-04 -9.935591e-05
N -2.150530e-02 -3.662360e+00 -3.257272e+00 -9.900495e-05 1.009043e-04 -2.719479e-04
N -1.585106e+00 -9.400312e-01 1.772302e+00 -8.257652e-04 -8.081026e-05 -2.015964e-04
N -1.587078e+00 -9.342216e-01 6.796285e+00 -2.961873e-04 -8.935189e-06 8.890484e-07
N -1.593137e+00 -9.471687e-01 -3.202268e+00 -3.249295e-04 7.200730e-05 1.460346e-05
