108
Energy=-1.718378e+06 Lattice="9.554550e+00 0.000000e+00 0.000000e+00 -4.791796e+00 8.273741e+00 0.000000e+00 -2.349579e-02 -5.776955e-02 1.541314e+01" Stress="-3.240666e-04 -3.969141e-04 -1.059146e-03 -4.023949e-04 -4.816622e-04 -2.699999e-03 -1.051804e-03 -2.695868e-03 -2.562234e-03" Properties=species:S:1:pos:R:3:forces:R:3 Config_type=AlGaN_super3_28_0_7.xyz
Al 1.563964e+00 8.672938e-01 2.448413e+00 3.167664e-04 9.958335e-04 2.009550e-04
Al 1.544684e+00 8.464847e-01 7.549745e+00 2.253771e-06 -6.050636e-04 -1.892381e-04
Al 1.569745e+00 8.871455e-01 -2.732111e+00 8.122364e-04 6.773628e-04 -1.990015e-04
Al -2.317431e-02 3.639041e+00 2.435015e+00 -3.513090e-04 -3.395765e-04 -4.254744e-04
Al -4.006081e-02 3.601698e+00 7.553801e+00 -3.842740e-05 2.453172e-04 1.434087e-03
Ga -1.764945e-02 3.641483e+00 -2.725215e+00 3.400205e-04 5.919040e-04 1.431969e-03
Al 3.165277e+00 -1.884073e+00 2.471532e+00 3.022902e-04 -4.512233e-04 8.633506e-05
Ga 3.151486e+00 -1.896716e+00 7.530032e+00 2.428269e-05 4.980068e-04 6.815572e-04
Al 3.168194e+00 -1.863002e+00 -2.743751e+00 9.726532e-04 -3.136855e-04 3.904004e-04
Ga -4.815306e+00 8.690343e-01 2.425254e+00 9.799358e-04 8.881204e-04 -1.710458e-04
Al -4.810919e+00 8.401975e-01 7.582756e+00 2.633122e-04 1.546806e-04 -3.590483e-04
Ga -4.792095e+00 8.995318e-01 -2.741591e+00 1.079360e-03 -1.328059e-05 1.167370e-03
Ga -6.421832e+00 3.631214e+00 2.448226e+00 6.949850e-04 4.103507e-04 5.736393e-04
Ga -6.417531e+00 3.614686e+00 7.559599e+00 -2.124137e-04 -3.701865e-04 5.351530e-04
Al -6.397296e+00 3.650509e+00 -2.747701e+00 4.164697e-04 7.262040e-04 7.657565e-04
Ga -3.217577e+00 -1.898066e+00 2.452804e+00 9.603040e-04 -4.821841e-05 1.346713e-03
Ga -3.212237e+00 -1.898125e+00 7.559554e+00 2.088612e-04 3.047532e-04 7.636306e-04
Ga -3.196872e+00 -1.872448e+00 -2.755442e+00 2.006551e-04 1.189619e-04 5.400255e-04
Ga -1.618867e+00 8.867350e-01 2.436830e+00 1.312687e-03 5.561392e-04 1.709361e-03
Al -1.624165e+00 8.450392e-01 7.569401e+00 9.364774e-04 -1.211069e-03 -5.164283e-04
Al -1.616532e+00 9.020318e-01 -2.748653e+00 8.555925e-05 5.769385e-05 6.453595e-04
Ga -3.205597e+00 3.640859e+00 2.440079e+00 8.514414e-04 -6.936158e-04 1.726131e-03
Ga -3.227860e+00 3.609187e+00 7.565113e+00 1.002984e-03 -4.823848e-05 1.914192e-04
Al -3.211746e+00 3.641078e+00 -2.754913e+00 9.440307e-05 -4.339021e-04 -2.397398e-04
Ga -7.492628e-03 -1.870438e+00 2.457492e+00 7.414996e-04 -4.474442e-04 3.019322e-04
Al -3.425440e-02 -1.914862e+00 7.556019e+00 1.524563e-03 9.394937e-03 3.221911e-04
Ga -5.866896e-03 -1.860659e+00 -2.748846e+00 3.251942e-04 -6.713757e-04 2.101322e-04
Ga -3.358738e-02 1.782089e+00 5.008777e+00 2.125415e-04 1.243699e-03 7.789250e-04
Ga -2.616951e-02 1.813282e+00 -5.306016e+00 -6.060761e-04 7.282825e-04 1.185174e-03
Ga -3.094849e-02 1.789068e+00 -1.496636e-01 5.010555e-04 2.961265e-03 1.929050e-03
Al 3.170916e+00 -3.727683e+00 4.990622e+00 9.811767e-05 8.665145e-04 2.390731e-04
Ga 3.182324e+00 -3.694984e+00 -5.287067e+00 -3.377333e-04 -1.108135e-04 6.836948e-04
Ga 3.164227e+00 -3.721525e+00 -1.556974e-01 1.827117e-03 1.176266e-03 1.975544e-03
Al 1.563180e+00 -9.894348e-01 5.000613e+00 -3.433154e-04 2.133727e-04 1.319715e-03
Ga 1.581152e+00 -9.440389e-01 -5.301192e+00 -1.262265e-03 2.774278e-04 4.703695e-04
Ga 1.587605e+00 -9.627755e-01 -1.432649e-01 4.028611e-04 1.579170e-03 1.387424e-03
Ga 3.148235e+00 1.769984e+00 5.017453e+00 -4.091851e-04 7.106467e-04 1.582064e-04
Ga 3.178449e+00 1.823413e+00 -5.295806e+00 -1.007149e-03 -1.457609e-04 6.492158e-04
Ga 3.145387e+00 1.809380e+00 -1.661516e-01 8.396318e-04 7.809968e-05 1.711871e-03
Al 6.332472e+00 -3.726354e+00 5.003800e+00 9.652080e-05 8.511605e-05 8.573934e-04
Al 6.369522e+00 -3.685971e+00 -5.300726e+00 -8.852749e-04 -7.506745e-05 3.181379e-04
Al 6.358168e+00 -3.718218e+00 -1.516823e-01 -8.806493e-04 -1.937305e-03 2.053859e-03
Al 4.749340e+00 -9.877288e-01 5.002685e+00 -4.629245e-04 -9.555012e-04 1.309721e-04
Al 4.780808e+00 -9.371604e-01 -5.295270e+00 -2.766250e-04 -7.123270e-04 3.397117e-04
Ga 4.759877e+00 -9.767877e-01 -1.536142e-01 -1.447519e-03 2.118811e-03 2.289129e-03
Ga -3.224934e+00 1.774067e+00 5.027262e+00 -1.557586e-04 1.217644e-03 1.124838e-03
Al -3.201511e+00 1.798845e+00 -5.313927e+00 3.495424e-04 4.240930e-03 3.659174e-03
Al -3.204084e+00 1.808915e+00 -1.791896e-01 -1.868040e-03 -1.331884e-03 1.923772e-03
Al -2.622560e-02 -3.713589e+00 5.013192e+00 2.688999e-04 -6.348376e-05 -1.162950e-03
Al -1.806402e-02 -3.691838e+00 -5.286029e+00 5.961919e-04 4.357880e-05 7.491954e-04
Ga -2.318129e-02 -3.733962e+00 -1.811910e-01 -3.035417e-04 8.593042e-04 2.643189e-03
Al -1.615148e+00 -9.906253e-01 5.026164e+00 -7.076042e-04 -3.721861e-04 5.867986e-04
Al -1.612529e+00 -9.365623e-01 -5.306978e+00 -4.076972e-05 6.738363e-05 -7.609965e-04
Ga -1.625428e+00 -9.542994e-01 -1.688879e-01 1.416669e-04 1.131648e-03 2.454162e-03
N 1.554430e+00 8.134079e-01 4.361941e+00 7.704572e-04 1.127408e-04 -3.684095e-04
N 1.574293e+00 8.980394e-01 -5.963447e+00 1.299335e-03 5.269501e-04 6.707573e-05
N 1.558938e+00 8.730411e-01 -8.269162e-01 6.553377e-04 -6.279188e-05 9.367770e-04
N -3.556844e-02 3.664309e+00 4.360075e+00 4.088518e-04 1.117996e-04 -6.602930e-04
N 1.799998e-02 3.684001e+00 -5.938573e+00 7.066401e-04 -1.651989e-05 -1.117593e-03
N 1.058031e-02 3.658128e+00 -7.475672e-01 3.328766e-04 -2.180789e-04 -1.364119e-03
N 3.156328e+00 -1.895237e+00 4.402988e+00 3.999202e-04 -1.306001e-04 -5.207480e-04
N 3.216629e+00 -1.832142e+00 -5.909871e+00 8.626506e-04 -4.979342e-04 -5.638421e-04
N 3.165320e+00 -1.880282e+00 -8.361181e-01 5.542276e-04 -4.817406e-04 5.183920e-04
N -4.810985e+00 8.159303e-01 4.396755e+00 5.227097e-04 3.641021e-04 -1.279652e-03
N -4.749844e+00 8.720040e-01 -5.908643e+00 -1.989745e-03 -3.216148e-04 -1.585408e-03
N -4.766485e+00 8.999792e-01 -7.569168e-01 1.041762e-03 3.896930e-05 -7.885443e-04
N -6.411161e+00 3.667478e+00 4.434395e+00 1.461866e-04 7.663694e-05 -7.885272e-05
N -6.390031e+00 3.709294e+00 -5.878201e+00 3.140854e-04 -1.332012e-04 -9.332155e-04
N -6.447499e+00 3.665337e+00 -8.229570e-01 -1.038415e-04 8.696283e-06 -7.751021e-04
N -3.209002e+00 -1.896883e+00 4.447829e+00 4.306616e-04 5.351409e-05 -5.516273e-04
N -3.196298e+00 -1.856351e+00 -5.861406e+00 3.811134e-04 -1.628235e-04 -5.992989e-04
N -3.205223e+00 -1.930020e+00 -7.732799e-01 2.572336e-04 1.744887e-04 -8.560953e-04
N -1.633564e+00 8.154661e-01 4.412291e+00 6.365754e-04 -5.528916e-04 -9.117714e-04
N -1.655181e+00 8.783170e-01 -5.929432e+00 2.423436e-03 -1.842081e-03 -9.924028e-04
N -1.662747e+00 9.076154e-01 -8.215942e-01 7.469237e-04 -9.365755e-04 -5.417210e-04
N -3.225527e+00 3.665627e+00 4.429957e+00 -3.970190e-04 -6.864947e-04 -3.197308e-04
N -3.248321e+00 3.640814e+00 -5.869500e+00 -8.355404e-04 -9.082881e-04 -5.580892e-04
N -3.215958e+00 3.593445e+00 -8.288088e-01 2.515883e-04 -7.125887e-05 3.825149e-04
N -2.943118e-02 -1.890281e+00 4.441382e+00 1.819096e-04 -7.077179e-04 -8.466444e-04
N -5.387292e-02 -1.878889e+00 -5.923444e+00 7.351154e-04 -1.556754e-03 -6.905437e-04
N -1.690704e-02 -1.872266e+00 -7.794234e-01 -1.763805e-04 -1.095002e-03 -3.960957e-04
N 1.881938e-02 1.819882e+00 1.855739e+00 -1.341562e-03 -1.543715e-03 -2.715735e-03
N -3.892703e-02 1.773539e+00 7.000281e+00 -5.790359e-04 2.710362e-04 -7.196036e-04
N -1.761340e-02 1.762486e+00 -3.320769e+00 -4.146712e-04 6.545386e-05 -9.602700e-04
N 3.214969e+00 -3.689852e+00 1.852145e+00 -2.450055e-03 -4.675701e-04 -2.385600e-03
N 3.200300e+00 -3.770694e+00 6.910032e+00 -2.406623e-04 -1.521083e-04 -1.123404e-03
N 3.141401e+00 -3.682874e+00 -3.309050e+00 -6.592482e-04 -1.302352e-04 -3.865292e-04
N 1.626791e+00 -9.402094e-01 1.855123e+00 -1.534151e-03 -1.129289e-03 -1.784200e-03
N 1.520123e+00 -9.573129e-01 6.919756e+00 -1.840033e-03 -3.216450e-03 1.388421e-03
N 1.625136e+00 -9.193022e-01 -3.325629e+00 -9.696444e-04 -2.463421e-04 -1.224991e-03
N 3.111396e+00 1.775808e+00 1.827992e+00 -9.573355e-04 -1.193061e-06 -2.139449e-03
N 3.151680e+00 1.723286e+00 6.998121e+00 1.523699e-04 9.988943e-05 -3.480081e-04
N 3.124349e+00 1.834382e+00 -3.313969e+00 -5.462481e-04 -6.103775e-04 -5.521612e-04
N 6.314138e+00 -3.745414e+00 1.776420e+00 8.827710e-04 1.269744e-03 -1.557876e-03
N 6.296258e+00 -3.765118e+00 6.915043e+00 1.778921e-04 -2.275762e-04 -7.019017e-04
N 6.397826e+00 -3.729530e+00 -3.393466e+00 -2.825329e-04 -6.379192e-04 -8.477776e-04
N 4.713966e+00 -9.924947e-01 1.836588e+00 -3.910063e-04 -1.714173e-03 -2.305352e-03
N 4.751029e+00 -9.362723e-01 6.911737e+00 -3.052263e-05 1.489344e-04 -7.205565e-04
N 4.726847e+00 -9.669259e-01 -3.383644e+00 -1.018890e-03 1.945851e-05 -2.874454e-04
N -3.212213e+00 1.799727e+00 1.749653e+00 2.730591e-05 1.323200e-03 -1.696691e-03
N -3.222938e+00 1.723669e+00 7.000221e+00 -5.808422e-04 -2.702980e-04 2.836748e-04
N -3.158742e+00 1.832780e+00 -3.385357e+00 -1.140372e-03 4.591788e-05 -8.167764e-04
N -1.910556e-02 -3.717040e+00 1.808291e+00 -7.655302e-04 -1.286129e-03 -2.125393e-03
N -2.767312e-02 -3.690027e+00 6.919800e+00 1.161037e-04 -4.273385e-03 -5.745343e-04
N -9.669696e-03 -3.746605e+00 -3.362760e+00 -4.926801e-04 -6.149204e-04 -7.429827e-05
N -1.610919e+00 -9.599190e-01 1.815325e+00 -2.166332e-03 -1.437546e-03 -2.648587e-03
N -1.577584e+00 -9.658901e-01 6.944000e+00 -9.744522e-04 2.607180e-04 1.667033e-04
N -1.601554e+00 -8.925407e-01 -3.389781e+00 -7.244668e-04 -4.988718e-04 -3.654081e-04
