108
Energy=-2.176132e+06 Lattice="9.575345e+00 0.000000e+00 0.000000e+00 -4.802203e+00 8.260021e+00 0.000000e+00 2.887853e-02 1.337702e-01 1.548135e+01" Stress="-1.926558e-02 1.956471e-03 9.457419e-04 1.954165e-03 -2.264532e-02 5.005205e-03 9.629650e-04 5.020039e-03 -1.775275e-02" Properties=species:S:1:pos:R:3:forces:R:3 Config_type=AlGaN_super3_38_0_3.xyz
Al 1.576941e+00 9.484534e-01 2.424116e+00 7.346836e-04 -8.037874e-03 2.177869e-03
Al 1.583839e+00 9.594572e-01 7.595924e+00 4.061121e-04 -4.486771e-03 1.654721e-03
Ga 1.552361e+00 8.299941e-01 -2.741883e+00 7.106827e-04 -5.487248e-03 -1.971012e-03
Al -1.764305e-04 3.686011e+00 2.451611e+00 -1.265964e-03 -5.005042e-04 -3.739345e-04
Ga 8.318566e-03 3.694179e+00 7.597162e+00 -1.885631e-03 -1.299409e-03 1.459905e-03
Al -3.313664e-02 3.574806e+00 -2.744638e+00 7.321797e-04 -2.748724e-05 8.377350e-04
Ga 3.206202e+00 -1.819335e+00 2.439822e+00 -2.222360e-03 -5.126762e-04 -2.635742e-04
Ga 3.202992e+00 -1.802837e+00 7.598637e+00 -1.794219e-04 -4.612803e-04 1.617062e-03
Ga 3.171097e+00 -1.933290e+00 -2.735792e+00 -4.051627e-04 1.792670e-04 1.029558e-03
Ga -4.817312e+00 9.519273e-01 2.451476e+00 6.889356e-04 -5.844019e-03 -9.543682e-04
Ga -4.814906e+00 9.686616e-01 7.600636e+00 -5.410362e-05 -6.990200e-03 2.389843e-04
Al -4.830929e+00 8.364490e-01 -2.747141e+00 1.383839e-03 -3.381523e-03 6.326872e-04
Ga -6.410730e+00 3.688872e+00 2.439067e+00 -2.021814e-04 1.623070e-05 -5.748483e-04
Al -6.409374e+00 3.704590e+00 7.605901e+00 1.051695e-03 -7.571049e-04 1.823885e-03
Ga -6.430304e+00 3.583423e+00 -2.733864e+00 -1.065291e-03 -2.167219e-04 1.870556e-03
Ga -3.197697e+00 -1.814943e+00 2.445888e+00 6.461009e-04 -6.523711e-04 -5.531595e-04
Ga -3.185885e+00 -1.813360e+00 7.608953e+00 -1.542853e-03 8.778572e-04 2.320366e-03
Ga -3.212137e+00 -1.931825e+00 -2.746599e+00 7.601653e-04 8.369087e-05 4.250205e-05
Ga -1.620051e+00 9.683401e-01 2.443927e+00 6.537162e-03 -5.142301e-03 -2.392261e-03
Ga -1.628374e+00 9.665364e-01 7.608636e+00 8.097461e-03 -2.666423e-03 -4.171638e-04
Al -1.660799e+00 8.392282e-01 -2.753846e+00 5.641991e-03 -3.314602e-03 -9.301660e-04
Ga -3.223221e+00 3.698504e+00 2.438634e+00 5.753555e-03 3.487544e-03 -1.117061e-03
Ga -3.229117e+00 3.705529e+00 7.613100e+00 6.321978e-03 3.619800e-03 5.041244e-04
Ga -3.250021e+00 3.577719e+00 -2.733623e+00 6.128812e-03 1.493887e-03 -1.857630e-04
Ga -1.512806e-02 -1.820394e+00 2.426924e+00 6.147606e-03 9.006306e-04 8.245617e-04
Ga -1.340053e-02 -1.798813e+00 7.609423e+00 7.251143e-03 1.864015e-03 6.502174e-05
Al -3.507825e-02 -1.920092e+00 -2.752093e+00 3.590361e-03 2.256176e-03 8.269020e-04
Al 2.932150e-03 1.864308e+00 5.011143e+00 -4.228965e-03 -1.887809e-03 2.082688e-03
Ga -3.125650e-02 1.736014e+00 -5.303243e+00 -5.260920e-03 -3.212767e-03 -2.521527e-04
Ga -3.050076e-02 1.746539e+00 -1.720368e-01 -5.781733e-03 1.037464e-03 4.775053e-03
Ga 3.215872e+00 -3.649211e+00 5.021340e+00 -5.722339e-03 -2.564303e-03 -4.049769e-04
Ga 3.186119e+00 -3.774115e+00 -5.299373e+00 -6.357791e-03 -2.289545e-03 -3.731357e-04
Ga 3.181383e+00 -3.762428e+00 -1.505924e-01 -4.313294e-03 3.915460e-04 2.561976e-03
Ga 1.619595e+00 -8.950054e-01 5.015608e+00 -7.251868e-03 3.364008e-03 -1.258210e-03
Al 1.578711e+00 -1.027785e+00 -5.313683e+00 -5.131759e-03 3.621963e-03 4.030488e-04
Al 1.590114e+00 -1.000479e+00 -1.867805e-01 -6.142773e-03 6.021217e-04 1.197576e-02
Ga 3.164188e+00 1.864699e+00 5.026281e+00 -5.352717e-04 -1.885288e-03 1.468089e-03
Ga 3.146233e+00 1.743051e+00 -5.314735e+00 -1.224952e-03 -3.121072e-04 1.325365e-03
Ga 3.155647e+00 1.746744e+00 -1.577821e-01 9.881639e-04 3.968427e-03 3.535109e-03
Ga 6.382968e+00 -3.646630e+00 5.021599e+00 -7.879764e-04 3.438335e-04 1.305248e-03
Al 6.360519e+00 -3.770520e+00 -5.309011e+00 4.117501e-04 1.648450e-05 1.939592e-03
Ga 6.355750e+00 -3.766672e+00 -1.550744e-01 6.211754e-04 1.954609e-03 6.216472e-03
Al 4.795294e+00 -8.994981e-01 5.026159e+00 -1.332364e-03 4.116575e-03 1.132816e-03
Ga 4.771178e+00 -1.024067e+00 -5.299102e+00 -9.563220e-04 4.707974e-03 -6.858207e-04
Ga 4.766300e+00 -1.016425e+00 -1.632905e-01 1.402021e-04 8.628064e-03 1.658465e-03
Ga -3.215558e+00 1.869914e+00 5.022043e+00 1.291544e-04 -9.733489e-04 5.251410e-04
Al -3.246844e+00 1.738957e+00 -5.300090e+00 8.011241e-04 6.111992e-04 1.766794e-03
Ga -3.251409e+00 1.751247e+00 -1.690389e-01 1.802304e-03 3.144653e-03 4.173986e-03
Ga -1.295598e-02 -3.643250e+00 5.029751e+00 9.746651e-04 6.409546e-04 2.249343e-03
Ga -4.376372e-02 -3.759255e+00 -5.306330e+00 4.084660e-04 -4.385735e-04 7.594949e-04
Al -2.640797e-02 -3.729388e+00 -1.892095e-01 -5.485358e-04 -8.327655e-04 1.106684e-02
Ga -1.601052e+00 -8.932563e-01 5.023311e+00 -3.806867e-04 5.930678e-03 -1.786813e-04
Al -1.624343e+00 -1.019237e+00 -5.299178e+00 -1.315686e-03 4.439814e-03 2.111430e-04
Ga -1.614405e+00 -1.018446e+00 -1.736446e-01 -6.627388e-04 9.481912e-03 2.387356e-03
N 1.561528e+00 9.684137e-01 4.368577e+00 -7.072955e-03 -1.383109e-03 -7.661919e-03
N 1.553583e+00 8.032150e-01 -5.944505e+00 8.875795e-04 -1.367113e-02 -8.250601e-03
N 1.560598e+00 8.167394e-01 -7.861760e-01 9.595075e-04 -1.198451e-02 4.962414e-03
N -3.452757e-03 3.672146e+00 4.385630e+00 -6.783846e-04 -9.448295e-03 -8.262049e-03
N -1.015734e-02 3.581733e+00 -5.922144e+00 7.590938e-03 4.926881e-03 1.860657e-03
N -3.272493e-02 3.580834e+00 -8.189795e-01 -6.467039e-04 1.664895e-03 -9.594542e-03
N 3.226968e+00 -1.801936e+00 4.406449e+00 7.776562e-03 4.678306e-03 2.088971e-03
N 3.155090e+00 -1.927233e+00 -5.916894e+00 -8.470706e-03 5.202518e-03 1.611233e-03
N 3.155212e+00 -1.915985e+00 -7.737488e-01 -9.234156e-03 5.386578e-03 2.398815e-03
N -4.812849e+00 9.316434e-01 4.415235e+00 8.462988e-04 -1.363085e-02 2.999812e-03
N -4.816281e+00 8.460978e-01 -5.921299e+00 9.136174e-03 -1.265747e-03 2.855597e-03
N -4.836387e+00 8.405164e-01 -8.226985e-01 5.631309e-04 -4.544859e-03 -8.356171e-03
N -6.401069e+00 3.699236e+00 4.398138e+00 -1.635860e-04 -9.953099e-05 -1.305243e-03
N -6.452292e+00 3.588781e+00 -5.940715e+00 -7.817250e-03 5.011711e-03 -8.867669e-03
N -6.407871e+00 3.599934e+00 -7.681338e-01 9.614828e-03 5.979856e-03 2.213053e-03
N -3.213021e+00 -1.797581e+00 4.408542e+00 -8.175896e-03 4.889011e-03 2.261741e-03
N -3.197567e+00 -1.949823e+00 -5.902495e+00 8.504640e-03 -3.796857e-03 5.191621e-03
N -3.215549e+00 -1.934586e+00 -7.903599e-01 1.593134e-04 2.072347e-03 4.731268e-06
N -1.605143e+00 9.789865e-01 4.406058e+00 1.341463e-02 -1.693407e-04 3.792226e-03
N -1.682163e+00 8.229271e-01 -5.906078e+00 -1.266452e-03 -7.179354e-03 7.240571e-03
N -1.662560e+00 8.437017e-01 -8.274571e-01 7.192718e-03 -2.218737e-03 -6.072884e-03
N -3.226158e+00 3.705440e+00 4.399966e+00 6.419485e-03 2.821279e-03 -4.414074e-04
N -3.252567e+00 3.553093e+00 -5.906816e+00 5.876289e-03 -6.866413e-03 3.587099e-03
N -3.268830e+00 3.601271e+00 -7.723896e-01 -2.215375e-03 8.310491e-03 3.575926e-03
N -1.457864e-02 -1.812483e+00 4.395307e+00 5.967905e-03 3.132354e-03 -5.650095e-04
N -4.048781e-02 -1.906090e+00 -5.909535e+00 4.103232e-03 1.125481e-02 6.055675e-03
N -1.214612e-02 -1.922917e+00 -8.106943e-01 1.380275e-02 -1.660034e-03 -3.126366e-03
N 2.306259e-02 1.879674e+00 1.818356e+00 7.682721e-04 -2.657654e-03 1.808338e-03
N 2.228906e-02 1.854126e+00 6.958470e+00 1.432003e-03 -7.523600e-03 -8.069372e-03
N -5.046315e-02 1.755225e+00 -3.342204e+00 -1.290712e-02 2.685717e-03 6.535050e-03
N 3.237718e+00 -3.668045e+00 1.828773e+00 1.131531e-03 -1.095439e-02 9.320592e-04
N 3.211171e+00 -3.646764e+00 6.982784e+00 -6.132138e-03 -2.782749e-03 2.967761e-04
N 3.203351e+00 -3.781924e+00 -3.341927e+00 1.655861e-03 -6.807630e-03 3.403825e-03
N 1.611722e+00 -9.039762e-01 1.808443e+00 -6.396910e-03 1.346697e-02 -1.622177e-02
N 1.617737e+00 -8.715245e-01 6.980535e+00 -7.559701e-03 1.129579e-02 4.065351e-03
N 1.566515e+00 -1.041410e+00 -3.382670e+00 -1.313573e-02 3.956153e-04 -5.814195e-03
N 3.151401e+00 1.847015e+00 1.819576e+00 -8.187098e-03 -9.768436e-03 -5.776723e-04
N 3.150494e+00 1.884709e+00 6.998616e+00 -7.650655e-03 4.784518e-03 5.162616e-03
N 3.168352e+00 1.735178e+00 -3.351167e+00 7.917709e-03 -5.090868e-03 2.004352e-03
N 6.358808e+00 -3.661186e+00 1.832120e+00 -8.518941e-03 -7.857090e-03 -2.212113e-03
N 6.408718e+00 -3.653726e+00 6.984831e+00 8.658036e-03 -4.053276e-03 1.186475e-03
N 6.339173e+00 -3.780711e+00 -3.375965e+00 -8.390302e-03 -4.947399e-03 -8.580136e-03
N 4.794147e+00 -9.038977e-01 1.800416e+00 -1.317994e-03 3.447298e-03 -8.154375e-04
N 4.798740e+00 -8.999367e-01 6.958928e+00 5.757902e-05 6.391033e-03 -1.032762e-02
N 4.766409e+00 -9.968279e-01 -3.343850e+00 -1.227659e-03 1.357396e-02 3.149539e-03
N -3.220440e+00 1.865285e+00 1.810347e+00 -2.967054e-04 -5.579169e-03 -4.324890e-03
N -3.218206e+00 1.875873e+00 6.978084e+00 9.351542e-04 -6.971039e-04 -1.912773e-03
N -3.247993e+00 1.725892e+00 -3.365632e+00 7.357432e-04 -8.983696e-03 -5.079296e-03
N -1.690517e-02 -3.664587e+00 1.797596e+00 5.886671e-04 1.047172e-03 -2.211209e-02
N -3.231434e-02 -3.649552e+00 6.998300e+00 -8.025226e-03 -4.540392e-03 1.981316e-03
N -3.789225e-02 -3.738649e+00 -3.346977e+00 8.893342e-04 9.909829e-03 2.835619e-03
N -1.603295e+00 -9.024010e-01 1.801548e+00 -1.070966e-03 3.910808e-03 -1.871478e-03
N -1.600246e+00 -8.948010e-01 6.981885e+00 -8.171413e-04 6.607897e-03 -8.214480e-04
N -1.604049e+00 -1.007954e+00 -3.367114e+00 7.687348e-03 9.708217e-03 -3.377235e-03
