108
Energy=-1443724.788235 Lattice="9.516881 0.000000 0.000000 -4.759281 8.240547 0.000000 0.000298 -0.003506 15.361261" Stress="0.000001 -0.000000 -0.000000 -0.000000 -0.000000 -0.000000 -0.000000 -0.000000 -0.000001" Properties=species:S:1:pos:R:3:forces:R:3
Al 1.578831 0.867427 2.426694 0.000207 0.000546 0.000537
Al 1.565632 0.882153 7.534548 0.000025 0.000113 -0.000314
Al 1.562151 0.897430 -2.724962 -0.000035 -0.000975 -0.001277
Al -0.035500 3.624083 2.407383 -0.000105 0.000022 0.000265
Al -0.015922 3.620031 7.575656 0.000401 0.000179 -0.000116
Al -0.019560 3.624762 -2.750083 -0.000026 -0.000072 -0.000219
Al 3.135582 -1.879460 2.402796 -0.000085 -0.000421 0.000849
Al 3.156503 -1.872255 7.549026 0.000017 0.000031 0.000624
Ga 3.153588 -1.886535 -2.715020 -0.000019 -0.000055 0.000144
Al -4.797262 0.889451 2.418053 0.001068 0.000670 -0.001580
Ga -4.787100 0.875212 7.551606 0.000113 -0.000048 0.000228
Ga -4.789503 0.889078 -2.731066 0.000194 -0.000334 0.000390
Ga -6.369122 3.600699 2.407506 0.000034 0.000147 0.000061
Al -6.383483 3.612731 7.564797 0.000278 0.000191 -0.000105
Al -6.372649 3.625947 -2.739067 0.000049 0.000070 -0.000132
Ga -3.195452 -1.875659 2.434903 -0.000079 0.000041 -0.000061
Al -3.198226 -1.880635 7.546619 0.000036 0.000267 0.000637
Al -3.193546 -1.886420 -2.740247 0.000009 0.000000 0.000124
Ga -1.616104 0.884432 2.419813 0.000101 -0.000156 -0.000187
Al -1.607321 0.880880 7.535239 -0.000124 -0.000056 0.000736
Ga -1.602635 0.890847 -2.716860 0.000497 -0.000415 -0.000035
Al -3.184720 3.621659 2.402882 -0.000022 -0.000120 -0.000064
Ga -3.188115 3.617442 7.560541 0.000039 0.000017 0.000219
Al -3.191817 3.629244 -2.728425 0.000138 0.000241 0.000098
Al -0.005401 -1.863899 2.443924 -0.000072 -0.000029 0.000119
Ga -0.022395 -1.863077 7.532607 0.000316 -0.000242 0.000380
Al -0.023346 -1.882343 -2.733685 0.000170 -0.000107 -0.000095
Ga -0.015805 1.779026 4.988185 -0.000206 0.000183 0.000384
Al -0.017535 1.806533 -5.286389 0.000079 -0.000009 0.000181
Ga -0.013309 1.806999 -0.147785 -0.000615 0.000114 -0.000041
Ga 3.145714 -3.704703 4.979110 -0.000010 0.000186 0.000493
Al 3.156209 -3.710313 -5.270295 0.000144 0.000447 -0.000568
Al 3.147107 -3.722390 -0.151820 -0.000090 0.000039 0.000091
Al 1.569688 -0.946638 4.971215 -0.000120 0.000007 0.000198
Ga 1.578929 -0.944692 -5.267095 -0.000187 0.000080 0.000404
Ga 1.563998 -0.948633 -0.142289 -0.000480 0.000147 0.000167
Al 3.152307 1.779348 4.988658 -0.000313 0.000078 0.000320
Al 3.142061 1.804356 -5.271662 0.000576 -0.000043 -0.000368
Al 3.150683 1.789643 -0.161471 0.000271 -0.000108 0.000407
Ga 6.325029 -3.713040 5.014005 0.000035 -0.000235 0.000349
Al 6.319404 -3.707796 -5.275171 -0.000039 0.000402 0.000154
Ga 6.311059 -3.711717 -0.182639 0.000069 0.000111 0.000182
Ga 4.726115 -0.939773 4.977728 -0.000239 -0.000290 0.000158
Al 4.738125 -0.957719 -5.281988 -0.000136 -0.001210 -0.000044
Ga 4.737195 -0.944516 -0.134597 -0.000158 0.000343 0.000206
Al -3.205141 1.787881 4.971576 0.000434 -0.000534 0.000510
Al -3.194368 1.803393 -5.264400 0.000119 -0.000125 -0.001026
Al -3.208741 1.811872 -0.150290 -0.000043 -0.000059 0.000619
Ga -0.020781 -3.708650 4.967512 0.000046 0.000164 0.000314
Al -0.026692 -3.722513 -5.248854 0.000101 0.000308 -0.000049
Ga -0.009096 -3.712710 -0.161437 0.000101 -0.000078 0.000507
Al -1.603593 -0.945350 5.001849 0.000021 -0.000091 0.000254
Ga -1.623727 -0.949413 -5.271356 -0.000219 0.000183 0.000025
Ga -1.607607 -0.957998 -0.163081 -0.000216 -0.000102 0.000525
N 1.610336 0.854251 4.351103 0.000137 -0.000006 -0.000312
N 1.568240 0.924976 -5.912279 -0.000454 0.000048 -0.000099
N 1.601956 0.902352 -0.812145 0.000502 -0.000000 0.000461
N -0.021489 3.621379 4.315240 -0.000016 0.000021 -0.000526
N -0.022348 3.626077 -5.869614 0.000007 -0.000090 -0.000303
N -0.070375 3.644590 -0.832095 -0.000056 -0.000041 -0.000064
N 3.107066 -1.855541 4.321263 0.000067 0.000072 -0.000645
N 3.187269 -1.895466 -5.893992 0.000300 0.000208 -0.000298
N 3.152021 -1.921678 -0.738713 0.000192 -0.000277 0.000034
N -4.785430 0.930221 4.342860 -0.000263 -0.000335 0.000369
N -4.781838 0.881392 -5.825150 -0.000582 0.000772 -0.000001
N -4.781969 0.924471 -0.747075 0.000092 0.000092 -0.000471
N -6.374106 3.567064 4.376226 -0.000097 0.000148 -0.000270
N -6.366084 3.623459 -5.870873 0.000015 0.000049 -0.000400
N -6.364902 3.575020 -0.815191 -0.000042 -0.000137 0.000033
N -3.152301 -1.853874 4.403199 0.000250 0.000239 -0.000045
N -3.234718 -1.893979 -5.899989 0.000163 -0.000426 -0.000474
N -3.201833 -1.868600 -0.831044 -0.000018 0.000095 -0.000035
N -1.652016 0.854108 4.399540 0.000063 -0.000197 0.000040
N -1.611270 0.929477 -5.901042 -0.000075 -0.000125 -0.000416
N -1.651455 0.909225 -0.741902 0.000255 0.000023 0.000136
N -3.190310 3.571233 4.319725 0.000258 0.000617 -0.000518
N -3.197841 3.626144 -5.825828 -0.000096 -0.000050 -0.000007
N -3.151865 3.601540 -0.799744 0.000067 -0.000207 -0.000124
N -0.023130 -1.818814 4.370116 0.000091 0.000021 -0.000228
N -0.020351 -1.917894 -5.859958 0.000149 -0.000320 0.000007
N -0.017521 -1.873582 -0.829856 0.000199 -0.000007 0.000158
N 0.025795 1.810818 1.835902 -0.000106 0.000172 0.000235
N -0.021391 1.795585 6.978518 0.000213 -0.000109 -0.000015
N 0.019517 1.814194 -3.364231 -0.000077 0.000118 0.000083
N 3.150201 -3.709820 1.783645 -0.000055 0.000189 -0.000186
N 3.195041 -3.683109 6.962165 -0.000046 -0.000042 -0.000194
N 3.150656 -3.748218 -3.361218 -0.000210 -0.000126 0.000331
N 1.557883 -0.951177 1.848248 0.000052 -0.000686 -0.000847
N 1.612793 -0.931281 6.903152 -0.000101 0.000061 -0.000266
N 1.530761 -0.926273 -3.294230 -0.000336 0.000764 0.000195
N 3.143479 1.738359 1.760005 -0.000200 -0.000079 -0.000096
N 3.110273 1.814458 6.910674 -0.000145 0.000082 -0.000187
N 3.104790 1.818426 -3.362416 -0.000256 0.000055 0.000441
N 6.280208 -3.726752 1.792801 -0.000065 -0.000088 -0.000267
N 6.320627 -3.710198 6.997612 -0.000260 -0.000318 0.000096
N 6.323852 -3.702498 -3.345056 0.000101 -0.000093 -0.000159
N 4.697730 -0.930661 1.848307 -0.000168 0.000008 0.000049
N 4.734162 -1.000699 6.957687 -0.000153 0.000136 -0.000135
N 4.774553 -0.977348 -3.369521 -0.000128 0.000176 -0.000117
N -3.241719 1.817334 1.773158 -0.000701 -0.000245 0.000117
N -3.161261 1.770729 6.886771 0.000044 -0.000077 -0.000075
N -3.194308 1.840018 -3.366589 0.000148 0.000141 0.000853
N 0.018479 -3.673632 1.833214 0.000227 0.000117 -0.000324
N -0.063522 -3.733083 6.939913 -0.000436 -0.000030 -0.000194
N -0.021698 -3.707739 -3.324512 -0.000063 0.000111 -0.000115
N -1.563541 -0.984245 1.811909 0.000004 0.000119 -0.000634
N -1.650402 -0.930478 6.922927 -0.000189 0.000048 -0.000247
N -1.609220 -0.994628 -3.299630 -0.000251 -0.000005 0.000080
