108
Energy=-8.028673e+05 Lattice="9.461225e+00 0.000000e+00 0.000000e+00 -4.737004e+00 8.181950e+00 0.000000e+00 -5.721439e-04 8.228858e-03 1.522593e+01" Stress="5.499861e-03 2.878910e-03 7.535248e-05 2.878943e-03 5.280991e-03 2.010487e-04 6.715795e-05 1.976343e-04 1.058581e-02" Properties=species:S:1:pos:R:3:forces:R:3 Config_type=AlGaN_super3_8_1_6.xyz
Al 1.558176e+00 8.710944e-01 2.402939e+00 2.639998e-03 8.484955e-03 -8.811900e-04
Al 1.550174e+00 8.754051e-01 7.464364e+00 1.649606e-03 4.590638e-03 1.998296e-03
Al 1.552692e+00 8.744475e-01 -2.717995e+00 2.747243e-03 -4.476209e-03 1.580486e-03
Al -1.491138e-02 3.579506e+00 2.393719e+00 1.531317e-02 -9.014889e-03 8.134569e-03
Al -2.307492e-02 3.596808e+00 7.472778e+00 9.969424e-04 -1.302196e-04 -6.880514e-04
Al -1.375695e-02 3.585908e+00 -2.704832e+00 9.947260e-04 2.613509e-03 2.047489e-03
Al 3.125233e+00 -1.897996e+00 2.424259e+00 5.895841e-03 1.293265e-02 -9.028402e-04
Al 3.133200e+00 -1.855967e+00 7.466719e+00 4.275809e-03 1.249650e-03 -5.510612e-04
Al 3.148698e+00 -1.880031e+00 -2.740575e+00 -4.208788e-03 1.236422e-02 1.463006e-02
Al -4.756201e+00 8.949614e-01 2.405284e+00 5.481041e-04 -2.046646e-04 -5.248373e-05
Al -4.771237e+00 8.909324e-01 7.461394e+00 1.891950e-03 -5.709743e-03 -1.144177e-03
Al -4.761949e+00 8.810654e-01 -2.692185e+00 -3.361361e-03 -2.221101e-03 -1.086126e-02
Al -6.347795e+00 3.605373e+00 2.388095e+00 1.556984e-02 -5.848566e-04 -2.678004e-03
Al -6.344280e+00 3.600732e+00 7.464378e+00 -7.581016e-04 3.725623e-04 1.125664e-03
Al -6.344588e+00 3.598158e+00 -2.708790e+00 -1.193373e-04 -1.617783e-03 2.315413e-03
Al -3.193829e+00 -1.860814e+00 2.390925e+00 -1.181422e-03 -3.342870e-03 1.043001e-03
Al -3.178481e+00 -1.859326e+00 7.463701e+00 -7.005570e-03 -1.739163e-03 3.492467e-03
Al -3.163568e+00 -1.862420e+00 -2.702629e+00 -3.427700e-03 -5.350855e-04 3.422802e-03
Al -1.615996e+00 8.777780e-01 2.388339e+00 2.002837e-03 -7.593705e-03 -4.377850e-03
Al -1.622961e+00 8.885990e-01 7.472891e+00 1.992645e-03 3.294415e-03 4.547094e-04
Al -1.621424e+00 8.785790e-01 -2.707238e+00 6.497444e-03 -2.914278e-03 6.656476e-04
Al -3.126207e+00 3.611525e+00 2.458263e+00 -6.185355e-03 -2.350374e-02 -6.774052e-03
Al -3.201292e+00 3.602188e+00 7.475227e+00 3.465700e-03 1.806010e-04 -9.137574e-04
Ga -3.195709e+00 3.605208e+00 -2.686747e+00 6.200496e-03 2.804155e-03 3.614020e-04
Ga 2.488454e-02 -1.890083e+00 2.401386e+00 -2.752791e-04 2.375938e-03 -6.283527e-03
Ga -3.529725e-02 -1.839031e+00 7.482651e+00 5.933393e-03 4.481055e-04 -2.352469e-03
Al -3.457433e-02 -1.852759e+00 -2.710196e+00 6.243944e-03 1.280299e-03 1.874758e-03
Al -1.422598e-02 1.784448e+00 4.937575e+00 -5.232319e-03 -3.642256e-04 7.195523e-04
Al -2.216883e-02 1.776242e+00 -5.238249e+00 -3.840753e-03 -1.097197e-03 2.468445e-04
Al -7.124363e-03 1.767351e+00 -1.545188e-01 -3.869371e-03 -9.567958e-04 -2.528170e-03
Ga 3.131445e+00 -3.683669e+00 4.949099e+00 -3.995122e-03 -2.006397e-03 -1.765006e-03
Al 3.137660e+00 -3.689141e+00 -5.242341e+00 -1.960182e-03 5.965516e-05 2.506838e-03
Ga 3.147005e+00 -3.683635e+00 -1.260651e-01 -3.200066e-03 -2.818640e-03 5.872924e-03
Al 1.564376e+00 -9.327022e-01 4.945159e+00 5.082452e-03 2.668856e-03 -3.344618e-05
Al 1.567664e+00 -9.621752e-01 -5.229523e+00 -3.986543e-03 5.217757e-03 1.023714e-03
Al 1.579986e+00 -9.486857e-01 -2.021212e-01 -6.245872e-03 3.593101e-03 1.002300e-02
Al 3.119899e+00 1.792640e+00 4.936193e+00 1.743990e-03 -2.671771e-04 -1.363347e-04
Al 3.118755e+00 1.787992e+00 -5.240713e+00 -9.331529e-04 -7.744239e-04 2.540290e-03
Al 3.135559e+00 1.777684e+00 -1.672843e-01 -5.662624e-03 4.011856e-03 3.170036e-03
Al 6.282176e+00 -3.681003e+00 4.932345e+00 -6.571731e-04 4.008514e-04 1.635340e-03
Al 6.290145e+00 -3.683508e+00 -5.235907e+00 -8.508687e-04 5.767739e-05 1.889207e-03
Al 6.309743e+00 -3.688127e+00 -1.506751e-01 -2.294806e-03 2.641157e-03 -4.194352e-03
Al 4.708471e+00 -9.481487e-01 4.938056e+00 -6.589720e-04 4.701254e-03 -3.068238e-04
Ga 4.713662e+00 -9.606091e-01 -5.222447e+00 -3.230941e-04 6.011518e-03 1.024554e-03
Ga 4.723457e+00 -9.339430e-01 -1.528731e-01 -9.494281e-04 1.382256e-03 8.074381e-05
Al -3.196877e+00 1.791539e+00 4.938393e+00 -1.968903e-03 -3.940371e-03 1.383901e-03
Al -3.195165e+00 1.789004e+00 -5.240764e+00 -2.397576e-04 -7.714198e-04 1.141707e-03
Al -3.184567e+00 1.787954e+00 -1.675836e-01 -2.268547e-03 -2.027071e-03 9.578997e-03
Al -4.435277e-02 -3.663344e+00 4.939427e+00 3.380116e-03 -1.238293e-02 3.160140e-03
Al -3.519604e-02 -3.673236e+00 -5.230009e+00 -8.600407e-05 -1.675249e-03 4.181304e-04
Al -1.781151e-02 -3.677227e+00 -1.667107e-01 -3.869334e-03 2.777704e-03 7.780605e-03
Ga -1.595281e+00 -9.569475e-01 4.945744e+00 -2.560879e-03 5.702426e-03 -3.846901e-03
Al -1.595612e+00 -9.509712e-01 -5.225398e+00 -3.756563e-03 5.323271e-03 -7.776826e-05
Al -1.585174e+00 -9.523897e-01 -1.561193e-01 -2.520073e-03 3.476472e-04 -2.596380e-03
N 1.548531e+00 8.897437e-01 4.337619e+00 -9.101185e-05 -5.105924e-03 -2.978824e-03
N 1.545504e+00 8.733051e-01 -5.835583e+00 1.306121e-03 -4.721488e-03 -2.319405e-05
N 1.556983e+00 8.747042e-01 -7.873991e-01 1.143485e-03 -1.974996e-03 5.044263e-04
N -4.022460e-03 3.582610e+00 4.326718e+00 8.683235e-03 -5.173512e-03 -3.442843e-03
N -2.132415e-02 3.592615e+00 -5.835368e+00 -8.812495e-04 -8.679111e-05 1.013190e-03
N 7.487110e-03 3.577614e+00 -7.704587e-01 4.783847e-03 -3.385918e-03 -1.804094e-03
N 3.129716e+00 -1.834373e+00 4.341742e+00 -7.058706e-04 7.899940e-03 -4.262700e-03
N 3.114996e+00 -1.877687e+00 -5.842714e+00 -7.878257e-03 -4.749293e-03 -3.371789e-03
N 3.128581e+00 -1.852121e+00 -7.946231e-01 -6.992411e-03 -2.064195e-05 -2.974462e-03
N -4.769185e+00 8.888761e-01 4.338080e+00 8.502864e-04 -5.372612e-03 6.150449e-05
N -4.773163e+00 9.054152e-01 -5.845566e+00 1.977085e-03 3.324118e-03 -3.108535e-03
N -4.775331e+00 9.256731e-01 -8.249110e-01 8.612505e-03 -9.097592e-06 1.661158e-02
N -6.345302e+00 3.608637e+00 4.327367e+00 1.310540e-04 1.634820e-03 -3.856851e-03
N -6.342106e+00 3.599493e+00 -5.837622e+00 1.063940e-03 3.029164e-04 -1.272137e-03
N -6.328506e+00 3.594399e+00 -7.771177e-01 1.519972e-04 1.692995e-03 3.094483e-03
N -3.198698e+00 -1.875873e+00 4.320493e+00 -6.427759e-03 -3.033371e-03 -3.981074e-03
N -3.151359e+00 -1.876778e+00 -5.839260e+00 7.639107e-03 -3.849011e-03 -2.793491e-03
N -3.143921e+00 -1.874028e+00 -7.736093e-01 6.637845e-03 -3.795791e-03 -3.427968e-03
N -1.621227e+00 9.133659e-01 4.320793e+00 6.622838e-03 1.911929e-03 -3.852312e-03
N -1.626855e+00 8.841828e-01 -5.832470e+00 5.848737e-03 -3.595104e-03 1.439871e-03
N -1.616977e+00 8.822893e-01 -7.759827e-01 4.342568e-03 -2.742541e-03 3.476675e-03
N -3.242663e+00 3.572006e+00 4.325539e+00 2.466897e-03 4.435604e-03 9.632032e-03
N -3.202001e+00 3.603096e+00 -5.831108e+00 3.927583e-03 1.347062e-03 1.564704e-03
N -3.232972e+00 3.588483e+00 -7.181230e-01 1.094654e-02 -2.480610e-03 -6.383377e-03
N 3.269054e-02 -1.886047e+00 4.378318e+00 -1.057909e-03 6.297925e-03 -1.782740e-03
N -3.127233e-02 -1.854461e+00 -5.795886e+00 4.529553e-03 6.421548e-04 8.661587e-03
N -2.278546e-02 -1.855021e+00 -7.763364e-01 4.662466e-03 1.205667e-05 8.464600e-04
N -1.236586e-02 1.769896e+00 1.770044e+00 -3.432431e-03 -3.756206e-03 3.041600e-03
N -2.074834e-02 1.783202e+00 6.868208e+00 -4.705239e-03 -2.584789e-03 -7.658883e-04
N -1.788200e-02 1.773936e+00 -3.313219e+00 -5.867251e-03 6.498713e-05 6.756645e-04
N 3.174988e+00 -3.748297e+00 1.935347e+00 -4.957516e-03 2.795142e-02 -2.392443e-02
N 3.137136e+00 -3.679331e+00 6.902651e+00 -4.528466e-03 -5.289152e-04 9.625184e-03
N 3.182483e+00 -3.635677e+00 -3.298899e+00 -1.042955e-03 -1.811198e-02 -1.168567e-02
N 1.618143e+00 -8.855155e-01 1.781565e+00 4.165435e-04 -1.953831e-02 -1.025898e-02
N 1.601556e+00 -9.125908e-01 6.855319e+00 -3.024121e-03 -2.535213e-03 -4.434880e-04
N 1.578044e+00 -9.656125e-01 -3.312331e+00 -7.149544e-03 3.504741e-03 1.981940e-03
N 3.127205e+00 1.789404e+00 1.780061e+00 1.186395e-04 1.085967e-03 -1.190806e-03
N 3.119906e+00 1.792601e+00 6.863353e+00 -6.053352e-04 -1.113120e-04 -1.630015e-03
N 3.125374e+00 1.783225e+00 -3.314866e+00 -2.360505e-05 6.304032e-04 -6.146804e-04
N 6.277510e+00 -3.674802e+00 1.767938e+00 4.109912e-03 -1.932560e-03 3.374669e-03
N 6.284024e+00 -3.672953e+00 6.862113e+00 -9.346629e-06 -1.294163e-04 -1.150206e-03
N 6.287925e+00 -3.678465e+00 -3.311032e+00 -1.798624e-04 3.963601e-04 -1.403026e-04
N 4.693865e+00 -9.422622e-01 1.828471e+00 1.672850e-03 -8.550092e-04 4.591107e-03
N 4.714150e+00 -9.514445e-01 6.868009e+00 -2.264066e-03 3.533104e-03 -6.776429e-04
N 4.697510e+00 -9.526469e-01 -3.254009e+00 1.012862e-02 3.889921e-03 1.776103e-03
N -3.175366e+00 1.810748e+00 1.789409e+00 1.165464e-03 -1.345947e-02 -3.253123e-03
N -3.193254e+00 1.791473e+00 6.866349e+00 9.032053e-04 5.390176e-04 -1.028175e-03
N -3.189253e+00 1.764127e+00 -3.318245e+00 1.086536e-03 -8.228841e-03 -3.745749e-03
N 1.314535e-01 -3.750262e+00 1.765710e+00 -4.562808e-02 1.132897e-02 -3.674411e-03
N -3.423692e-02 -3.687155e+00 6.862587e+00 4.283655e-04 -7.602835e-03 -3.736600e-03
N -5.365571e-02 -3.661988e+00 -3.314475e+00 -6.312949e-03 4.606779e-03 -2.471441e-03
N -1.623635e+00 -1.030766e+00 1.762826e+00 1.332261e-03 2.679172e-02 3.330831e-03
N -1.651054e+00 -9.252937e-01 6.901776e+00 2.069247e-03 5.913926e-03 9.207476e-04
N -1.597029e+00 -9.513341e-01 -3.305838e+00 -2.607014e-03 4.514225e-03 8.625601e-05
