108
Energy=-1397949.259410 Lattice="9.508917 0.000000 0.000000 -4.756615 8.232017 0.000000 -0.000228 0.003624 15.347618" Stress="-0.000005 -0.000001 0.000000 -0.000001 -0.000007 -0.000000 0.000000 -0.000000 -0.000004" Properties=species:S:1:pos:R:3:forces:R:3
Al 1.566082 0.868870 2.389958 0.000106 0.000184 0.000337
Al 1.547648 0.883098 7.536783 0.000127 0.000088 0.000140
Al 1.580636 0.867988 -2.695196 0.000014 0.000101 -0.000062
Al -0.034390 3.626756 2.416269 0.000238 -0.000011 -0.000104
Al -0.018633 3.609681 7.504896 -0.000002 0.000010 0.000174
Ga -0.024395 3.622969 -2.692620 -0.000116 0.000089 0.000011
Al 3.147984 -1.873081 2.369084 -0.000060 0.000029 0.000115
Ga 3.146448 -1.872621 7.521754 0.000006 0.000051 0.000050
Al 3.143949 -1.860906 -2.664212 -0.000036 -0.000039 -0.000016
Al -4.778008 0.871722 2.366223 0.000071 0.000281 0.000057
Ga -4.774700 0.881314 7.539483 0.000164 -0.000012 0.000106
Al -4.785392 0.879308 -2.674786 -0.000021 0.000027 -0.000036
Ga -6.363364 3.615776 2.414594 -0.000007 -0.000067 0.000011
Ga -6.374859 3.621841 7.532876 -0.000008 0.000013 0.000036
Al -6.361798 3.603496 -2.711692 0.000172 0.000258 -0.000173
Al -3.200030 -1.865756 2.387806 0.000195 0.000215 0.000021
Ga -3.189218 -1.877737 7.540828 -0.000181 -0.000011 0.000039
Al -3.189447 -1.858840 -2.694018 0.000139 -0.000030 0.000046
Ga -1.614370 0.880860 2.403161 0.000046 -0.000104 0.000057
Al -1.598064 0.889816 7.505731 0.000165 -0.000087 -0.000068
Al -1.621099 0.866387 -2.675899 0.000045 0.000017 0.000084
Al -3.184044 3.621528 2.408088 -0.000041 -0.000157 -0.000053
Ga -3.184571 3.617159 7.505115 0.000093 -0.000188 0.000113
Al -3.195515 3.612730 -2.681266 -0.000042 0.000042 0.000165
Al -0.014240 -1.863225 2.381325 0.000007 -0.000160 -0.000036
Ga -0.018588 -1.858708 7.558937 0.000107 -0.000153 0.000134
Ga -0.021893 -1.857918 -2.707236 -0.000062 -0.000020 0.000107
Al -0.023368 1.808767 4.965377 0.000166 -0.000244 -0.000148
Ga -0.013365 1.774905 -5.262178 -0.000104 0.000131 0.000094
Ga -0.020842 1.775904 -0.147077 -0.000059 0.000128 0.000051
Al 3.153247 -3.714280 4.930862 -0.000008 0.000153 -0.000013
Ga 3.143927 -3.692987 -5.244836 -0.000084 0.000170 0.000037
Al 3.135498 -3.692003 -0.131584 -0.000020 -0.000142 -0.000049
Ga 1.557684 -0.957639 4.937044 -0.000034 0.000111 -0.000006
Al 1.562658 -0.946729 -5.238824 -0.000104 0.000171 0.000062
Al 1.575398 -0.948818 -0.139170 -0.000204 -0.000183 -0.000061
Ga 3.143937 1.793604 4.953031 0.000117 -0.000086 0.000036
Al 3.134868 1.793545 -5.235948 -0.000219 -0.000201 -0.000183
Al 3.153581 1.771152 -0.154878 -0.000259 0.000088 -0.000116
Al 6.304099 -3.701901 4.944879 -0.000069 0.000077 -0.000046
Al 6.333157 -3.700494 -5.240187 -0.000163 -0.000126 -0.000065
Ga 6.317250 -3.686758 -0.142621 0.000071 -0.000139 -0.000074
Ga 4.737701 -0.958242 4.923984 -0.000106 0.000015 0.000046
Ga 4.730142 -0.958101 -5.210734 -0.000083 -0.000106 0.000045
Al 4.730090 -0.947421 -0.158546 0.000002 0.000019 -0.000054
Al -3.190538 1.806440 4.943978 0.000112 -0.000236 0.000131
Ga -3.193385 1.787788 -5.227053 0.000107 0.000020 0.000205
Al -3.201418 1.787946 -0.160225 0.000070 0.000038 0.000197
Al -0.011363 -3.696122 4.933449 0.000054 -0.000110 0.000052
Al -0.034617 -3.698160 -5.225486 0.000016 0.000059 0.000124
Ga -0.010136 -3.704515 -0.149337 0.000162 0.000135 0.000015
Ga -1.604603 -0.959117 4.953272 -0.000101 -0.000049 0.000083
Al -1.605220 -0.954949 -5.246460 0.000085 -0.000060 0.000178
Al -1.617745 -0.948281 -0.143731 0.000124 -0.000164 -0.000084
N 1.518221 0.901736 4.300254 -0.000072 0.000047 -0.000225
N 1.603764 0.849816 -5.888902 0.000306 0.000076 0.000051
N 1.606779 0.846737 -0.780984 0.000287 0.000013 0.000199
N -0.024063 3.616383 4.340137 -0.000129 -0.000015 -0.000032
N 0.018886 3.643051 -5.909406 0.000166 0.000055 -0.000146
N -0.066224 3.644205 -0.735038 -0.000085 0.000035 0.000049
N 3.146024 -1.918057 4.285247 0.000052 -0.000085 -0.000149
N 3.109184 -1.845276 -5.856771 -0.000034 0.000041 -0.000118
N 3.143386 -1.871034 -0.737767 -0.000050 -0.000025 0.000121
N -4.736267 0.904100 4.284347 0.000099 0.000028 -0.000125
N -4.817468 0.896958 -5.835794 -0.000007 0.000073 0.000018
N -4.780457 0.876445 -0.754137 0.000050 0.000012 0.000088
N -6.363628 3.666054 4.383224 -0.000084 0.000058 -0.000070
N -6.362157 3.618605 -5.817131 -0.000007 -0.000004 0.000096
N -6.364476 3.568414 -0.795218 -0.000092 -0.000070 0.000012
N -3.187350 -1.914412 4.295073 0.000029 -0.000057 -0.000065
N -3.154291 -1.895161 -5.825945 0.000031 0.000081 -0.000019
N -3.188732 -1.821292 -0.778073 0.000008 0.000075 -0.000097
N -1.606109 0.925488 4.379228 0.000067 0.000184 0.000047
N -1.613211 0.832735 -5.919563 -0.000007 -0.000114 -0.000143
N -1.650095 0.848744 -0.761930 -0.000006 -0.000015 0.000035
N -3.190318 3.619087 4.335820 0.000037 -0.000102 -0.000062
N -3.238958 3.641689 -5.864467 -0.000043 -0.000130 -0.000145
N -3.149473 3.596710 -0.772660 0.000074 0.000114 -0.000009
N -0.023344 -1.909907 4.289350 0.000058 -0.000077 -0.000036
N -0.020149 -1.871589 -5.792926 -0.000023 0.000001 0.000007
N -0.021608 -1.816330 -0.727322 0.000060 0.000136 0.000085
N 0.017425 1.815109 1.821284 0.000123 0.000013 0.000023
N -0.016743 1.791747 6.906609 -0.000105 0.000108 -0.000047
N -0.024318 1.735192 -3.274438 -0.000109 -0.000154 0.000003
N 3.145154 -3.704109 1.791628 0.000024 0.000011 -0.000022
N 3.192779 -3.721226 6.853825 0.000041 0.000018 -0.000008
N 3.104127 -3.670437 -3.272354 0.000050 0.000074 0.000005
N 1.565277 -0.949779 1.782049 -0.000113 0.000042 -0.000006
N 1.560621 -0.905423 6.913777 -0.000328 0.000150 -0.000073
N 1.611723 -0.929663 -3.323555 -0.000003 0.000062 -0.000011
N 3.143310 1.745418 1.763044 0.000002 -0.000213 -0.000119
N 3.104559 1.764900 6.924861 -0.000085 -0.000059 -0.000052
N 3.145193 1.784091 -3.311774 0.000009 0.000036 -0.000006
N 6.276437 -3.677220 1.824837 -0.000233 -0.000200 0.000098
N 6.276316 -3.717976 6.862891 -0.000007 -0.000033 0.000017
N 6.357296 -3.673104 -3.321397 0.000127 -0.000094 0.000033
N 4.733792 -0.954543 1.770937 -0.000097 0.000017 0.000027
N 4.737160 -0.951571 6.893384 -0.000141 -0.000026 -0.000156
N 4.726882 -0.954385 -3.228088 0.000007 0.000022 0.000033
N -3.233089 1.820246 1.758479 -0.000041 -0.000007 -0.000188
N -3.158208 1.767074 6.861890 0.000015 0.000051 -0.000289
N -3.192850 1.787476 -3.243280 0.000021 -0.000007 -0.000055
N 0.021743 -3.680429 1.821452 0.000005 0.000036 0.000029
N -0.023032 -3.687835 6.850528 -0.000098 0.000167 -0.000176
N -0.018893 -3.746821 -3.309335 -0.000158 -0.000160 0.000040
N -1.610456 -0.997075 1.771427 -0.000072 -0.000101 0.000071
N -1.603931 -0.912194 6.925964 -0.000013 0.000081 0.000008
N -1.651409 -0.922341 -3.330954 -0.000093 -0.000004 -0.000263
