108
Energy=-940194.481728 Lattice="9.456602 0.000000 0.000000 -4.732748 8.185933 0.000000 -0.002247 0.001242 15.228071" Stress="0.000004 -0.000003 -0.000001 -0.000003 0.000003 0.000000 -0.000001 0.000000 0.000011" Properties=species:S:1:pos:R:3:forces:R:3
Al 1.548776 0.869989 2.400155 0.000949 0.000939 -0.001045
Al 1.548216 0.876467 7.452227 0.000131 0.000174 -0.000536
Al 1.542073 0.866382 -2.685607 0.000314 -0.000139 0.000547
Al -0.010722 3.592811 2.382047 0.000016 -0.000181 -0.000819
Al -0.012211 3.588198 7.452077 0.000411 -0.000205 0.000684
Al -0.027156 3.582102 -2.660745 0.001307 0.000691 -0.000358
Al 3.143364 -1.845896 2.378523 -0.001711 0.000819 -0.001443
Al 3.143625 -1.836313 7.467861 0.000189 0.000464 -0.000271
Al 3.126345 -1.850438 -2.675336 0.000385 0.001027 0.000549
Al -4.749994 0.861250 2.403134 0.000532 -0.000797 0.000802
Al -4.755888 0.859713 7.448461 0.000528 -0.000075 -0.000390
Al -4.747951 0.869966 -2.685555 0.000166 0.000391 -0.000441
Al -6.348974 3.592827 2.415299 -0.000335 -0.000875 -0.000418
Al -6.339339 3.594794 7.443067 -0.001192 -0.000576 0.000285
Al -6.328710 3.593991 -2.682760 0.001074 0.000005 0.001333
Al -3.182022 -1.860196 2.383285 -0.000834 -0.000392 0.000468
Al -3.186488 -1.851944 7.451345 -0.000350 0.000021 -0.000514
Ga -3.167996 -1.845837 -2.672822 -0.000567 -0.000311 0.000455
Al -1.602418 0.873277 2.387914 0.000885 -0.002419 0.000179
Al -1.603207 0.873723 7.464218 0.000809 -0.000349 0.000471
Al -1.595702 0.878651 -2.687999 0.000474 0.000309 -0.000258
Ga -3.165341 3.583024 2.396851 -0.000423 0.000063 -0.000543
Ga -3.186425 3.587096 7.474713 0.000490 -0.000287 0.000091
Al -3.176400 3.591118 -2.687419 -0.000464 -0.000193 0.000082
Ga -0.024662 -1.839009 2.400614 -0.000057 0.000280 0.000421
Ga -0.026778 -1.848952 7.466207 0.000173 0.000434 0.000269
Al -0.015213 -1.848581 -2.699246 0.000160 0.000232 0.000162
Al -0.025631 1.770398 4.919027 -0.000240 -0.000180 -0.000149
Al -0.033093 1.764615 -5.224443 -0.000096 -0.000854 0.000292
Al -0.032860 1.773767 -0.145108 0.000136 -0.000249 0.000227
Ga 3.142721 -3.665259 4.935088 -0.000362 -0.000444 -0.000217
Ga 3.133838 -3.673650 -5.209805 -0.000047 0.000130 -0.000124
Al 3.146397 -3.676178 -0.157053 -0.000109 0.000107 -0.000858
Al 1.557584 -0.936063 4.931560 0.002088 0.001062 -0.000599
Al 1.555386 -0.943937 -5.216492 -0.000191 -0.000401 0.000351
Al 1.556828 -0.946485 -0.158029 -0.000311 0.000311 -0.002835
Al 3.123942 1.777309 4.923083 0.000114 -0.000393 -0.000347
Ga 3.133387 1.770951 -5.226937 -0.000014 -0.000135 0.000115
Ga 3.127483 1.766855 -0.142604 -0.000584 0.000260 0.000970
Al 6.287512 -3.674340 4.924838 0.000022 0.000139 -0.000305
Ga 6.288046 -3.672659 -5.232128 -0.000028 0.000004 -0.000070
Al 6.274855 -3.677589 -0.134510 0.000737 0.001474 0.000510
Al 4.708612 -0.944315 4.918018 0.001278 0.001144 0.000597
Al 4.710137 -0.938194 -5.233331 -0.000459 -0.000097 0.000810
Al 4.705891 -0.950398 -0.132716 0.002454 -0.000949 -0.000445
Al -3.180055 1.758054 4.933889 0.000360 0.001054 -0.001730
Al -3.173551 1.762193 -5.217571 0.000591 -0.000189 0.000411
Al -3.164097 1.762685 -0.161215 0.000652 0.000063 0.002230
Al -0.038923 -3.682583 4.928981 -0.000140 0.003062 -0.002146
Al -0.024183 -3.671621 -5.200218 0.000057 -0.000105 0.000445
Ga -0.017815 -3.671205 -0.160132 -0.000688 0.000454 0.000518
Al -1.610843 -0.939493 4.926027 0.000728 0.000133 -0.000488
Al -1.596982 -0.934116 -5.226851 0.000129 0.000210 -0.003748
Al -1.600308 -0.935583 -0.147092 0.003895 0.002330 0.002401
N 1.546258 0.870043 4.320642 0.000426 0.000019 -0.000462
N 1.510477 0.845837 -5.855480 -0.000448 0.000289 0.000380
N 1.508516 0.847286 -0.770572 -0.000306 0.000559 -0.001354
N 0.015897 3.573833 4.297716 0.000267 -0.000073 0.000572
N -0.022865 3.544454 -5.865502 -0.000099 0.000582 -0.001261
N -0.019191 3.590581 -0.741550 0.000263 0.000770 0.000024
N 3.134898 -1.804339 4.294297 -0.002598 -0.000662 -0.001822
N 3.131848 -1.808365 -5.846991 0.000061 0.000643 0.000686
N 3.134488 -1.853916 -0.752779 0.000921 -0.000027 0.000056
N -4.753813 0.869614 4.323112 0.000320 0.000075 0.000477
N -4.710071 0.848764 -5.861744 0.000121 -0.000277 -0.000178
N -4.709129 0.839582 -0.777516 0.000026 0.000515 0.001897
N -6.338567 3.597274 4.328828 0.000155 0.000345 0.000329
N -6.284248 3.621555 -5.874606 0.000099 0.000047 -0.000091
N -6.372385 3.618620 -0.781043 0.000033 -0.000211 -0.000757
N -3.176350 -1.858972 4.311685 0.000245 -0.000217 0.000420
N -3.174289 -1.809415 -5.857373 0.000266 0.000337 0.000811
N -3.150520 -1.845913 -0.693202 -0.009597 -0.004666 -0.000138
N -1.602956 0.873061 4.308980 0.000296 0.000022 0.000195
N -1.601638 0.874276 -5.837994 0.000395 0.000010 -0.000718
N -1.596900 0.870332 -0.766484 0.000600 0.000156 -0.000170
N -3.215095 3.577620 4.366369 0.000842 -0.001938 0.000585
N -3.222040 3.572484 -5.777704 0.000250 0.000159 -0.000183
N -3.132393 3.571463 -0.767994 -0.000346 -0.000804 -0.000025
N -0.013553 -1.840507 4.379175 -0.003432 -0.003950 0.001091
N -0.018377 -1.858554 -5.775262 -0.000317 0.000058 -0.000261
N -0.023276 -1.805299 -0.776334 0.000212 -0.000023 -0.001936
N -0.024748 1.773643 1.781460 0.000002 0.000200 -0.000172
N -0.029797 1.775229 6.842152 0.000030 0.000124 -0.000100
N -0.024677 1.780113 -3.298343 0.000002 0.000624 0.000006
N 3.177764 -3.656148 1.763362 -0.000453 0.001091 0.000903
N 3.173238 -3.648449 6.907448 -0.000593 -0.000042 -0.000025
N 3.137799 -3.673559 -3.227109 0.000794 -0.000603 0.000046
N 1.587222 -0.919274 1.740712 0.003140 -0.001734 0.006638
N 1.597332 -0.923529 6.837263 -0.000012 -0.000367 0.001565
N 1.562002 -0.947863 -3.295206 -0.000049 0.000273 -0.000081
N 3.136594 1.775021 1.845490 -0.002793 0.000729 -0.000365
N 3.124873 1.777349 6.852189 0.000166 -0.000029 0.000027
N 3.128181 1.776311 -3.242221 -0.000376 -0.000274 -0.000142
N 6.286830 -3.681129 1.789027 -0.000140 -0.000065 -0.000776
N 6.280282 -3.672829 6.850015 0.000040 -0.000266 0.000032
N 6.285054 -3.719327 -3.261105 -0.002660 -0.000634 0.000103
N 4.707383 -0.944087 1.786244 -0.000299 -0.000402 -0.000765
N 4.705022 -0.949681 6.839310 -0.000221 0.000168 -0.000010
N 4.668994 -0.923788 -3.309733 -0.000671 -0.001404 -0.002720
N -3.176504 1.724237 1.767036 -0.000562 0.001093 -0.003864
N -3.173777 1.729175 6.838727 -0.001302 -0.000148 0.000718
N -3.175671 1.773307 -3.295412 0.000107 0.000215 0.000284
N -0.064010 -3.700606 1.808623 0.000639 0.000084 -0.000646
N -0.064685 -3.697681 6.822767 0.000616 0.000230 0.000430
N -0.023747 -3.678070 -3.278091 0.000203 0.000134 0.000431
N -1.644031 -0.929954 1.770496 0.002034 0.003120 -0.000406
N -1.643928 -0.921043 6.841562 0.000080 0.000176 -0.000372
N -1.560333 -0.915113 -3.329543 0.000594 -0.001023 0.005519
