108
Energy=-5.739908e+05 Lattice="9.412743e+00 0.000000e+00 0.000000e+00 -4.706232e+00 8.152196e+00 0.000000e+00 1.134485e-03 3.604630e-06 1.509549e+01" Stress="1.141436e-05 -9.513036e-07 1.123169e-05 8.044589e-07 2.784240e-05 1.076898e-05 1.427325e-05 9.885043e-06 -4.620448e-05" Properties=species:S:1:pos:R:3:forces:R:3 Config_type=AlGaN_super3_3_2_19.xyz
Al 1.546631e+00 8.680298e-01 2.373046e+00 3.435386e-05 -8.748047e-06 8.552277e-06
Al 1.547794e+00 8.698159e-01 7.391821e+00 2.530396e-05 6.022298e-07 -1.344663e-06
Al 1.549841e+00 8.736303e-01 -2.667726e+00 2.393816e-05 1.933453e-08 -7.789867e-06
Al -2.104568e-02 3.585378e+00 2.368760e+00 2.024454e-05 -9.788729e-06 -8.185346e-07
Al -2.296587e-02 3.584406e+00 7.396022e+00 1.543690e-05 -2.164004e-06 2.802894e-06
Al -2.213307e-02 3.583667e+00 -2.669802e+00 2.349636e-05 -7.082954e-06 -2.651610e-05
Al 3.116874e+00 -1.850551e+00 2.373252e+00 3.204048e-05 -2.471820e-06 -1.665003e-05
Al 3.117788e+00 -1.852646e+00 7.391771e+00 1.901927e-05 -5.726693e-06 -1.123064e-06
Al 3.123449e+00 -1.849929e+00 -2.667312e+00 2.199374e-05 7.058670e-06 -5.686754e-06
Al -4.728439e+00 8.670595e-01 2.368196e+00 1.026557e-05 -1.590478e-05 -2.675534e-06
Al -4.734458e+00 8.647887e-01 7.384966e+00 2.034851e-05 -2.564660e-06 2.335639e-06
Al -4.736101e+00 8.622688e-01 -2.655911e+00 3.169418e-05 6.678808e-07 -3.251413e-06
Al -6.300050e+00 3.584193e+00 2.373059e+00 -5.795552e-06 -2.581671e-05 8.093025e-06
Al -6.297929e+00 3.582111e+00 7.391422e+00 1.000325e-05 -2.550365e-06 -7.856651e-08
Al -6.301492e+00 3.577497e+00 -2.667968e+00 2.177438e-05 1.770538e-06 -8.544435e-06
Al -3.168396e+00 -1.856149e+00 2.387216e+00 -3.467147e-05 -2.805275e-05 1.671327e-05
Al -3.160570e+00 -1.850669e+00 7.390736e+00 1.214998e-05 -6.605768e-06 -5.769205e-06
Al -3.173212e+00 -1.853223e+00 -2.678448e+00 2.881264e-05 8.401685e-06 -7.305588e-06
Al -1.591831e+00 8.771836e-01 2.386377e+00 8.326672e-07 -1.325639e-05 -2.023678e-05
Al -1.586243e+00 8.656689e-01 7.380724e+00 1.912758e-05 -1.084694e-05 -3.394476e-07
Al -1.588920e+00 8.757030e-01 -2.663460e+00 -1.005208e-06 -2.938744e-05 8.188494e-05
Al -3.158675e+00 3.583139e+00 2.372465e+00 2.873756e-05 -1.496876e-05 2.265871e-05
Al -3.157672e+00 3.589636e+00 7.381379e+00 1.317041e-05 -1.251261e-05 -1.787364e-06
Al -3.157260e+00 3.584934e+00 -2.652855e+00 2.214610e-05 -1.942325e-05 -3.828728e-06
Al -1.432278e-02 -1.854105e+00 2.383900e+00 1.527288e-05 1.518876e-08 1.158583e-05
Al -2.275896e-02 -1.850749e+00 7.392938e+00 1.348362e-05 -1.807076e-05 -4.514749e-06
Ga -1.794948e-02 -1.853278e+00 -2.672498e+00 3.193400e-05 -3.100711e-05 2.416802e-05
Al -1.952760e-02 1.776204e+00 4.883086e+00 2.774035e-05 2.569932e-06 -6.527327e-07
Al -1.351370e-02 1.772712e+00 -5.188469e+00 1.978700e-05 5.846657e-06 6.103196e-06
Al -1.639812e-02 1.780138e+00 -1.445153e-01 -1.318379e-04 -1.020445e-04 -5.079614e-05
Al 3.117926e+00 -3.662099e+00 4.879034e+00 2.692657e-05 -1.159186e-07 -2.992623e-06
Al 3.118255e+00 -3.654929e+00 -5.184746e+00 1.548419e-05 3.843834e-06 -1.784453e-06
Al 3.116119e+00 -3.661057e+00 -1.472287e-01 -6.401019e-06 3.450982e-05 1.597021e-05
Al 1.548716e+00 -9.443986e-01 4.886051e+00 2.127900e-05 -8.741859e-06 4.354645e-06
Al 1.552258e+00 -9.412751e-01 -5.200674e+00 2.145486e-06 -4.415219e-07 -6.842400e-06
Al 1.561956e+00 -9.405029e-01 -1.346572e-01 -1.302213e-05 -3.449497e-05 -9.276050e-06
Al 3.114713e+00 1.773263e+00 4.878599e+00 2.798163e-05 -8.011712e-06 -5.960223e-06
Al 3.105792e+00 1.773046e+00 -5.183601e+00 2.268083e-05 -9.604111e-06 1.852787e-06
Al 3.113339e+00 1.772833e+00 -1.468560e-01 3.465368e-06 2.003641e-05 4.360942e-05
Al 6.251416e+00 -3.664464e+00 4.887908e+00 2.332880e-05 -8.406788e-07 -2.690458e-06
Al 6.252755e+00 -3.663403e+00 -5.190946e+00 2.547928e-05 -7.960548e-06 -8.992493e-06
Al 6.248580e+00 -3.669278e+00 -1.495675e-01 1.409357e-05 2.745286e-05 3.136843e-05
Al 4.682702e+00 -9.450021e-01 4.883211e+00 2.579490e-05 -2.142728e-05 -6.228731e-06
Al 4.678027e+00 -9.517013e-01 -5.188227e+00 1.192238e-05 -1.155035e-05 -5.595609e-06
Al 4.675451e+00 -9.471442e-01 -1.447758e-01 -4.557633e-07 2.324768e-05 3.533153e-05
Al -3.161996e+00 1.773885e+00 4.884957e+00 2.110633e-05 -8.340935e-06 7.710437e-06
Ga -3.161807e+00 1.773996e+00 -5.182455e+00 3.783703e-05 -1.217399e-05 -6.150186e-06
Al -3.164306e+00 1.779633e+00 -1.477425e-01 1.004908e-04 -7.251119e-05 -1.087999e-04
Al -2.321366e-02 -3.662960e+00 4.882403e+00 2.409912e-05 -1.389198e-05 5.851798e-06
Al -2.704174e-02 -3.661981e+00 -5.198222e+00 2.430800e-05 -5.899232e-06 -7.889751e-06
Al -2.021792e-02 -3.677040e+00 -1.300378e-01 9.066569e-06 1.588627e-04 -1.647863e-04
Al -1.590820e+00 -9.461461e-01 4.878721e+00 7.040255e-06 -2.109475e-05 -2.085044e-06
Al -1.592204e+00 -9.487558e-01 -5.196099e+00 8.421410e-06 -1.821302e-05 8.896757e-06
Ga -1.598948e+00 -9.433960e-01 -1.266222e-01 1.730305e-05 5.303383e-05 -2.489284e-05
N 1.546522e+00 8.666661e-01 4.287455e+00 -2.008864e-05 1.280607e-05 1.937523e-07
N 1.546848e+00 8.703800e-01 -5.788879e+00 -5.027188e-06 1.032955e-05 -2.116393e-06
N 1.545937e+00 8.662859e-01 -7.456419e-01 -9.962934e-07 1.858868e-05 2.275276e-05
N -2.031759e-02 3.584912e+00 4.283824e+00 -3.045690e-05 6.247997e-06 6.112544e-06
N -2.417005e-02 3.584305e+00 -5.780610e+00 -2.190045e-05 1.821326e-06 -1.551522e-07
N -2.259728e-02 3.583962e+00 -7.487965e-01 -4.140461e-05 -7.330355e-06 1.430664e-05
N 3.115800e+00 -1.850440e+00 4.287441e+00 -2.739837e-05 8.816172e-06 1.603915e-06
N 3.117284e+00 -1.853523e+00 -5.789196e+00 -5.163699e-06 6.145329e-07 5.843032e-06
N 3.115102e+00 -1.851006e+00 -7.471190e-01 -1.009255e-05 3.397373e-06 -4.211715e-06
N -4.728493e+00 8.667163e-01 4.285372e+00 -1.844382e-05 2.085958e-05 9.501695e-07
N -4.772758e+00 8.433672e-01 -5.800802e+00 -1.435798e-05 1.752223e-05 4.047536e-06
N -4.732212e+00 8.639489e-01 -7.371584e-01 -2.391364e-05 9.771875e-06 1.397544e-05
N -6.299265e+00 3.584823e+00 4.287621e+00 -3.068965e-05 1.487700e-05 -5.325865e-07
N -6.299968e+00 3.581166e+00 -5.787561e+00 -2.551863e-05 7.748718e-06 1.158341e-06
N -6.297005e+00 3.584426e+00 -7.456696e-01 -1.773529e-05 9.947545e-06 8.258247e-06
N -3.164193e+00 -1.854823e+00 4.297609e+00 -2.369957e-05 1.021848e-05 1.092848e-05
N -3.162839e+00 -1.851636e+00 -5.786299e+00 -1.594681e-05 1.184559e-05 -8.947064e-07
N -3.202048e+00 -1.874952e+00 -7.658520e-01 -3.399607e-05 8.420237e-06 1.461493e-05
N -1.591092e+00 8.725243e-01 4.298609e+00 -1.146819e-05 5.364494e-06 -3.414104e-06
N -1.550183e+00 8.461427e-01 -5.805710e+00 -6.940355e-06 2.209831e-06 5.586937e-07
N -1.587846e+00 9.124494e-01 -7.551003e-01 4.411499e-05 1.799008e-04 3.169383e-05
N -3.159246e+00 3.583949e+00 4.288710e+00 -2.809605e-05 3.308928e-06 -8.179404e-06
N -3.156822e+00 3.631804e+00 -5.807120e+00 -2.235185e-05 -5.487694e-06 5.452694e-06
N -3.160566e+00 3.588486e+00 -7.369928e-01 -1.745683e-06 2.750993e-06 -7.830668e-06
N -1.722127e-02 -1.852368e+00 4.295877e+00 -1.732595e-05 -1.854707e-06 -6.505914e-06
N -2.270910e-02 -1.850593e+00 -5.782312e+00 -8.767921e-06 -5.834279e-06 6.120705e-06
N 1.916821e-02 -1.875288e+00 -7.032174e-01 -2.072098e-05 -8.992335e-05 3.224064e-05
N -2.190907e-02 1.773423e+00 1.775416e+00 1.126050e-05 3.278753e-06 -8.411030e-06
N -1.857992e-02 1.776409e+00 6.795227e+00 -2.101479e-05 1.628252e-05 -1.698646e-06
N -2.034689e-02 1.773121e+00 -3.268715e+00 -2.495978e-05 1.912368e-05 6.391658e-06
N 3.115902e+00 -3.661275e+00 1.773885e+00 -2.767415e-06 -1.394403e-05 -2.467192e-05
N 3.119657e+00 -3.661502e+00 6.791789e+00 -1.674078e-05 1.656596e-05 -4.170642e-06
N 3.113809e+00 -3.662158e+00 -3.262181e+00 -2.136058e-05 8.894761e-06 1.399433e-05
N 1.550485e+00 -9.427638e-01 1.781693e+00 -2.770297e-05 1.574100e-05 8.566771e-06
N 1.548123e+00 -9.443060e-01 6.802695e+00 -3.116494e-05 1.539705e-05 2.568379e-06
N 1.591446e+00 -9.187865e-01 -3.289420e+00 -2.807480e-05 1.007836e-05 2.852842e-06
N 3.114128e+00 1.773785e+00 1.773657e+00 7.470218e-06 -1.887944e-05 -4.059246e-05
N 3.113882e+00 1.774092e+00 6.791140e+00 -1.683337e-05 1.360104e-06 -5.364057e-06
N 3.115285e+00 1.772414e+00 -3.263062e+00 -2.536920e-05 -4.012737e-06 1.476401e-05
N 6.252945e+00 -3.661055e+00 1.771197e+00 1.171809e-05 -1.403589e-05 -2.843204e-05
N 6.251987e+00 -3.663604e+00 6.802496e+00 -1.246765e-05 1.453318e-07 2.953398e-06
N 6.253298e+00 -3.664853e+00 -3.270700e+00 -2.476496e-05 -5.805404e-06 1.105293e-05
N 4.684855e+00 -9.460840e-01 1.775186e+00 -1.853190e-06 -2.495385e-05 -4.071042e-05
N 4.684007e+00 -9.462524e-01 6.795063e+00 -2.855030e-05 4.594239e-06 -1.375088e-06
N 4.681286e+00 -9.425279e-01 -3.270344e+00 -2.673638e-05 -8.597351e-06 1.486884e-05
N -3.159464e+00 1.773087e+00 1.773675e+00 -1.628190e-05 7.440001e-06 6.003958e-05
N -3.161585e+00 1.772900e+00 6.800449e+00 -1.818184e-05 7.544979e-06 2.019658e-06
N -3.163936e+00 1.773593e+00 -3.207611e+00 -2.434590e-05 2.719447e-05 -1.808885e-05
N -2.338821e-02 -3.665451e+00 1.785014e+00 8.083445e-08 -3.455866e-05 9.815260e-05
N -2.491557e-02 -3.661719e+00 6.796226e+00 -1.294808e-05 9.834716e-06 3.563180e-06
N -2.232604e-02 -3.713935e+00 -3.288042e+00 -2.552815e-05 1.002374e-05 4.522219e-07
N -1.594459e+00 -9.435118e-01 1.847965e+00 4.872563e-05 -4.244670e-05 -6.212165e-06
N -1.591069e+00 -9.476288e-01 6.794639e+00 -2.359042e-05 1.038944e-05 4.321862e-06
N -1.633181e+00 -9.198335e-01 -3.282110e+00 -2.805920e-05 2.777206e-06 -1.897366e-05
