108
Energy=-9.401945e+05 Lattice="9.456602e+00 0.000000e+00 0.000000e+00 -4.732748e+00 8.185933e+00 0.000000e+00 -2.247170e-03 1.242466e-03 1.522807e+01" Stress="7.327833e-04 -5.864484e-04 -2.027236e-04 -5.940143e-04 4.723549e-04 4.091078e-05 -2.054554e-04 3.230556e-05 2.048586e-03" Properties=species:S:1:pos:R:3:forces:R:3 Config_type=AlGaN_super3_11_1_43.xyz
Al 1.548776e+00 8.699890e-01 2.400155e+00 9.493198e-04 9.386298e-04 -1.044594e-03
Al 1.548216e+00 8.764674e-01 7.452227e+00 1.313289e-04 1.739693e-04 -5.359119e-04
Al 1.542073e+00 8.663821e-01 -2.685607e+00 3.144670e-04 -1.391910e-04 5.471442e-04
Al -1.072241e-02 3.592811e+00 2.382047e+00 1.565332e-05 -1.814887e-04 -8.189681e-04
Al -1.221074e-02 3.588198e+00 7.452077e+00 4.105742e-04 -2.054824e-04 6.843050e-04
Al -2.715596e-02 3.582102e+00 -2.660745e+00 1.306676e-03 6.913497e-04 -3.578292e-04
Al 3.143364e+00 -1.845896e+00 2.378523e+00 -1.711374e-03 8.194587e-04 -1.443483e-03
Al 3.143625e+00 -1.836313e+00 7.467861e+00 1.889959e-04 4.643590e-04 -2.707790e-04
Al 3.126345e+00 -1.850438e+00 -2.675336e+00 3.851097e-04 1.026976e-03 5.490864e-04
Al -4.749994e+00 8.612496e-01 2.403134e+00 5.322152e-04 -7.969615e-04 8.017350e-04
Al -4.755888e+00 8.597132e-01 7.448461e+00 5.277367e-04 -7.475307e-05 -3.897239e-04
Al -4.747951e+00 8.699665e-01 -2.685555e+00 1.655212e-04 3.907072e-04 -4.413544e-04
Al -6.348974e+00 3.592827e+00 2.415299e+00 -3.350811e-04 -8.746012e-04 -4.178109e-04
Al -6.339339e+00 3.594794e+00 7.443067e+00 -1.191979e-03 -5.757652e-04 2.848823e-04
Al -6.328710e+00 3.593991e+00 -2.682760e+00 1.073912e-03 5.186725e-06 1.333148e-03
Al -3.182022e+00 -1.860196e+00 2.383285e+00 -8.336724e-04 -3.920773e-04 4.678662e-04
Al -3.186488e+00 -1.851944e+00 7.451345e+00 -3.502548e-04 2.110933e-05 -5.137241e-04
Ga -3.167996e+00 -1.845837e+00 -2.672822e+00 -5.671888e-04 -3.108352e-04 4.550853e-04
Al -1.602418e+00 8.732769e-01 2.387914e+00 8.850665e-04 -2.418731e-03 1.790591e-04
Al -1.603207e+00 8.737232e-01 7.464218e+00 8.086354e-04 -3.494878e-04 4.708351e-04
Al -1.595702e+00 8.786510e-01 -2.687999e+00 4.741961e-04 3.085030e-04 -2.581053e-04
Ga -3.165341e+00 3.583024e+00 2.396851e+00 -4.233514e-04 6.335286e-05 -5.428080e-04
Ga -3.186425e+00 3.587096e+00 7.474713e+00 4.899698e-04 -2.871172e-04 9.056493e-05
Al -3.176400e+00 3.591118e+00 -2.687419e+00 -4.638889e-04 -1.930504e-04 8.225467e-05
Ga -2.466166e-02 -1.839009e+00 2.400614e+00 -5.717871e-05 2.799685e-04 4.212801e-04
Ga -2.677785e-02 -1.848952e+00 7.466207e+00 1.730676e-04 4.337973e-04 2.689930e-04
Al -1.521343e-02 -1.848581e+00 -2.699246e+00 1.599284e-04 2.320480e-04 1.618875e-04
Al -2.563068e-02 1.770398e+00 4.919027e+00 -2.400902e-04 -1.798016e-04 -1.489154e-04
Al -3.309321e-02 1.764615e+00 -5.224443e+00 -9.563939e-05 -8.542339e-04 2.922949e-04
Al -3.285992e-02 1.773767e+00 -1.451084e-01 1.364788e-04 -2.490407e-04 2.271162e-04
Ga 3.142721e+00 -3.665259e+00 4.935088e+00 -3.622731e-04 -4.440348e-04 -2.172798e-04
Ga 3.133838e+00 -3.673650e+00 -5.209805e+00 -4.662369e-05 1.297361e-04 -1.238092e-04
Al 3.146397e+00 -3.676178e+00 -1.570533e-01 -1.085434e-04 1.070012e-04 -8.584450e-04
Al 1.557584e+00 -9.360630e-01 4.931560e+00 2.088142e-03 1.062420e-03 -5.991477e-04
Al 1.555386e+00 -9.439367e-01 -5.216492e+00 -1.907665e-04 -4.005098e-04 3.514110e-04
Al 1.556828e+00 -9.464855e-01 -1.580288e-01 -3.114529e-04 3.106873e-04 -2.834609e-03
Al 3.123942e+00 1.777309e+00 4.923083e+00 1.140596e-04 -3.930431e-04 -3.467697e-04
Ga 3.133387e+00 1.770951e+00 -5.226937e+00 -1.408909e-05 -1.352132e-04 1.150696e-04
Ga 3.127483e+00 1.766855e+00 -1.426042e-01 -5.841773e-04 2.598329e-04 9.695305e-04
Al 6.287512e+00 -3.674340e+00 4.924838e+00 2.178900e-05 1.394624e-04 -3.046563e-04
Ga 6.288046e+00 -3.672659e+00 -5.232128e+00 -2.756723e-05 3.635178e-06 -7.026533e-05
Al 6.274855e+00 -3.677589e+00 -1.345104e-01 7.374817e-04 1.473720e-03 5.096612e-04
Al 4.708612e+00 -9.443152e-01 4.918018e+00 1.278075e-03 1.144318e-03 5.965681e-04
Al 4.710137e+00 -9.381937e-01 -5.233331e+00 -4.590789e-04 -9.704102e-05 8.099493e-04
Al 4.705891e+00 -9.503985e-01 -1.327161e-01 2.453547e-03 -9.491983e-04 -4.446175e-04
Al -3.180055e+00 1.758054e+00 4.933889e+00 3.597226e-04 1.054159e-03 -1.730159e-03
Al -3.173551e+00 1.762193e+00 -5.217571e+00 5.913268e-04 -1.887201e-04 4.114366e-04
Al -3.164097e+00 1.762685e+00 -1.612153e-01 6.515048e-04 6.309839e-05 2.229991e-03
Al -3.892257e-02 -3.682583e+00 4.928981e+00 -1.401672e-04 3.062454e-03 -2.146394e-03
Al -2.418275e-02 -3.671621e+00 -5.200218e+00 5.678668e-05 -1.047083e-04 4.446285e-04
Ga -1.781467e-02 -3.671205e+00 -1.601322e-01 -6.876099e-04 4.538867e-04 5.176754e-04
Al -1.610843e+00 -9.394933e-01 4.926027e+00 7.283035e-04 1.325204e-04 -4.884845e-04
Al -1.596982e+00 -9.341158e-01 -5.226851e+00 1.292656e-04 2.098806e-04 -3.748349e-03
Al -1.600308e+00 -9.355829e-01 -1.470920e-01 3.894745e-03 2.329788e-03 2.400946e-03
N 1.546258e+00 8.700431e-01 4.320642e+00 4.263900e-04 1.886327e-05 -4.615908e-04
N 1.510477e+00 8.458373e-01 -5.855480e+00 -4.477382e-04 2.886339e-04 3.799908e-04
N 1.508516e+00 8.472862e-01 -7.705717e-01 -3.062441e-04 5.587953e-04 -1.354078e-03
N 1.589654e-02 3.573833e+00 4.297716e+00 2.665362e-04 -7.322590e-05 5.718069e-04
N -2.286546e-02 3.544454e+00 -5.865502e+00 -9.933825e-05 5.817534e-04 -1.261419e-03
N -1.919105e-02 3.590581e+00 -7.415499e-01 2.628653e-04 7.702113e-04 2.397037e-05
N 3.134898e+00 -1.804339e+00 4.294297e+00 -2.597915e-03 -6.619662e-04 -1.821524e-03
N 3.131848e+00 -1.808365e+00 -5.846991e+00 6.091711e-05 6.427791e-04 6.861358e-04
N 3.134488e+00 -1.853916e+00 -7.527789e-01 9.212494e-04 -2.711852e-05 5.615586e-05
N -4.753813e+00 8.696142e-01 4.323112e+00 3.196606e-04 7.493575e-05 4.767990e-04
N -4.710071e+00 8.487640e-01 -5.861744e+00 1.213594e-04 -2.765752e-04 -1.776983e-04
N -4.709129e+00 8.395817e-01 -7.775156e-01 2.635108e-05 5.145891e-04 1.897430e-03
N -6.338567e+00 3.597274e+00 4.328828e+00 1.549610e-04 3.448263e-04 3.291035e-04
N -6.284248e+00 3.621555e+00 -5.874606e+00 9.941148e-05 4.711812e-05 -9.131106e-05
N -6.372385e+00 3.618620e+00 -7.810428e-01 3.306094e-05 -2.108886e-04 -7.566620e-04
N -3.176350e+00 -1.858972e+00 4.311685e+00 2.446653e-04 -2.167132e-04 4.198747e-04
N -3.174289e+00 -1.809415e+00 -5.857373e+00 2.663474e-04 3.371449e-04 8.105594e-04
N -3.150520e+00 -1.845913e+00 -6.932015e-01 -9.597348e-03 -4.665988e-03 -1.377669e-04
N -1.602956e+00 8.730614e-01 4.308980e+00 2.956422e-04 2.226511e-05 1.946054e-04
N -1.601638e+00 8.742762e-01 -5.837994e+00 3.952240e-04 9.934233e-06 -7.184611e-04
N -1.596900e+00 8.703321e-01 -7.664837e-01 5.999154e-04 1.557178e-04 -1.702731e-04
N -3.215095e+00 3.577620e+00 4.366369e+00 8.415763e-04 -1.938457e-03 5.846972e-04
N -3.222040e+00 3.572484e+00 -5.777704e+00 2.499582e-04 1.585096e-04 -1.834223e-04
N -3.132393e+00 3.571463e+00 -7.679937e-01 -3.458460e-04 -8.036286e-04 -2.451303e-05
N -1.355261e-02 -1.840507e+00 4.379175e+00 -3.432365e-03 -3.950426e-03 1.091121e-03
N -1.837659e-02 -1.858554e+00 -5.775262e+00 -3.167501e-04 5.839989e-05 -2.613090e-04
N -2.327572e-02 -1.805299e+00 -7.763343e-01 2.123323e-04 -2.284945e-05 -1.935513e-03
N -2.474789e-02 1.773643e+00 1.781460e+00 1.906757e-06 2.000892e-04 -1.724548e-04
N -2.979655e-02 1.775229e+00 6.842152e+00 2.972756e-05 1.242210e-04 -1.002140e-04
N -2.467684e-02 1.780113e+00 -3.298343e+00 2.130231e-06 6.244815e-04 5.535478e-06
N 3.177764e+00 -3.656148e+00 1.763362e+00 -4.531935e-04 1.090582e-03 9.025032e-04
N 3.173238e+00 -3.648449e+00 6.907448e+00 -5.929536e-04 -4.219118e-05 -2.548089e-05
N 3.137799e+00 -3.673559e+00 -3.227109e+00 7.939775e-04 -6.032393e-04 4.634570e-05
N 1.587222e+00 -9.192742e-01 1.740712e+00 3.140368e-03 -1.733602e-03 6.637505e-03
N 1.597332e+00 -9.235292e-01 6.837263e+00 -1.225651e-05 -3.668448e-04 1.565105e-03
N 1.562002e+00 -9.478633e-01 -3.295206e+00 -4.908966e-05 2.733176e-04 -8.115696e-05
N 3.136594e+00 1.775021e+00 1.845490e+00 -2.792789e-03 7.290632e-04 -3.649422e-04
N 3.124873e+00 1.777349e+00 6.852189e+00 1.660870e-04 -2.864253e-05 2.709662e-05
N 3.128181e+00 1.776311e+00 -3.242221e+00 -3.760477e-04 -2.738778e-04 -1.419831e-04
N 6.286830e+00 -3.681129e+00 1.789027e+00 -1.402880e-04 -6.498262e-05 -7.764237e-04
N 6.280282e+00 -3.672829e+00 6.850015e+00 3.992262e-05 -2.655320e-04 3.178708e-05
N 6.285054e+00 -3.719327e+00 -3.261105e+00 -2.659704e-03 -6.341054e-04 1.026836e-04
N 4.707383e+00 -9.440874e-01 1.786244e+00 -2.986683e-04 -4.022170e-04 -7.648232e-04
N 4.705022e+00 -9.496810e-01 6.839310e+00 -2.213942e-04 1.682665e-04 -1.036388e-05
N 4.668994e+00 -9.237885e-01 -3.309733e+00 -6.712518e-04 -1.404464e-03 -2.719726e-03
N -3.176504e+00 1.724237e+00 1.767036e+00 -5.620507e-04 1.092788e-03 -3.863634e-03
N -3.173777e+00 1.729175e+00 6.838727e+00 -1.302493e-03 -1.477174e-04 7.180597e-04
N -3.175671e+00 1.773307e+00 -3.295412e+00 1.068540e-04 2.146260e-04 2.843278e-04
N -6.401034e-02 -3.700606e+00 1.808623e+00 6.386036e-04 8.412521e-05 -6.464697e-04
N -6.468527e-02 -3.697681e+00 6.822767e+00 6.157153e-04 2.304451e-04 4.303068e-04
N -2.374650e-02 -3.678070e+00 -3.278091e+00 2.029727e-04 1.344143e-04 4.307440e-04
N -1.644031e+00 -9.299543e-01 1.770496e+00 2.033706e-03 3.120458e-03 -4.061219e-04
N -1.643928e+00 -9.210427e-01 6.841562e+00 7.971737e-05 1.763227e-04 -3.715983e-04
N -1.560333e+00 -9.151130e-01 -3.329543e+00 5.940574e-04 -1.023354e-03 5.519276e-03
