108
Energy=-1.626827e+06 Lattice="9.539322e+00 0.000000e+00 0.000000e+00 -4.769503e+00 8.260589e+00 0.000000e+00 -1.158081e-02 1.782993e-03 1.541519e+01" Stress="-2.206750e-06 -9.662424e-06 -4.833803e-04 -1.086097e-06 1.514314e-04 5.779700e-05 -4.917590e-04 5.267365e-05 -1.456748e-04" Properties=species:S:1:pos:R:3:forces:R:3 Config_type=AlGaN_super3_26_0_50.xyz
Al 1.568842e+00 8.679067e-01 2.436097e+00 7.711849e-05 2.050683e-05 3.733085e-05
Al 1.556683e+00 8.829053e-01 7.547921e+00 6.379149e-05 -6.140389e-05 7.322291e-06
Al 1.575626e+00 8.694881e-01 -2.723589e+00 -9.530947e-06 1.670582e-06 1.714218e-05
Al -1.633554e-02 3.646492e+00 2.427949e+00 -5.422703e-05 -2.396957e-05 5.833350e-05
Al -8.610229e-03 3.631844e+00 7.515234e+00 -3.212589e-05 1.948383e-05 -1.166843e-05
Ga -1.241294e-02 3.631176e+00 -2.683636e+00 -1.592049e-05 -4.387264e-06 1.729289e-05
Al 3.161987e+00 -1.864768e+00 2.406867e+00 -1.034939e-05 -8.463172e-06 1.027354e-04
Ga 3.151173e+00 -1.868930e+00 7.550689e+00 -1.367386e-05 -1.223774e-05 2.002846e-05
Ga 3.165931e+00 -1.850068e+00 -2.697801e+00 -1.422368e-05 6.489950e-06 -2.104767e-05
Al -4.799779e+00 8.584830e-01 2.396439e+00 -7.259118e-06 3.680665e-05 -1.236695e-05
Ga -4.812529e+00 8.713286e-01 7.585651e+00 -2.700369e-05 2.759721e-05 -2.993436e-06
Al -4.791965e+00 8.628637e-01 -2.715419e+00 5.942973e-06 5.832931e-06 2.831441e-05
Ga -6.410165e+00 3.631685e+00 2.440589e+00 -2.353275e-05 1.793707e-06 1.483197e-05
Al -6.402412e+00 3.640755e+00 7.537792e+00 1.435703e-04 -5.383382e-05 -2.171895e-04
Ga -6.395655e+00 3.617949e+00 -2.710669e+00 -9.086267e-06 2.984933e-06 1.996471e-05
Al -3.222632e+00 -1.879994e+00 2.399465e+00 3.278560e-05 -1.798757e-04 -2.908204e-04
Al -3.206757e+00 -1.891635e+00 7.553410e+00 -6.235774e-06 1.770559e-05 1.514746e-05
Al -3.207845e+00 -1.858783e+00 -2.690520e+00 2.415571e-06 -1.770427e-06 1.078592e-05
Ga -1.616374e+00 8.736226e-01 2.413221e+00 -1.904680e-05 3.987408e-05 -2.381907e-05
Ga -1.593454e+00 8.750955e-01 7.546459e+00 -3.201838e-05 -1.479483e-06 1.612911e-05
Al -1.616549e+00 8.677038e-01 -2.687846e+00 -7.458781e-06 5.417482e-07 9.263353e-06
Ga -3.192099e+00 3.629933e+00 2.428182e+00 -2.471045e-05 -2.294219e-05 -2.262210e-05
Ga -3.207559e+00 3.647223e+00 7.533618e+00 -3.244204e-05 3.160687e-06 -1.817290e-07
Ga -3.192131e+00 3.617281e+00 -2.682665e+00 -1.083651e-05 1.241199e-05 1.735336e-05
Ga -1.785238e-02 -1.858070e+00 2.426845e+00 -3.078050e-05 -1.214520e-05 1.341788e-05
Al -2.479289e-02 -1.872379e+00 7.541988e+00 -1.653120e-05 -2.430824e-05 7.263188e-06
Ga -2.059314e-02 -1.844882e+00 -2.697965e+00 -2.020683e-06 5.919464e-06 1.811692e-05
Al -8.510115e-03 1.808261e+00 4.975431e+00 2.126311e-04 -2.323390e-05 -3.422865e-05
Ga 3.877531e-03 1.790629e+00 -5.279347e+00 -1.366623e-05 -1.926015e-06 6.244595e-06
Ga -2.118425e-02 1.790107e+00 -1.393242e-01 -1.420114e-05 -6.746251e-06 1.156171e-05
Al 3.164602e+00 -3.703775e+00 4.964184e+00 1.447039e-04 -1.085065e-04 6.183943e-05
Ga 3.171617e+00 -3.697630e+00 -5.294148e+00 -2.822095e-05 3.612787e-06 9.436594e-06
Al 3.167172e+00 -3.698779e+00 -1.117861e-01 -4.843823e-05 -1.918824e-04 -4.125192e-07
Al 1.562555e+00 -9.597889e-01 4.984012e+00 -6.357988e-05 2.588323e-04 -1.407731e-04
Al 1.580671e+00 -9.421537e-01 -5.303914e+00 -4.495172e-06 8.959414e-06 8.078207e-06
Al 1.577418e+00 -9.528713e-01 -1.285082e-01 -8.642567e-06 7.603579e-06 -8.328314e-05
Ga 3.138379e+00 1.793728e+00 4.987479e+00 -7.647125e-05 7.958865e-06 -9.141502e-06
Al 3.152434e+00 1.779904e+00 -5.293010e+00 -8.591842e-06 -2.977490e-05 9.282875e-06
Ga 3.157563e+00 1.773577e+00 -1.366612e-01 -9.169917e-06 5.993059e-06 2.483700e-05
Al 6.322563e+00 -3.710234e+00 4.993546e+00 4.517006e-05 -1.437080e-04 -1.330936e-05
Ga 6.337692e+00 -3.705663e+00 -5.309662e+00 -3.623290e-05 1.139574e-05 3.458262e-05
Al 6.321498e+00 -3.688145e+00 -1.274793e-01 7.405284e-06 2.066752e-05 3.761444e-05
Ga 4.738736e+00 -9.749753e-01 4.959484e+00 -4.269154e-05 3.045109e-05 2.589442e-05
Al 4.748328e+00 -9.551980e-01 -5.268579e+00 -1.960011e-05 4.289464e-06 9.564846e-07
Al 4.753604e+00 -9.633658e-01 -1.374828e-01 1.157182e-04 1.374147e-04 3.006360e-06
Ga -3.207561e+00 1.802764e+00 4.981174e+00 -3.884199e-05 -9.785151e-06 1.045947e-05
Ga -3.208829e+00 1.785834e+00 -5.258546e+00 -1.949105e-05 5.557415e-06 1.395116e-06
Al -3.204247e+00 1.777496e+00 -1.547276e-01 9.995367e-05 -2.184456e-05 1.971486e-04
Al -2.721896e-02 -3.698507e+00 5.004147e+00 -4.881086e-05 -3.619603e-05 1.892068e-05
Ga -2.387097e-02 -3.705230e+00 -5.300235e+00 6.190610e-06 7.202379e-06 1.082961e-05
Ga -2.039635e-02 -3.703373e+00 -1.373513e-01 -1.149887e-05 -5.374324e-06 1.155727e-05
Ga -1.612774e+00 -9.775110e-01 4.997586e+00 1.551689e-05 1.385648e-05 2.321595e-05
Ga -1.612946e+00 -9.655934e-01 -5.284171e+00 -1.253511e-05 4.662755e-06 8.344679e-06
Al -1.631766e+00 -9.585923e-01 -1.516272e-01 -1.267868e-05 8.202411e-06 1.594993e-05
N 1.522838e+00 8.473821e-01 4.350515e+00 -1.126293e-04 -6.096047e-05 1.667578e-04
N 1.610787e+00 8.558430e-01 -5.940804e+00 1.431610e-07 -4.205580e-06 -1.685924e-05
N 1.570055e+00 8.254468e-01 -8.097595e-01 2.415727e-05 -1.195331e-05 -1.215247e-05
N -1.984241e-02 3.635700e+00 4.362175e+00 -1.807761e-07 8.550064e-06 1.372045e-05
N -1.797674e-02 3.625041e+00 -5.982642e+00 2.396866e-05 -6.869664e-06 -3.163715e-06
N -2.344462e-02 3.680310e+00 -7.118889e-01 4.429401e-06 -1.339975e-05 -2.122477e-05
N 3.106756e+00 -1.894703e+00 4.334956e+00 6.888029e-05 -9.033753e-05 -1.438734e-04
N 3.165324e+00 -1.822796e+00 -5.878877e+00 1.404451e-05 9.874795e-06 -1.763981e-05
N 3.157493e+00 -1.872075e+00 -7.030963e-01 -1.630509e-04 6.253373e-05 2.315710e-05
N -4.798594e+00 8.760165e-01 4.302742e+00 3.943580e-05 -1.506018e-05 -4.384989e-06
N -4.829800e+00 8.510637e-01 -5.853312e+00 1.018248e-05 3.772164e-06 1.690809e-06
N -4.757241e+00 8.465142e-01 -7.863382e-01 -1.110508e-04 -1.654408e-04 -7.734294e-05
N -6.389843e+00 3.682379e+00 4.419765e+00 -5.291157e-05 5.362600e-05 8.960428e-06
N -6.379765e+00 3.581285e+00 -5.950085e+00 -1.531835e-05 7.620558e-06 8.407692e-05
N -6.432706e+00 3.649254e+00 -7.351686e-01 2.323307e-05 1.006875e-05 -2.439487e-05
N -3.203313e+00 -1.928037e+00 4.314088e+00 3.935935e-06 6.409430e-05 1.068070e-04
N -3.244845e+00 -1.848171e+00 -5.948584e+00 2.307110e-05 -3.670793e-06 -3.804986e-06
N -3.209808e+00 -1.875999e+00 -7.609513e-01 1.403792e-05 5.036481e-06 -3.172655e-05
N -1.572486e+00 8.955670e-01 4.388840e+00 -4.146226e-05 -2.710261e-05 1.418616e-05
N -1.602848e+00 8.818146e-01 -5.902499e+00 1.654135e-05 -2.132636e-06 1.047192e-06
N -1.649559e+00 8.529557e-01 -7.671944e-01 2.892451e-05 -4.006779e-06 -6.796365e-06
N -3.206658e+00 3.682517e+00 4.408385e+00 -7.651805e-05 1.999290e-05 -2.848415e-05
N -3.194435e+00 3.629583e+00 -5.913269e+00 7.634376e-06 -3.578168e-06 -6.394106e-06
N -3.152844e+00 3.608443e+00 -7.050979e-01 7.779055e-05 1.516899e-04 -2.941093e-05
N 1.644316e-02 -1.895857e+00 4.402371e+00 -8.079237e-06 1.826702e-06 -6.166108e-06
N 2.648550e-02 -1.847176e+00 -5.949146e+00 8.541945e-06 1.552524e-06 -1.003187e-05
N -1.787365e-02 -1.818486e+00 -7.185638e-01 5.677979e-05 5.765486e-07 1.215683e-05
N 2.249157e-02 1.821138e+00 1.842129e+00 -7.995297e-05 8.161069e-06 -4.700950e-05
N 2.314956e-02 1.821195e+00 6.899913e+00 -7.374042e-05 1.854040e-05 -7.547646e-05
N -2.064632e-02 1.750847e+00 -3.286794e+00 2.512792e-05 2.143349e-06 -1.146110e-05
N 3.199668e+00 -3.685736e+00 1.806139e+00 -2.418550e-05 1.212032e-04 1.623469e-05
N 3.200143e+00 -3.725541e+00 6.882985e+00 -2.411935e-05 3.677473e-05 -1.379020e-05
N 3.163849e+00 -3.706129e+00 -3.327133e+00 1.411753e-05 1.783327e-06 -4.094649e-06
N 1.607258e+00 -9.268895e-01 1.787337e+00 4.400011e-05 -1.109063e-04 -2.019429e-05
N 1.525556e+00 -9.287641e-01 6.908815e+00 -1.292866e-05 2.641128e-05 1.169084e-04
N 1.570407e+00 -9.109259e-01 -3.385386e+00 2.729308e-05 -1.441020e-05 -6.015290e-06
N 3.148677e+00 1.747307e+00 1.843895e+00 1.524509e-05 -1.654889e-05 -3.212912e-05
N 3.112333e+00 1.815653e+00 6.966388e+00 -1.136887e-05 7.223161e-05 4.494762e-05
N 3.157054e+00 1.746837e+00 -3.356855e+00 1.094258e-05 3.572550e-06 -1.216534e-05
N 6.290525e+00 -3.686450e+00 1.786112e+00 7.772417e-05 2.071292e-04 4.701008e-05
N 6.331239e+00 -3.703658e+00 6.924515e+00 1.784964e-05 -1.046056e-06 -9.690772e-06
N 6.335227e+00 -3.655540e+00 -3.329788e+00 1.821431e-05 -4.238182e-06 -1.537931e-05
N 4.744850e+00 -9.596166e-01 1.793047e+00 -2.931132e-06 -2.922530e-05 -3.669667e-06
N 4.785508e+00 -9.786707e-01 6.931876e+00 1.639513e-05 -1.552155e-05 -1.523377e-05
N 4.793572e+00 -9.392801e-01 -3.343212e+00 1.060732e-05 9.458020e-06 8.344203e-06
N -3.247373e+00 1.770374e+00 1.762859e+00 1.871575e-05 -5.005896e-06 -6.038840e-05
N -3.214348e+00 1.788514e+00 6.940322e+00 1.933818e-05 -8.959728e-06 -9.317675e-07
N -3.199930e+00 1.747212e+00 -3.279283e+00 2.101380e-05 -3.233315e-07 -1.046030e-05
N -2.989461e-02 -3.711513e+00 1.818584e+00 3.509188e-05 1.852732e-05 -1.290132e-06
N -7.215814e-02 -3.683012e+00 6.924478e+00 -7.473643e-05 -2.213056e-05 4.866210e-05
N -2.074773e-02 -3.705611e+00 -3.322339e+00 1.419094e-05 -5.528327e-06 -2.391577e-05
N -1.659330e+00 -9.842991e-01 1.764909e+00 -2.166139e-05 -3.067583e-05 3.957900e-05
N -1.621575e+00 -1.010099e+00 6.973948e+00 3.345628e-06 5.485722e-07 -1.210430e-05
N -1.656276e+00 -9.366480e-01 -3.295900e+00 1.583905e-05 -7.707036e-06 -1.306793e-05
