108
Energy=-2038805.943694 Lattice="9.595665 0.000000 0.000000 -4.822707 8.293048 0.000000 -0.000455 0.008256 15.497114" Stress="-0.000020 -0.000004 0.000001 -0.000004 -0.000027 0.000001 0.000000 0.000001 -0.000023" Properties=species:S:1:pos:R:3:forces:R:3
Al 1.562742 0.899621 2.436144 -0.000780 0.000025 0.003250
Al 1.560401 0.865677 7.601128 0.003958 0.003427 0.001350
Ga 1.543940 0.877455 -2.732169 0.003093 -0.001286 0.001438
Al -0.051268 3.645615 2.298292 0.003359 -0.002156 0.028527
Ga -0.039243 3.629461 7.605861 0.000592 0.001013 -0.000654
Al -0.035099 3.628038 -2.724733 0.001330 -0.001008 0.006064
Ga 3.187571 -1.892369 2.393076 -0.001010 0.000314 0.007253
Al 3.175998 -1.867045 7.603921 0.002254 -0.002288 0.000784
Ga 3.188022 -1.898272 -2.709050 -0.000434 0.001022 0.003206
Ga -4.848148 0.888863 2.438367 0.003075 -0.000230 0.002534
Al -4.841556 0.877061 7.589674 0.001547 0.004023 0.000014
Ga -4.832049 0.872163 -2.709741 0.001138 0.002069 0.000794
Ga -6.437796 3.635653 2.403171 0.001465 0.001938 0.006708
Ga -6.421385 3.645067 7.601937 -0.000217 -0.001430 0.000744
Ga -6.431125 3.658512 -2.716897 0.002138 -0.001055 0.001566
Ga -3.214748 -1.883244 2.405867 0.001422 -0.000838 0.007430
Ga -3.204400 -1.856184 7.598593 0.000602 -0.001558 0.000345
Ga -3.211718 -1.889369 -2.709877 0.002155 0.000523 0.002133
Ga -1.626811 0.910060 2.434380 0.001757 -0.000943 0.001499
Al -1.619801 0.882474 7.598644 -0.001527 0.000306 0.000582
Ga -1.617162 0.895877 -2.723465 0.000658 -0.002237 0.000069
Al -3.232185 3.664811 2.401561 -0.002257 -0.001406 0.007352
Ga -3.244536 3.666165 7.613626 0.001669 -0.002310 -0.000384
Ga -3.237273 3.665996 -2.722563 -0.001408 -0.001915 0.001441
Ga -0.015556 -1.863415 2.427071 0.001930 -0.003014 0.003726
Al -0.009222 -1.856873 7.592264 -0.001268 -0.002511 0.001414
Al -0.009583 -1.884837 -2.738320 -0.000603 -0.002500 0.004377
Ga -0.018560 1.782986 5.022697 -0.001330 0.005672 0.000548
Al -0.031490 1.790556 -5.336885 0.000508 0.000483 0.005036
Al -0.024655 1.798203 -0.146159 0.000404 0.004251 -0.000993
Ga 3.192711 -3.727122 5.015236 0.000704 -0.002259 0.002070
Ga 3.194912 -3.743276 -5.307504 -0.000348 0.002059 0.001681
Al 3.191076 -3.742640 -0.143825 0.001212 0.001296 -0.011047
Ga 1.591799 -0.953491 5.036643 -0.001749 0.000912 -0.000775
Ga 1.578780 -0.981162 -5.331218 0.000027 0.002915 0.002301
Ga 1.586177 -0.980948 -0.128794 -0.001224 0.003620 -0.007541
Al 3.159509 1.795396 5.024094 -0.001603 0.003071 0.002753
Ga 3.162238 1.797943 -5.330409 -0.000830 -0.000275 0.003107
Ga 3.154981 1.800795 -0.129774 -0.000066 0.000302 -0.008383
Ga 6.392128 -3.725976 5.017835 -0.002608 -0.000661 -0.000636
Ga 6.388068 -3.741689 -5.299857 -0.000210 0.000326 0.000881
Al 6.377342 -3.728908 -0.145115 -0.000091 -0.000711 -0.011142
Ga 4.784194 -0.951255 5.031190 0.000460 -0.002089 0.001301
Ga 4.784183 -0.963612 -5.328520 -0.001831 0.000543 0.003106
Al 4.787354 -0.973111 -0.127352 -0.001018 -0.000326 -0.007784
Ga -3.237447 1.803289 5.023594 -0.000207 0.003489 0.001167
Ga -3.229121 1.805113 -5.335018 -0.001005 -0.000941 0.002889
Ga -3.222715 1.812213 -0.127031 -0.002501 0.000462 -0.004693
Ga -0.016276 -3.709471 5.003157 -0.000329 -0.002088 0.002189
Al -0.011049 -3.710733 -5.320793 -0.001678 -0.000719 0.003975
Al -0.003225 -3.714435 -0.149583 -0.002371 -0.001161 -0.000968
Al -1.605833 -0.943311 5.030165 -0.003874 -0.002851 0.002453
Ga -1.588279 -0.962300 -5.321179 -0.003078 0.001923 0.002959
Ga -1.599635 -0.971256 -0.147929 -0.003309 0.001382 -0.009699
N 1.600190 0.902006 4.372243 0.004684 -0.000156 -0.005501
N 1.529160 0.892686 -5.967204 -0.000401 0.000178 -0.002567
N 1.525606 0.893409 -0.755576 -0.000396 -0.000251 -0.001609
N -0.035070 3.638486 4.397772 0.000090 0.000378 -0.029012
N -0.033316 3.594311 -5.921265 0.000766 -0.001350 0.000378
N -0.036510 3.630236 -0.756423 0.000331 0.001148 -0.002939
N 3.188524 -1.882297 4.387037 -0.000526 0.000891 -0.004871
N 3.186453 -1.892816 -5.973492 0.000336 -0.000947 -0.004074
N 3.218823 -1.907723 -0.716132 0.003666 -0.002653 -0.000485
N -4.873693 0.902207 4.413888 -0.000483 0.002302 -0.000726
N -4.835652 0.878686 -5.988158 0.001697 0.000684 -0.004515
N -4.831190 0.839333 -0.736099 0.001638 -0.002100 0.000471
N -6.433948 3.608369 4.403016 0.001479 -0.004002 -0.003439
N -6.394898 3.663228 -5.915354 0.002987 0.002099 -0.000356
N -6.427224 3.685032 -0.725757 0.000215 0.003919 -0.000074
N -3.178323 -1.854395 4.410999 0.003963 0.002123 -0.002989
N -3.205249 -1.883563 -5.928253 0.001294 -0.001096 -0.000747
N -3.245558 -1.899042 -0.722093 -0.002114 -0.002387 -0.001957
N -1.634846 0.849041 4.411654 0.000710 -0.002185 -0.001714
N -1.596497 0.905677 -5.968360 0.002053 -0.001066 -0.003265
N -1.592162 0.913134 -0.747355 0.001801 -0.001275 -0.000227
N -3.235891 3.661479 4.349489 -0.000157 -0.002011 -0.008733
N -3.273800 3.675313 -5.910814 -0.001758 0.000408 0.000409
N -3.238487 3.691952 -0.734277 0.000109 0.001792 -0.001649
N -0.052785 -1.841656 4.406455 -0.000488 0.000681 0.000025
N -0.017539 -1.918321 -5.978147 0.000744 -0.004643 -0.004704
N -0.012832 -1.919657 -0.806114 0.001695 -0.004413 -0.002574
N 0.008718 1.814825 1.776898 0.000693 0.002347 0.001928
N -0.027289 1.750487 7.002559 0.000578 -0.001425 0.001282
N -0.028488 1.830753 -3.391798 -0.001050 0.006026 -0.006190
N 3.164468 -3.771426 1.748185 0.005688 -0.000339 0.008276
N 3.188958 -3.688677 6.999762 -0.000469 0.005130 -0.000475
N 3.231340 -3.754930 -3.324714 0.002285 -0.000883 -0.000948
N 1.589828 -0.903239 1.825026 -0.002304 -0.001053 0.004667
N 1.588762 -0.960817 7.029828 -0.000519 0.000273 -0.000043
N 1.554154 -0.999704 -3.340457 -0.000454 0.001236 -0.001160
N 3.124516 1.772887 1.812765 -0.001788 0.000874 0.006930
N 3.160916 1.763737 6.968867 -0.001402 -0.003414 -0.003279
N 3.164653 1.794362 -3.347107 -0.000340 0.001416 -0.001304
N 6.362718 -3.743852 1.744298 -0.006389 -0.000596 0.007414
N 6.388618 -3.722470 6.989568 -0.000467 0.000829 -0.001066
N 6.349498 -3.750031 -3.319287 -0.003316 -0.001947 -0.000405
N 4.788604 -0.955775 1.762262 -0.001347 -0.000366 0.003060
N 4.750690 -0.935592 7.012467 -0.004367 -0.000992 -0.000021
N 4.785175 -0.966540 -3.347682 -0.001287 -0.001011 -0.003583
N -3.239527 1.853134 1.833935 -0.000096 0.000685 0.003996
N -3.228857 1.775455 7.011653 -0.000587 -0.003793 0.002032
N -3.230417 1.801345 -3.349603 -0.001213 0.001148 -0.001350
N 0.021720 -3.733907 1.774528 0.000828 0.000611 -0.000129
N -0.009379 -3.673623 6.982417 -0.000955 0.004005 -0.000823
N -0.010958 -3.676787 -3.381296 -0.000853 0.000634 -0.005151
N -1.610823 -0.945861 1.784309 -0.001223 -0.000101 0.009111
N -1.572118 -0.927229 6.971113 0.001104 0.000440 -0.004013
N -1.568416 -0.979972 -3.332990 -0.001378 -0.000409 0.000366
