108
Energy=-482437.593145 Lattice="9.473658 0.000000 0.000000 -4.738841 8.201800 0.000000 -0.000248 0.000047 15.298057" Stress="0.000131 0.000022 -0.000001 0.000021 0.000154 -0.000001 -0.000001 -0.000001 0.000220" Properties=species:S:1:pos:R:3:forces:R:3
Al 1.561423 0.894022 2.474514 -0.001406 -0.010714 -0.008096
Al 1.560286 0.894682 7.510904 -0.000403 -0.011480 -0.003773
Al 1.561034 0.893631 -2.761784 -0.000564 -0.011429 -0.001625
Al -0.005973 3.607533 2.473606 -0.002144 -0.002424 -0.006700
Al -0.005456 3.608057 7.510844 -0.002009 -0.000933 -0.002280
Al -0.005687 3.608735 -2.761354 -0.001967 -0.001181 -0.000082
Al 3.167469 -1.880716 2.467714 -0.002445 0.001051 -0.006612
Al 3.167802 -1.880405 7.510445 -0.002152 0.001186 -0.002858
Al 3.168098 -1.880550 -2.759723 -0.002186 0.001228 -0.000486
Al -4.780370 0.896111 2.470755 0.001107 -0.010331 -0.006335
Al -4.780538 0.896611 7.511388 0.001494 -0.010525 -0.002930
Al -4.779598 0.896593 -2.758511 0.001473 -0.010435 -0.000572
Al -6.346274 3.610039 2.469812 0.000021 -0.000326 -0.005229
Al -6.345907 3.609891 7.511305 0.000066 -0.000038 -0.001445
Al -6.345990 3.609873 -2.758691 0.000039 -0.000013 0.000879
Al -3.176614 -1.881339 2.473733 0.002160 0.003918 -0.007549
Al -3.172777 -1.878508 7.510957 -0.000175 0.002160 -0.002117
Al -3.173533 -1.878543 -2.760217 0.000273 0.002310 -0.000067
Al -1.646835 0.891481 2.480003 0.012332 -0.002167 -0.008539
Al -1.647486 0.898453 7.511426 0.011379 -0.006492 -0.004659
Al -1.646686 0.897993 -2.769991 0.011755 -0.006217 -0.000525
Al -3.213214 3.610726 2.470216 0.009846 0.003993 -0.006292
Al -3.213098 3.611863 7.511260 0.009943 0.004016 -0.002934
Al -3.212626 3.610623 -2.758601 0.009915 0.003941 -0.000300
Al -0.039506 -1.873539 2.471218 0.010051 0.005800 -0.007466
Al -0.039676 -1.876751 7.510916 0.009805 0.006106 -0.003625
Al -0.038270 -1.877429 -2.760490 0.009420 0.006385 -0.001515
Al -0.005521 1.798390 4.998309 -0.009549 -0.006098 -0.005176
Al -0.005008 1.798497 -5.277075 -0.009602 -0.006108 -0.003205
Al -0.013619 1.793756 -0.243027 -0.005163 -0.003930 0.026574
Al 3.167336 -3.689855 4.997729 -0.009774 -0.004014 -0.003496
Al 3.167637 -3.690092 -5.275532 -0.009935 -0.003987 -0.002290
Al 3.167753 -3.691000 -0.218970 -0.009707 -0.004116 0.022265
Al 1.602263 -0.976909 4.998163 -0.011234 0.006776 -0.004989
Al 1.602320 -0.976999 -5.275740 -0.011390 0.006586 -0.003854
Al 1.603478 -0.977865 -0.219358 -0.011518 0.007106 0.020767
Al 3.127608 1.800054 4.997301 -0.000008 -0.002227 -0.002773
Al 3.127633 1.800079 -5.275925 0.000112 -0.002197 -0.001463
Al 3.124390 1.799387 -0.221544 -0.000338 -0.002252 0.023140
Al 6.300276 -3.688235 4.998200 -0.000116 -0.000455 -0.001910
Al 6.300764 -3.688216 -5.275607 -0.000018 -0.000038 -0.000801
Al 6.298480 -3.690034 -0.219930 0.000038 -0.000306 0.023780
Al 4.734516 -0.975112 4.997944 -0.001860 0.010700 -0.003357
Al 4.735135 -0.974934 -5.275463 -0.001546 0.010587 -0.002317
Al 4.732881 -0.975839 -0.218097 -0.001498 0.010595 0.022267
Al -3.213722 1.802095 4.997175 0.002139 -0.001248 -0.003354
Al -3.213589 1.802261 -5.277079 0.002048 -0.001246 -0.002441
Al -3.220517 1.804963 -0.208316 0.006544 -0.002785 0.019570
Al -0.040044 -3.686166 4.996680 0.001927 0.000885 -0.002767
Al -0.039731 -3.686468 -5.275950 0.001935 0.000943 -0.001451
Al -0.038568 -3.686950 -0.220085 0.001449 0.000807 0.023113
Al -1.606040 -0.973185 4.998616 0.000515 0.011561 -0.003905
Al -1.605326 -0.973717 -5.276577 0.000453 0.011412 -0.003147
Ga -1.602842 -0.968166 -0.216755 0.001006 0.014452 0.026769
N 1.561376 0.894185 4.402081 0.000071 -0.011231 0.002261
N 1.560705 0.894708 -5.869948 -0.000080 -0.011190 0.003408
N 1.558619 0.893067 -0.835051 0.000674 -0.010791 0.006080
N -0.005406 3.609156 4.401578 -0.001423 0.000146 0.000246
N -0.004890 3.608411 -5.870259 -0.001484 -0.000100 0.001422
N -0.006801 3.607368 -0.833756 -0.000956 0.000694 0.004040
N 3.167778 -1.880517 4.399540 -0.001847 0.001126 -0.000983
N 3.168182 -1.880521 -5.870102 -0.001810 0.001114 0.001103
N 3.167957 -1.881091 -0.828773 -0.001765 0.000816 0.003022
N -4.780590 0.896099 4.400544 0.001290 -0.010897 0.001622
N -4.780501 0.896301 -5.869788 0.001198 -0.010990 0.003688
N -4.781826 0.896120 -0.827935 0.002013 -0.010762 0.005667
N -6.346096 3.609973 4.399880 -0.000114 0.000163 -0.000232
N -6.345685 3.609838 -5.869885 -0.000132 0.000090 0.001825
N -6.346507 3.609844 -0.828982 -0.000074 0.000310 0.003900
N -3.174152 -1.879521 4.401693 -0.000064 0.001635 -0.000829
N -3.172717 -1.879031 -5.870119 -0.000627 0.001415 0.001465
N -3.178558 -1.880609 -0.830591 -0.015295 -0.007053 -0.002506
N -1.648165 0.898083 4.404363 0.010986 -0.007022 0.004831
N -1.647201 0.898346 -5.869706 0.011393 -0.006619 0.005847
N -1.625947 0.915910 -0.837517 0.001022 0.005885 0.002185
N -3.212943 3.611933 4.400192 0.009888 0.004341 0.001642
N -3.212766 3.612077 -5.869899 0.010077 0.004443 0.003610
N -3.212900 3.611125 -0.828066 0.009568 0.004298 0.005636
N -0.039709 -1.876177 4.400844 0.009183 0.005628 0.001352
N -0.039426 -1.877066 -5.869912 0.009580 0.005716 0.003358
N -0.032923 -1.880531 -0.831307 0.024405 -0.003312 -0.001058
N -0.006723 1.795659 1.884643 -0.009507 -0.005049 -0.023535
N -0.005588 1.798502 6.917400 -0.009619 -0.005733 0.002993
N -0.004821 1.798607 -3.359450 -0.009138 -0.005443 0.003627
N 3.167192 -3.691758 1.863329 -0.009961 -0.003904 -0.019680
N 3.167270 -3.690230 6.917066 -0.010106 -0.004444 0.003159
N 3.167423 -3.690335 -3.356363 -0.010218 -0.004371 0.004104
N 1.602038 -0.976201 1.864100 -0.010996 0.006302 -0.017685
N 1.602019 -0.976865 6.917543 -0.011511 0.006480 0.005144
N 1.602701 -0.977333 -3.356778 -0.011339 0.006521 0.005810
N 3.127293 1.800556 1.863975 0.000939 -0.001665 -0.022102
N 3.127535 1.800559 6.916806 0.000598 -0.001306 0.000968
N 3.128046 1.800272 -3.356461 0.000709 -0.001276 0.001942
N 6.299688 -3.689483 1.864151 0.000407 0.000941 -0.021700
N 6.300544 -3.688244 6.916992 0.000178 0.000012 0.001270
N 6.300391 -3.688020 -3.356742 0.000287 -0.000173 0.002128
N 4.734950 -0.974879 1.863051 -0.001110 0.010610 -0.019417
N 4.734946 -0.974686 6.917179 -0.001101 0.010857 0.003079
N 4.735140 -0.974706 -3.356276 -0.001321 0.010995 0.004092
N -3.211873 1.798458 1.865054 0.001523 -0.000488 -0.022238
N -3.213639 1.802240 6.916880 0.001905 -0.001083 0.000716
N -3.213397 1.802021 -3.358360 0.001585 -0.001149 0.001538
N -0.041199 -3.685478 1.862941 0.001628 0.000554 -0.021780
N -0.040278 -3.686610 6.916559 0.001459 0.000247 0.000816
N -0.039716 -3.687172 -3.356438 0.001431 -0.000019 0.001858
N -1.599333 -0.954090 1.868290 -0.003101 0.004045 -0.006104
N -1.605710 -0.973254 6.917521 0.000115 0.011021 0.002910
N -1.605343 -0.973971 -3.358340 0.000051 0.010876 0.003675
