108
Energy=-1.397949e+06 Lattice="9.507357e+00 0.000000e+00 0.000000e+00 -4.756824e+00 8.230051e+00 0.000000e+00 3.910168e-05 2.916440e-03 1.534494e+01" Stress="-1.604413e-03 -2.736616e-04 9.535832e-05 -2.806960e-04 -1.917244e-03 -8.341474e-05 8.940390e-05 -7.993922e-05 -1.343609e-03" Properties=species:S:1:pos:R:3:forces:R:3 Config_type=AlGaN_super3_21_1_24.xyz
Al 1.567180e+00 8.689959e-01 2.391800e+00 -5.063970e-04 2.188987e-04 -7.232291e-04
Al 1.547536e+00 8.816550e-01 7.535232e+00 1.109293e-04 2.244667e-04 2.612814e-04
Al 1.580683e+00 8.685656e-01 -2.694020e+00 -1.732515e-04 -1.138022e-05 -3.652822e-04
Al -3.505229e-02 3.626537e+00 2.415061e+00 -6.231967e-05 -3.858760e-04 1.082444e-04
Al -1.869680e-02 3.608145e+00 7.503836e+00 2.200236e-05 -1.173339e-05 1.000226e-05
Ga -2.462127e-02 3.621551e+00 -2.692201e+00 8.478514e-05 9.128750e-05 -7.468051e-05
Al 3.148202e+00 -1.873197e+00 2.369201e+00 8.525118e-06 1.781880e-04 -5.616761e-05
Ga 3.147217e+00 -1.873105e+00 7.520425e+00 5.415446e-05 1.046407e-05 9.269530e-05
Al 3.143056e+00 -1.860507e+00 -2.664254e+00 4.434770e-04 1.817700e-05 5.966681e-05
Al -4.774650e+00 8.714917e-01 2.367557e+00 -1.005515e-03 1.249786e-04 -5.826763e-04
Ga -4.774296e+00 8.807033e-01 7.537563e+00 2.431667e-04 3.359281e-05 3.176065e-04
Al -4.784283e+00 8.795391e-01 -2.674809e+00 -2.449802e-04 -9.875473e-05 3.052333e-05
Ga -6.363598e+00 3.615107e+00 2.414856e+00 1.516176e-04 -4.189881e-04 -6.925584e-05
Ga -6.374137e+00 3.620227e+00 7.531815e+00 -3.896687e-06 1.374087e-04 9.625695e-05
Al -6.359787e+00 3.603782e+00 -2.711407e+00 -2.668324e-04 -1.950256e-04 -1.517683e-04
Al -3.198018e+00 -1.868417e+00 2.385663e+00 -8.910861e-05 1.751596e-03 8.020577e-04
Ga -3.187498e+00 -1.877608e+00 7.539347e+00 -6.454101e-05 -2.877523e-06 1.147131e-04
Al -3.188015e+00 -1.857644e+00 -2.692355e+00 7.381492e-05 -5.251413e-04 -6.254859e-04
Ga -1.615189e+00 8.813152e-01 2.402065e+00 1.928351e-04 3.978132e-05 3.829167e-04
Al -1.598134e+00 8.893715e-01 7.504481e+00 2.097040e-04 -1.017276e-04 2.982768e-05
Al -1.622284e+00 8.661551e-01 -2.674306e+00 2.550145e-04 1.277239e-04 -3.711544e-04
Al -3.184789e+00 3.620706e+00 2.406691e+00 2.404863e-04 -2.531836e-04 3.481622e-04
Ga -3.184216e+00 3.616328e+00 7.503531e+00 2.168039e-05 -1.721360e-04 1.476358e-04
Al -3.194877e+00 3.613179e+00 -2.680049e+00 -1.927324e-04 -4.120639e-04 -2.609352e-05
Al -1.362992e-02 -1.861067e+00 2.380258e+00 1.965825e-04 -7.299215e-04 3.049925e-04
Ga -1.789587e-02 -1.858076e+00 7.557298e+00 5.005454e-05 -2.750786e-04 2.513152e-04
Ga -2.142807e-02 -1.856982e+00 -2.707084e+00 -6.754798e-05 5.444464e-05 1.759160e-04
Al -2.278206e-02 1.807809e+00 4.964567e+00 -3.689118e-04 -8.636696e-05 -1.926317e-04
Ga -1.317391e-02 1.773824e+00 -5.261796e+00 -3.819336e-04 1.298029e-04 2.871307e-04
Ga -2.174736e-02 1.775624e+00 -1.471215e-01 8.316694e-05 5.117142e-05 2.430238e-04
Al 3.153264e+00 -3.714328e+00 4.929030e+00 -3.425115e-05 1.641237e-04 1.985998e-04
Ga 3.144672e+00 -3.692660e+00 -5.244077e+00 -1.738067e-04 2.021646e-04 8.638468e-05
Al 3.135992e+00 -3.691961e+00 -1.327878e-01 -4.773651e-04 3.171661e-04 3.111641e-04
Ga 1.557799e+00 -9.579709e-01 4.936322e+00 6.992436e-05 3.864310e-05 3.592151e-05
Al 1.563364e+00 -9.470299e-01 -5.238256e+00 -1.864563e-04 2.048204e-04 1.087236e-04
Al 1.574382e+00 -9.497746e-01 -1.388796e-01 2.772092e-04 5.317307e-04 -7.739982e-05
Ga 3.141698e+00 1.793093e+00 4.951911e+00 2.728866e-04 -1.033272e-04 1.100817e-04
Al 3.132466e+00 1.792723e+00 -5.235319e+00 4.468075e-04 -4.005958e-05 -9.329748e-05
Al 3.152169e+00 1.771301e+00 -1.555215e-01 3.084704e-05 -4.315945e-05 4.145675e-04
Al 6.303422e+00 -3.701592e+00 4.943588e+00 -1.814367e-04 5.301235e-04 2.069112e-04
Al 6.330972e+00 -3.700059e+00 -5.239888e+00 5.707199e-04 -2.320486e-05 1.035441e-04
Ga 6.315606e+00 -3.684806e+00 -1.418187e-01 2.457848e-04 -4.031573e-04 -4.329223e-04
Ga 4.737489e+00 -9.578344e-01 4.923255e+00 -1.281507e-04 -1.257682e-04 -2.916031e-05
Ga 4.730141e+00 -9.576406e-01 -5.210232e+00 -3.740197e-05 -1.184767e-04 1.854913e-04
Al 4.728791e+00 -9.471137e-01 -1.584170e-01 -1.035270e-04 2.290659e-04 9.342109e-06
Al -3.191407e+00 1.805000e+00 4.944231e+00 3.440869e-04 2.141030e-04 -1.356524e-04
Ga -3.193478e+00 1.787582e+00 -5.227103e+00 1.942261e-04 7.509715e-06 3.879834e-04
Al -3.200500e+00 1.787291e+00 -1.598995e-01 -6.528185e-04 3.112886e-04 -9.523388e-05
Al -1.123332e-02 -3.695026e+00 4.932928e+00 2.195213e-04 -2.186332e-04 2.650377e-05
Al -3.421324e-02 -3.696971e+00 -5.224672e+00 -2.435868e-06 -2.089097e-05 8.806795e-05
Ga -1.102068e-02 -3.703184e+00 -1.484986e-01 3.319169e-04 9.755078e-05 -9.738135e-05
Ga -1.603528e+00 -9.580315e-01 4.952325e+00 -3.168109e-04 -1.147745e-04 4.487020e-05
Al -1.604320e+00 -9.555236e-01 -5.244398e+00 -1.145302e-04 3.237895e-04 -4.411922e-04
Al -1.618424e+00 -9.476242e-01 -1.416375e-01 5.167648e-04 -7.941464e-05 -8.697157e-04
N 1.516443e+00 9.006397e-01 4.298294e+00 3.260910e-04 1.255045e-04 5.867367e-04
N 1.603580e+00 8.493216e-01 -5.888029e+00 1.203207e-04 -8.376172e-05 -7.840736e-05
N 1.606178e+00 8.481973e-01 -7.805831e-01 5.588210e-05 -6.865070e-04 1.760499e-04
N -2.421894e-02 3.614973e+00 4.338659e+00 -1.039931e-04 3.100476e-05 3.592481e-05
N 1.899077e-02 3.641858e+00 -5.908639e+00 -1.633112e-04 -1.134200e-04 -1.818433e-04
N -6.748986e-02 3.643727e+00 -7.347112e-01 3.104299e-04 -1.286032e-04 -8.768487e-05
N 3.145813e+00 -1.917894e+00 4.284689e+00 1.262910e-04 -9.236615e-05 -1.162937e-04
N 3.109754e+00 -1.845290e+00 -5.855650e+00 -1.035082e-04 6.034616e-05 -2.157097e-04
N 3.142872e+00 -1.870994e+00 -7.383087e-01 -1.322845e-04 3.611832e-05 2.646710e-04
N -4.736634e+00 9.045197e-01 4.283567e+00 1.467068e-04 -1.726584e-04 2.145135e-04
N -4.816960e+00 8.968523e-01 -5.835345e+00 -2.388515e-04 1.408702e-04 3.683952e-05
N -4.780193e+00 8.764776e-01 -7.541947e-01 9.529339e-05 4.108561e-05 9.271594e-05
N -6.363487e+00 3.665275e+00 4.383295e+00 -8.076623e-05 8.671615e-06 -2.670822e-04
N -6.361461e+00 3.617461e+00 -5.815938e+00 -1.935823e-04 1.154834e-04 -4.617577e-06
N -6.364655e+00 3.568004e+00 -7.950263e-01 -1.689965e-04 1.839964e-04 1.099348e-04
N -3.186234e+00 -1.913069e+00 4.293981e+00 1.524457e-04 -4.245977e-04 -2.016259e-04
N -3.153312e+00 -1.894949e+00 -5.824968e+00 4.812677e-05 9.019027e-05 -6.771064e-05
N -3.187872e+00 -1.819698e+00 -7.776175e-01 -9.919279e-05 -1.898789e-04 3.378291e-05
N -1.606750e+00 9.262873e-01 4.378504e+00 1.883190e-04 -2.830478e-05 -1.232566e-04
N -1.613407e+00 8.325648e-01 -5.918513e+00 6.229627e-05 -2.066086e-04 -2.339544e-04
N -1.651508e+00 8.486825e-01 -7.611720e-01 4.186999e-04 -9.536619e-05 -1.812887e-06
N -3.190724e+00 3.617643e+00 4.335043e+00 -2.343204e-05 -5.750872e-05 -1.490449e-04
N -3.238643e+00 3.641415e+00 -5.863389e+00 -7.311865e-05 -1.426143e-04 -2.358211e-04
N -3.150309e+00 3.596831e+00 -7.715178e-01 1.635196e-04 -1.222264e-04 -2.231141e-04
N -2.284196e-02 -1.909087e+00 4.289412e+00 -8.557587e-05 -1.190486e-04 -5.121473e-04
N -1.991041e-02 -1.870460e+00 -5.791915e+00 1.324096e-04 -1.959878e-04 -5.046831e-05
N -2.181892e-02 -1.814761e+00 -7.268331e-01 -2.437136e-04 -6.233949e-05 1.788422e-05
N 1.649455e-02 1.814946e+00 1.821216e+00 4.804870e-04 -1.102571e-04 -1.780832e-05
N -1.661509e-02 1.790356e+00 6.905594e+00 -4.156054e-05 1.543789e-04 -1.417326e-04
N -2.580952e-02 1.734288e+00 -3.274151e+00 2.246474e-04 -1.486062e-04 1.878167e-04
N 3.144916e+00 -3.703627e+00 1.790558e+00 -1.485050e-05 1.101944e-04 5.755786e-05
N 3.193446e+00 -3.721106e+00 6.852431e+00 -5.956285e-06 1.552692e-06 -1.086694e-04
N 3.104980e+00 -3.669377e+00 -3.271893e+00 -1.067280e-04 -3.382652e-05 9.740143e-06
N 1.566396e+00 -9.488383e-01 1.782384e+00 -3.106160e-04 -2.104511e-04 -1.250150e-04
N 1.561953e+00 -9.061858e-01 6.912732e+00 -4.887316e-04 2.134686e-04 -1.709423e-04
N 1.612562e+00 -9.299622e-01 -3.323445e+00 -2.948636e-04 4.378849e-04 1.268449e-04
N 3.142279e+00 1.744443e+00 1.763713e+00 4.805770e-04 2.653569e-05 -2.356773e-04
N 3.103603e+00 1.763968e+00 6.923593e+00 -8.677038e-05 -1.221577e-04 -2.347342e-04
N 3.144766e+00 1.784398e+00 -3.311578e+00 -1.616571e-05 -1.202933e-04 1.223811e-04
N 6.274849e+00 -3.675275e+00 1.825373e+00 1.733448e-04 -1.028164e-03 -3.780041e-04
N 6.276016e+00 -3.717584e+00 6.861970e+00 -1.700879e-06 -5.887407e-05 -1.366834e-04
N 6.357738e+00 -3.674195e+00 -3.321568e+00 -2.112499e-04 7.514196e-04 3.865475e-04
N 4.734119e+00 -9.548203e-01 1.771127e+00 -2.487986e-05 4.281571e-07 -6.078703e-05
N 4.737457e+00 -9.517543e-01 6.892544e+00 -2.080436e-04 -3.235956e-05 -3.641098e-04
N 4.726660e+00 -9.545290e-01 -3.227603e+00 1.482007e-05 1.221527e-04 6.625338e-05
N -3.234015e+00 1.820038e+00 1.757047e+00 4.676114e-04 -2.019936e-05 1.329651e-04
N -3.157912e+00 1.766426e+00 6.860446e+00 -4.919401e-05 1.750511e-05 -2.375597e-05
N -3.192803e+00 1.787002e+00 -3.243275e+00 9.201025e-05 3.661244e-04 9.610373e-05
N 2.189292e-02 -3.680906e+00 1.822049e+00 -2.935377e-04 9.332284e-04 -9.254783e-05
N -2.244554e-02 -3.687330e+00 6.849709e+00 -2.794954e-05 1.620306e-04 -2.000935e-04
N -1.859613e-02 -3.745762e+00 -3.308501e+00 2.507544e-04 9.716677e-05 -3.045142e-05
N -1.609195e+00 -9.960043e-01 1.769681e+00 -3.456159e-04 -4.252243e-04 7.860136e-04
N -1.602922e+00 -9.118057e-01 6.924504e+00 -9.580154e-05 -6.567830e-05 3.164762e-05
N -1.650234e+00 -9.212290e-01 -3.331989e+00 -3.222754e-04 -3.223931e-04 6.269375e-04
