108
Energy=-1672602.237517 Lattice="9.543332 0.000000 0.000000 -4.774342 8.265293 0.000000 0.001142 -0.004087 15.420201" Stress="-0.000002 -0.000001 0.000001 -0.000001 -0.000002 -0.000000 0.000001 -0.000000 -0.000009" Properties=species:S:1:pos:R:3:forces:R:3
Al 1.573423 0.881871 2.406779 0.000511 -0.000680 0.000140
Al 1.569696 0.876632 7.553179 0.000029 0.000060 0.000028
Al 1.556720 0.881909 -2.694334 0.000035 0.000019 0.000047
Al -0.024590 3.633173 2.421572 -0.000542 0.000021 0.000151
Al -0.034860 3.632966 7.563223 -0.000027 -0.000010 0.000071
Ga -0.037705 3.619612 -2.719394 -0.000030 -0.000003 0.000054
Al 3.149818 -1.882989 2.447940 0.000865 0.000231 -0.000346
Ga 3.147304 -1.892846 7.548953 -0.000067 0.000014 0.000091
Ga 3.146715 -1.883331 -2.728210 -0.000011 0.000009 0.000081
Al -4.803153 0.889115 2.419515 -0.000484 -0.000721 0.000311
Ga -4.791847 0.895264 7.580376 0.000103 0.000084 0.000034
Ga -4.800253 0.887282 -2.730527 0.000070 0.000006 0.000056
Al -6.375860 3.630318 2.396798 0.000042 0.000036 0.000035
Ga -6.394098 3.621952 7.576003 0.000006 -0.000019 0.000061
Ga -6.380222 3.627224 -2.707771 -0.000017 0.000012 0.000061
Al -3.200188 -1.881707 2.434452 -0.000255 0.000119 -0.000142
Ga -3.200203 -1.885345 7.567442 -0.000020 0.000042 0.000102
Ga -3.201771 -1.874037 -2.721456 -0.000044 0.000017 0.000069
Ga -1.610059 0.883213 2.435960 -0.000010 -0.000199 0.000043
Ga -1.619155 0.890810 7.544236 0.000093 0.000007 0.000122
Al -1.606175 0.889054 -2.711208 0.000053 -0.000052 0.000038
Al -3.208504 3.640525 2.431206 0.000043 0.000545 0.000423
Al -3.184761 3.623287 7.550313 0.000038 -0.000082 -0.000022
Al -3.204116 3.637119 -2.720308 -0.000007 -0.000065 0.000126
Al -0.013807 -1.886240 2.431912 -0.000287 0.000014 -0.000741
Ga -0.010975 -1.867812 7.537427 0.000006 -0.000059 0.000167
Al -0.017054 -1.875503 -2.697232 -0.000024 -0.000055 0.000100
Ga -0.021186 1.795397 4.994390 0.000010 0.000086 0.000073
Ga -0.016266 1.808578 -5.295954 -0.000003 0.000072 0.000083
Al -0.012425 1.794362 -0.139765 -0.000003 0.000035 0.000010
Al 3.151620 -3.722882 4.973164 0.000049 -0.000380 0.000051
Al 3.161902 -3.722993 -5.303434 -0.000003 0.000067 0.000048
Ga 3.147419 -3.724041 -0.117628 -0.000045 0.000108 0.000154
Al 1.563845 -0.959406 4.958372 0.000341 0.000395 0.000011
Ga 1.581742 -0.944624 -5.267098 -0.000085 0.000095 0.000127
Ga 1.560372 -0.948476 -0.131493 -0.000106 -0.000013 0.000166
Ga 3.161250 1.787293 4.969755 -0.000006 -0.000060 -0.000035
Al 3.152488 1.792042 -5.284363 0.000015 0.000006 0.000056
Al 3.147782 1.800885 -0.124447 0.000031 -0.000049 0.000128
Ga 6.336070 -3.712641 4.965396 0.000014 -0.000012 0.000112
Al 6.324606 -3.716066 -5.294614 0.000029 0.000004 0.000071
Ga 6.346306 -3.729310 -0.109143 0.000012 0.000063 -0.000016
Ga 4.751306 -0.954013 4.963852 0.000001 0.000081 -0.000021
Al 4.748194 -0.955137 -5.297433 -0.000061 0.000008 0.000026
Ga 4.742133 -0.950091 -0.102152 -0.000087 0.000003 0.000243
Al -3.203946 1.806830 4.972650 0.000126 -0.000157 0.000299
Al -3.208043 1.811523 -5.273344 0.000047 -0.000014 0.000075
Ga -3.208305 1.812980 -0.145462 0.000047 0.000020 -0.000061
Ga -0.002423 -3.712610 4.972988 0.000020 -0.000179 0.000039
Ga -0.009312 -3.728447 -5.285851 0.000049 -0.000018 0.000059
Al -0.015778 -3.717042 -0.132250 0.000404 0.000070 0.000085
Al -1.606756 -0.958152 4.964852 -0.000108 0.000048 0.000095
Ga -1.625115 -0.951835 -5.258729 -0.000032 0.000015 0.000156
Ga -1.598126 -0.957075 -0.139888 -0.000018 -0.000047 0.000113
N 1.565891 0.835944 4.316942 -0.000041 0.000040 -0.000126
N 1.609378 0.898173 -5.954445 0.000067 -0.000029 -0.000133
N 1.570429 0.930030 -0.768170 0.000034 -0.000012 -0.000017
N -0.067254 3.649700 4.330115 0.000038 0.000047 -0.000005
N -0.028563 3.683059 -5.932924 -0.000005 0.000013 -0.000077
N -0.027057 3.591169 -0.741343 -0.000027 -0.000087 -0.000014
N 3.115112 -1.907274 4.365096 0.000073 0.000111 -0.000013
N 3.192692 -1.901619 -5.881258 -0.000008 -0.000004 -0.000066
N 3.161131 -1.879717 -0.757288 -0.000016 -0.000015 -0.000100
N -4.751922 0.907743 4.327216 -0.000129 0.000009 -0.000201
N -4.791273 0.889220 -5.845521 0.000038 0.000007 -0.000041
N -4.841229 0.901332 -0.748160 0.000020 0.000082 -0.000090
N -6.378086 3.631472 4.305559 0.000058 0.000091 -0.000036
N -6.427533 3.610285 -5.862972 -0.000050 0.000019 -0.000081
N -6.343531 3.609388 -0.715055 -0.000176 -0.000123 -0.000044
N -3.159462 -1.854309 4.336378 0.000011 0.000003 -0.000056
N -3.238580 -1.897019 -5.871579 -0.000030 0.000015 -0.000076
N -3.210839 -1.879441 -0.751567 0.000038 0.000000 -0.000096
N -1.650365 0.860334 4.411748 0.000140 -0.000070 -0.000078
N -1.661604 0.904059 -5.896169 0.000059 -0.000056 -0.000136
N -1.573775 0.908045 -0.787310 0.000059 -0.000032 -0.000002
N -3.162367 3.609210 4.344690 -0.000200 0.000174 -0.000600
N -3.160540 3.606264 -5.942922 0.000003 -0.000042 -0.000087
N -3.244134 3.662241 -0.803543 -0.000090 -0.000074 0.000020
N -0.019992 -1.833919 4.349083 -0.000254 -0.000191 0.000320
N -0.021191 -1.868976 -5.912532 -0.000008 -0.000052 -0.000129
N -0.018473 -1.927765 -0.784060 -0.000019 -0.000063 -0.000001
N 0.017831 1.817978 1.784006 -0.000290 0.000242 -0.000202
N 0.022775 1.822106 6.978579 -0.000026 0.000081 -0.000069
N -0.019777 1.747126 -3.313093 -0.000018 0.000028 -0.000092
N 3.155683 -3.713678 1.861581 0.000185 -0.000233 0.000038
N 3.160826 -3.766839 6.904604 0.000077 0.000090 0.000073
N 3.115851 -3.742470 -3.385120 0.000002 0.000033 -0.000088
N 1.568724 -0.961225 1.854786 -0.000180 0.000628 -0.000019
N 1.573229 -0.908133 6.880480 -0.000083 -0.000016 0.000063
N 1.522751 -0.925807 -3.286136 -0.000085 0.000053 -0.000037
N 3.156494 1.793593 1.799031 -0.000082 -0.000006 -0.000071
N 3.120891 1.771782 6.943025 -0.000018 0.000011 -0.000023
N 3.103770 1.771175 -3.369137 -0.000039 -0.000002 -0.000087
N 6.339035 -3.714182 1.868937 0.000296 0.000123 -0.000047
N 6.299067 -3.741455 6.944673 0.000024 0.000013 -0.000064
N 6.336735 -3.719599 -3.382856 0.000041 -0.000039 -0.000095
N 4.746699 -0.958947 1.883018 -0.000540 -0.000304 0.000256
N 4.749304 -0.953185 6.937158 -0.000077 -0.000046 -0.000078
N 4.745789 -0.957189 -3.392431 -0.000065 -0.000007 -0.000101
N -3.242882 1.824911 1.831508 0.000506 0.000226 -0.000209
N -3.213112 1.844695 6.889749 0.000047 -0.000022 0.000034
N -3.162626 1.826360 -3.344339 0.000033 0.000019 -0.000117
N -0.010700 -3.709651 1.802678 -0.000065 -0.000122 0.000022
N 0.021153 -3.743991 6.955209 0.000015 0.000037 -0.000051
N 0.019826 -3.688756 -3.304460 0.000018 0.000009 -0.000110
N -1.606533 -1.003747 1.838353 0.000135 -0.000079 0.000008
N -1.615421 -0.960824 6.876868 -0.000075 -0.000034 -0.000162
N -1.569095 -0.931027 -3.279970 -0.000034 0.000016 -0.000112
