108
Energy=-1.443725e+06 Lattice="9.517334e+00 0.000000e+00 0.000000e+00 -4.763189e+00 8.238799e+00 0.000000e+00 -6.561496e-03 6.587873e-03 1.536543e+01" Stress="-2.123999e-05 -1.019246e-04 -3.774760e-04 -9.909959e-05 -3.793751e-04 2.315227e-04 -3.767165e-04 2.389911e-04 4.874884e-04" Properties=species:S:1:pos:R:3:forces:R:3 Config_type=AlGaN_super3_22_0_19.xyz
Al 1.564488e+00 8.856989e-01 2.435497e+00 -7.242231e-04 -9.337892e-04 1.423127e-04
Al 1.550047e+00 8.753422e-01 7.509356e+00 -2.977520e-04 -4.811285e-04 4.401618e-04
Al 1.567310e+00 8.777410e-01 -2.712892e+00 2.313613e-04 -1.603173e-04 -1.764397e-05
Al -2.685132e-02 3.614472e+00 2.427041e+00 4.522440e-05 1.016443e-03 5.790815e-04
Al -4.270212e-02 3.604786e+00 7.512130e+00 6.147254e-05 -2.324430e-06 1.797691e-04
Al -3.667654e-03 3.615726e+00 -2.694732e+00 -1.545800e-04 1.100684e-04 3.270188e-04
Al 3.153058e+00 -1.866774e+00 2.430239e+00 8.659250e-06 -2.048422e-04 -4.497815e-04
Ga 3.129039e+00 -1.864331e+00 7.545488e+00 -4.690395e-05 7.313195e-07 1.894265e-04
Ga 3.157636e+00 -1.854193e+00 -2.729692e+00 7.814598e-05 2.011021e-05 2.671677e-05
Ga -4.798052e+00 8.754145e-01 2.415343e+00 2.021521e-04 -9.811336e-05 3.740068e-04
Al -4.779631e+00 8.913320e-01 7.536177e+00 -1.925270e-04 -1.099425e-04 -7.795564e-04
Al -4.788153e+00 8.695527e-01 -2.712816e+00 1.615523e-03 -4.453111e-04 6.833826e-04
Ga -6.383067e+00 3.608873e+00 2.393463e+00 -6.193057e-05 2.079131e-04 4.460702e-04
Ga -6.367840e+00 3.612160e+00 7.551108e+00 -3.061138e-05 5.794925e-05 5.724808e-05
Al -6.369728e+00 3.623418e+00 -2.703174e+00 9.135960e-04 4.657779e-04 -4.336796e-05
Ga -3.195931e+00 -1.866423e+00 2.390003e+00 7.362286e-05 -1.102078e-04 3.363565e-04
Ga -3.185864e+00 -1.853027e+00 7.554773e+00 -2.400478e-04 -1.416111e-04 2.732121e-04
Al -3.188332e+00 -1.870460e+00 -2.706654e+00 6.299246e-04 7.932025e-04 2.165148e-05
Al -1.597346e+00 8.743563e-01 2.440279e+00 -3.518285e-06 -3.299663e-04 2.290773e-05
Al -1.611348e+00 8.840032e-01 7.525202e+00 -1.408506e-04 1.252850e-04 7.002023e-05
Ga -1.606477e+00 8.637094e-01 -2.729295e+00 3.328983e-05 -2.395469e-04 4.945659e-05
Ga -3.182218e+00 3.625033e+00 2.434446e+00 -1.646142e-04 5.383601e-05 1.152264e-04
Al -3.193401e+00 3.613225e+00 7.535449e+00 -3.488536e-04 -4.669003e-04 3.536844e-04
Ga -3.214900e+00 3.618329e+00 -2.720536e+00 4.206804e-05 -1.047453e-04 -1.994092e-04
Ga -2.073966e-02 -1.850625e+00 2.418239e+00 -2.431905e-04 -5.301585e-05 3.217494e-04
Al -2.063932e-02 -1.843545e+00 7.541936e+00 7.228615e-04 -1.583319e-03 3.261918e-04
Al -3.016520e-02 -1.871323e+00 -2.725288e+00 -7.133993e-04 -1.350833e-04 4.320741e-04
Al -3.158333e-02 1.784067e+00 4.968987e+00 7.300220e-05 1.320732e-04 2.107768e-04
Ga -2.543599e-02 1.774018e+00 -5.287778e+00 5.815377e-05 2.350268e-04 2.673244e-04
Ga -9.286477e-03 1.788851e+00 -1.255677e-01 -2.983838e-04 4.147223e-05 -6.226042e-05
Al 3.148913e+00 -3.706436e+00 4.982040e+00 5.493872e-05 -5.492806e-05 2.567560e-04
Ga 3.145552e+00 -3.708903e+00 -5.278075e+00 -3.532947e-04 -1.873684e-04 -1.018078e-05
Ga 3.167412e+00 -3.694732e+00 -1.353144e-01 -2.649875e-04 3.316565e-04 5.711581e-05
Al 1.558211e+00 -9.412797e-01 4.971062e+00 1.578744e-05 8.006695e-06 1.092158e-03
Al 1.548098e+00 -9.548218e-01 -5.274543e+00 2.405926e-05 -3.448474e-04 4.922952e-04
Ga 1.564391e+00 -9.498956e-01 -1.447709e-01 -3.483556e-04 -1.487271e-05 3.669136e-04
Al 3.138000e+00 1.779037e+00 4.993888e+00 3.447530e-05 -2.521118e-05 1.678592e-04
Ga 3.163578e+00 1.769357e+00 -5.259990e+00 6.356409e-06 2.519690e-05 3.092178e-04
Al 3.147908e+00 1.793325e+00 -1.809574e-01 4.183070e-04 1.360843e-05 -1.857880e-04
Ga 6.311625e+00 -3.708814e+00 4.978954e+00 -9.863080e-05 9.106135e-05 -1.495921e-04
Ga 6.325011e+00 -3.693975e+00 -5.241079e+00 -4.225592e-05 5.414238e-05 3.809331e-04
Al 6.334447e+00 -3.695928e+00 -1.761451e-01 -5.018405e-06 6.067636e-05 -7.859162e-06
Ga 4.726481e+00 -9.450173e-01 4.980484e+00 -1.776285e-04 -4.045354e-05 2.263404e-04
Al 4.751431e+00 -9.372454e-01 -5.263868e+00 -4.271871e-04 -7.936761e-06 -2.197199e-04
Al 4.746777e+00 -9.519393e-01 -1.588000e-01 -6.359391e-05 6.517101e-05 1.616054e-04
Al -3.187341e+00 1.788521e+00 4.996830e+00 3.435525e-05 -2.231603e-04 3.465553e-05
Al -3.202643e+00 1.771682e+00 -5.294166e+00 -5.855584e-04 2.222664e-03 -6.263141e-04
Ga -3.208980e+00 1.777409e+00 -1.445638e-01 1.413954e-04 -6.508427e-05 1.058649e-04
Ga -1.344196e-02 -3.694567e+00 5.005021e+00 7.388564e-05 1.956536e-04 1.643323e-04
Al -1.072139e-02 -3.686085e+00 -5.280743e+00 3.534842e-04 -2.615751e-04 8.743210e-04
Al -4.200646e-02 -3.693936e+00 -1.676835e-01 -2.034687e-05 -6.362824e-06 -7.714419e-05
Al -1.597260e+00 -9.309520e-01 4.993671e+00 -2.468128e-04 2.670204e-05 8.761089e-05
Al -1.598221e+00 -9.603934e-01 -5.271402e+00 7.864577e-05 2.869251e-04 1.797712e-04
Al -1.613814e+00 -9.673577e-01 -1.675395e-01 6.359553e-05 -2.333311e-04 3.008092e-04
N 1.564080e+00 8.830831e-01 4.366660e+00 4.521292e-05 -1.460480e-04 -2.892885e-04
N 1.567787e+00 8.257603e-01 -5.937426e+00 1.061586e-04 2.726050e-04 -5.225850e-04
N 1.596777e+00 8.953456e-01 -8.060979e-01 1.152333e-04 1.195676e-05 -2.401627e-04
N -6.988178e-02 3.598729e+00 4.348391e+00 8.108822e-05 -1.683272e-04 -4.542647e-04
N -1.995845e-02 3.617738e+00 -5.949092e+00 2.608439e-04 -3.255326e-05 -2.752564e-04
N 1.501744e-02 3.636558e+00 -7.895155e-01 1.409231e-04 -3.175090e-05 1.006687e-04
N 3.105783e+00 -1.894141e+00 4.355739e+00 4.686095e-05 2.955340e-04 -3.710304e-04
N 3.150474e+00 -1.820685e+00 -5.835794e+00 1.108797e-04 9.410822e-05 -5.885466e-06
N 3.190346e+00 -1.843957e+00 -7.610077e-01 1.870207e-04 8.182036e-05 -1.378507e-04
N -4.787044e+00 9.312687e-01 4.393927e+00 3.146203e-04 1.022511e-04 -4.440790e-05
N -4.743859e+00 8.515383e-01 -5.918789e+00 2.213874e-04 -3.015105e-04 9.812565e-04
N -4.819967e+00 8.495113e-01 -7.912559e-01 -1.695597e-04 1.215126e-04 1.068820e-04
N -6.368506e+00 3.574113e+00 4.375498e+00 1.888692e-04 -1.265934e-04 -2.066759e-04
N -6.330348e+00 3.638517e+00 -5.847991e+00 -2.347298e-04 -1.868162e-04 -3.438044e-04
N -6.365971e+00 3.622823e+00 -7.727949e-01 -7.102993e-05 -1.440573e-04 -1.202741e-04
N -3.149862e+00 -1.841589e+00 4.369984e+00 2.434564e-04 1.589069e-04 -1.102782e-04
N -3.188706e+00 -1.825980e+00 -5.838554e+00 -1.203432e-04 -1.488377e-04 -3.708007e-04
N -3.194011e+00 -1.865095e+00 -7.706629e-01 -1.083041e-05 -6.571824e-05 -1.345849e-04
N -1.615254e+00 8.755404e-01 4.371439e+00 2.875735e-04 -2.274855e-04 -2.174626e-04
N -1.649806e+00 8.458269e-01 -5.911634e+00 6.317865e-04 -5.465197e-04 -3.303445e-04
N -1.605573e+00 8.324665e-01 -7.597731e-01 1.777556e-04 -4.947715e-05 -1.746056e-04
N -3.162658e+00 3.597922e+00 4.410095e+00 8.362691e-05 1.034403e-04 -1.992366e-04
N -3.237537e+00 3.592995e+00 -5.906400e+00 5.564840e-05 -7.722872e-04 4.246505e-04
N -3.236866e+00 3.646446e+00 -7.464390e-01 -9.407066e-05 -2.420138e-04 -1.004399e-05
N -2.902333e-02 -1.820977e+00 4.394298e+00 9.948467e-05 1.102189e-04 -3.162602e-04
N -1.906068e-02 -1.864351e+00 -5.894780e+00 -1.261194e-04 -3.254607e-04 1.505256e-04
N -5.982861e-02 -1.889337e+00 -7.956114e-01 1.551139e-04 -9.938374e-05 -1.124345e-04
N -2.177801e-02 1.790174e+00 1.868965e+00 2.923068e-04 -6.561849e-04 -4.110999e-04
N -2.987035e-02 1.788963e+00 6.903608e+00 -3.874417e-05 2.167262e-05 -1.131372e-04
N 2.103000e-02 1.814523e+00 -3.309219e+00 3.068002e-04 1.697558e-04 2.111700e-05
N 3.198161e+00 -3.673951e+00 1.843333e+00 -1.699756e-04 -2.745977e-04 -4.577099e-04
N 3.145506e+00 -3.742037e+00 6.907450e+00 4.097991e-04 3.247989e-04 -5.118770e-04
N 3.197197e+00 -3.733884e+00 -3.309789e+00 2.558789e-04 1.164179e-04 9.877029e-05
N 1.607741e+00 -9.244344e-01 1.839811e+00 -1.450187e-04 4.823120e-04 -2.485407e-04
N 1.519562e+00 -9.295566e-01 6.893224e+00 1.218278e-04 4.422826e-04 -1.003627e-03
N 1.515025e+00 -9.289943e-01 -3.349594e+00 3.885729e-04 4.726247e-04 -3.494803e-04
N 3.101274e+00 1.762635e+00 1.738004e+00 2.540900e-04 2.148592e-04 -9.146697e-05
N 3.142807e+00 1.744205e+00 6.910041e+00 5.932840e-04 7.940711e-05 -1.553393e-04
N 3.155630e+00 1.787297e+00 -3.273517e+00 -1.710031e-03 4.516083e-04 -3.051540e-05
N 6.278398e+00 -3.726652e+00 1.748107e+00 -1.386514e-04 -6.602449e-05 3.456160e-05
N 6.280651e+00 -3.719354e+00 6.944944e+00 7.209795e-05 2.765514e-05 -3.677025e-04
N 6.325769e+00 -3.701848e+00 -3.256676e+00 -1.626214e-04 -1.628679e-04 -1.447644e-04
N 4.693473e+00 -9.747557e-01 1.760884e+00 -1.618111e-04 1.026338e-04 9.566183e-05
N 4.730312e+00 -9.079269e-01 6.944368e+00 1.082942e-05 2.061784e-04 -3.081385e-04
N 4.787103e+00 -9.273463e-01 -3.346520e+00 -5.611832e-05 -8.834494e-05 -1.539640e-04
N -3.152994e+00 1.764529e+00 1.825914e+00 -3.176586e-04 -2.676414e-05 -1.424949e-04
N -3.197160e+00 1.791882e+00 6.924615e+00 5.140216e-05 -1.616101e-04 -3.756231e-04
N -3.238520e+00 1.763470e+00 -3.376724e+00 -3.370742e-04 -2.934262e-04 2.398236e-04
N -1.899888e-02 -3.696481e+00 1.747630e+00 -1.239323e-04 9.297978e-05 -2.988913e-04
N 1.908301e-02 -3.669261e+00 6.976507e+00 -3.840307e-04 8.694906e-04 -2.291672e-05
N -6.116481e-02 -3.673777e+00 -3.354108e+00 -3.402963e-04 -3.226706e-04 -2.767253e-04
N -1.604522e+00 -9.024024e-01 1.749065e+00 -7.825588e-05 2.324675e-04 -3.055976e-04
N -1.567807e+00 -9.260608e-01 6.910367e+00 -4.437841e-04 4.966337e-04 -2.733795e-04
N -1.604231e+00 -1.006749e+00 -3.353602e+00 -6.690330e-04 -6.485824e-05 1.008435e-04
