108
Energy=-8.486435e+05 Lattice="9.445285e+00 0.000000e+00 0.000000e+00 -4.723193e+00 8.178850e+00 0.000000e+00 -9.921662e-03 1.069912e-03 1.518185e+01" Stress="2.245174e-05 1.182917e-05 -3.372321e-04 1.339875e-05 -2.453350e-05 1.696779e-04 -3.487836e-04 1.645262e-04 1.792239e-04" Properties=species:S:1:pos:R:3:forces:R:3 Config_type=AlGaN_super3_9_0_21.xyz
Al 1.561686e+00 8.749850e-01 2.375320e+00 -1.625673e-04 -7.690067e-04 -6.190971e-04
Al 1.559159e+00 8.627845e-01 7.444322e+00 1.708683e-04 -1.705814e-04 8.319029e-05
Al 1.570261e+00 8.678371e-01 -2.678207e+00 1.637222e-04 -9.295736e-05 6.314636e-05
Al -2.147254e-02 3.600201e+00 2.393043e+00 -1.433910e-03 -7.460315e-04 5.621798e-04
Al -2.622587e-02 3.609627e+00 7.440031e+00 -3.089221e-05 -1.253766e-04 -6.287179e-05
Al -2.386073e-02 3.600422e+00 -2.686890e+00 -2.315686e-04 4.441935e-05 3.415348e-04
Al 3.136733e+00 -1.850589e+00 2.387755e+00 4.983568e-05 -2.247442e-04 -1.983987e-04
Al 3.121647e+00 -1.854667e+00 7.445436e+00 -1.969328e-05 3.218082e-06 2.234388e-04
Al 3.123543e+00 -1.856613e+00 -2.696720e+00 -2.253652e-05 -5.282026e-05 2.490810e-04
Al -4.760440e+00 8.600038e-01 2.403638e+00 -8.054109e-05 -2.402352e-04 4.927814e-05
Al -4.752214e+00 8.699254e-01 7.437060e+00 7.003462e-05 -6.165337e-05 4.556189e-05
Al -4.763270e+00 8.727684e-01 -2.700746e+00 -4.831392e-06 -1.860123e-04 4.673444e-04
Al -6.331288e+00 3.580346e+00 2.417018e+00 -6.951575e-04 1.138944e-04 -1.505180e-04
Al -6.327854e+00 3.594601e+00 7.442923e+00 -3.035811e-05 3.262421e-05 8.760652e-07
Al -6.315370e+00 3.582680e+00 -2.718437e+00 1.299515e-04 -1.287380e-04 5.380355e-04
Al -3.180931e+00 -1.849368e+00 2.401429e+00 -2.193639e-04 5.979839e-04 1.906408e-05
Al -3.179081e+00 -1.858377e+00 7.439261e+00 1.406849e-05 3.693677e-05 -1.887351e-05
Ga -3.173649e+00 -1.858613e+00 -2.694834e+00 -5.266507e-05 8.911102e-05 1.339106e-04
Al -1.595801e+00 8.673922e-01 2.393122e+00 1.804653e-04 -1.188297e-03 -5.044773e-04
Al -1.613500e+00 8.668848e-01 7.446589e+00 -1.085868e-06 -1.678410e-04 2.392615e-05
Ga -1.592135e+00 8.703641e-01 -2.684185e+00 2.327116e-04 -6.572904e-05 -1.478236e-05
Ga -3.160672e+00 3.595153e+00 2.419021e+00 2.150306e-04 7.068497e-05 -3.077629e-04
Al -3.174746e+00 3.596257e+00 7.441330e+00 3.883478e-05 -4.926015e-05 -1.536022e-04
Al -3.168731e+00 3.606525e+00 -2.714645e+00 -1.669437e-05 -2.324019e-04 2.910281e-04
Ga -2.359912e-02 -1.842469e+00 2.410927e+00 8.835107e-05 2.145560e-04 -2.454811e-04
Al -2.328141e-02 -1.853645e+00 7.437383e+00 -3.083752e-05 -4.904332e-05 -1.207699e-04
Al -8.345800e-03 -1.856917e+00 -2.701150e+00 -3.186919e-05 -2.239064e-04 4.395473e-04
Ga -2.483579e-02 1.774851e+00 4.924394e+00 -5.606258e-05 1.847514e-04 3.653224e-05
Ga -1.198040e-02 1.780842e+00 -5.226426e+00 -1.428954e-04 -7.445470e-06 6.796391e-06
Al -1.089740e-02 1.775971e+00 -1.409950e-01 -2.333067e-04 6.055584e-05 3.177408e-04
Al 3.123107e+00 -3.660444e+00 4.937286e+00 4.260134e-04 1.900817e-04 1.421338e-04
Al 3.127528e+00 -3.664845e+00 -5.223583e+00 -5.531137e-05 8.604468e-05 5.217462e-05
Al 3.133736e+00 -3.662694e+00 -1.615427e-01 -8.429381e-04 3.331651e-05 -4.211750e-05
Al 1.562007e+00 -9.518940e-01 4.929009e+00 6.866880e-05 1.450088e-04 4.669645e-05
Al 1.562020e+00 -9.559274e-01 -5.215902e+00 -1.519581e-04 8.957942e-05 1.759162e-04
Al 1.563268e+00 -9.409525e-01 -1.655924e-01 -6.301964e-04 -4.227605e-04 -1.006525e-04
Al 3.129415e+00 1.776373e+00 4.923489e+00 -3.373499e-04 -2.567889e-04 -4.807806e-05
Al 3.138097e+00 1.775205e+00 -5.222831e+00 6.064754e-05 -2.264570e-05 1.071862e-04
Al 3.120673e+00 1.766389e+00 -1.505311e-01 -6.446067e-05 -6.156263e-04 2.969122e-04
Al 6.274949e+00 -3.666318e+00 4.915926e+00 -3.144871e-04 2.321658e-07 -1.009122e-04
Al 6.280469e+00 -3.670207e+00 -5.226262e+00 -1.049670e-05 3.868437e-05 7.720837e-05
Ga 6.268229e+00 -3.681868e+00 -1.337757e-01 2.417562e-04 1.467159e-04 6.448519e-04
Al 4.694551e+00 -9.489399e-01 4.920118e+00 -5.285018e-05 -9.038277e-05 4.255239e-05
Al 4.699297e+00 -9.451172e-01 -5.234558e+00 -8.042761e-05 -4.252039e-05 1.094936e-04
Al 4.685785e+00 -9.447332e-01 -1.402899e-01 -1.975282e-04 -4.428177e-04 6.129480e-04
Al -3.184350e+00 1.770965e+00 4.929695e+00 2.280391e-05 -8.911678e-05 -1.400089e-05
Al -3.183521e+00 1.779956e+00 -5.227399e+00 -6.402853e-05 -1.143065e-05 1.430003e-04
Ga -3.178332e+00 1.770557e+00 -1.453217e-01 1.930329e-04 5.682077e-06 5.260701e-04
Al -3.220677e-02 -3.677096e+00 4.950151e+00 2.655068e-04 9.386580e-05 -3.166905e-05
Al -1.890469e-02 -3.671177e+00 -5.228190e+00 3.488624e-05 3.315763e-05 -1.124313e-04
Ga -2.536071e-02 -3.670398e+00 -1.666750e-01 5.082546e-04 2.790844e-04 3.525124e-04
Al -1.611262e+00 -9.512090e-01 4.936875e+00 -5.201876e-05 5.368340e-05 -6.165036e-05
Al -1.593906e+00 -9.592401e-01 -5.243579e+00 6.613646e-05 -1.320670e-05 -4.171469e-05
Al -1.587487e+00 -9.442663e-01 -1.317322e-01 -8.282534e-04 -8.445489e-05 2.222581e-05
N 1.590298e+00 8.433509e-01 4.290827e+00 7.576344e-04 2.531091e-04 7.031276e-04
N 1.602776e+00 8.402810e-01 -5.834012e+00 1.589358e-04 -1.413511e-04 -1.635981e-04
N 1.555225e+00 8.718368e-01 -7.524234e-01 -5.450580e-05 -1.997251e-04 8.140085e-05
N -3.255469e-02 3.642336e+00 4.306907e+00 2.720668e-04 2.811950e-04 -1.582469e-05
N -1.997896e-02 3.649192e+00 -5.838949e+00 -2.125241e-05 -9.024991e-06 -1.176602e-04
N -6.355990e-02 3.573340e+00 -7.689196e-01 5.327404e-04 -3.510629e-04 -4.308945e-04
N 3.123393e+00 -1.857651e+00 4.312111e+00 -8.286502e-05 -5.005792e-05 -1.795903e-04
N 3.128070e+00 -1.856511e+00 -5.821847e+00 -4.374468e-05 -2.861118e-05 -1.219435e-04
N 3.130513e+00 -1.855776e+00 -7.694858e-01 -8.946747e-05 -6.053071e-05 -1.099206e-04
N -4.753481e+00 8.669241e-01 4.323507e+00 4.896919e-05 7.713363e-06 1.789143e-05
N -4.744032e+00 8.698649e-01 -5.830717e+00 6.054032e-05 -4.337809e-06 -1.231640e-04
N -4.790513e+00 8.407565e-01 -7.791554e-01 -8.271636e-05 8.301222e-04 -6.575158e-04
N -6.320855e+00 3.591990e+00 4.333518e+00 6.514654e-05 -4.716264e-05 -4.242174e-05
N -6.316662e+00 3.593997e+00 -5.819104e+00 -2.737710e-05 -5.020907e-05 6.775462e-05
N -6.325109e+00 3.543131e+00 -8.053594e-01 1.970194e-05 3.996214e-04 -5.126714e-04
N -3.175242e+00 -1.852211e+00 4.322897e+00 3.680580e-05 1.641198e-04 5.661201e-05
N -3.171325e+00 -1.859192e+00 -5.824833e+00 -6.761103e-06 8.783194e-05 -2.995521e-05
N -3.171532e+00 -1.809367e+00 -7.172868e-01 1.508334e-04 2.540325e-04 1.663679e-04
N -1.640943e+00 8.436339e-01 4.306039e+00 1.224136e-04 -1.168302e-04 2.933662e-04
N -1.639040e+00 8.484582e-01 -5.829832e+00 7.586189e-05 8.810383e-06 3.335337e-05
N -1.555526e+00 8.468088e-01 -7.147890e-01 1.891502e-04 3.730752e-06 1.058068e-04
N -3.171288e+00 3.599316e+00 4.394099e+00 -7.391759e-04 6.945473e-05 -6.723472e-05
N -3.166310e+00 3.597807e+00 -5.819435e+00 7.496352e-05 -1.235686e-04 1.007903e-04
N -3.129687e+00 3.617663e+00 -8.014079e-01 3.624693e-04 2.649392e-04 -5.780215e-05
N -2.483409e-02 -1.852842e+00 4.389104e+00 -9.993486e-05 -5.919083e-04 1.952270e-06
N -1.162679e-02 -1.855769e+00 -5.827730e+00 9.625450e-05 -6.539092e-05 -1.864164e-06
N -2.525254e-02 -1.806037e+00 -7.789503e-01 1.405142e-03 3.018378e-04 -4.684488e-04
N -2.047850e-02 1.782174e+00 1.792319e+00 4.060294e-05 -2.465730e-04 -3.172934e-04
N -2.561896e-02 1.776162e+00 6.902761e+00 -1.839992e-04 4.738193e-04 2.746040e-04
N 2.688249e-02 1.800823e+00 -3.258394e+00 -2.571920e-04 -5.701086e-05 1.269648e-04
N 3.164987e+00 -3.649355e+00 1.757250e+00 -7.981583e-05 3.494766e-04 4.438776e-04
N 3.122339e+00 -3.668593e+00 6.848260e+00 1.674371e-05 3.286601e-05 6.055078e-05
N 3.132741e+00 -3.671123e+00 -3.303028e+00 -2.129016e-06 6.967674e-05 -1.290838e-04
N 1.594705e+00 -9.295991e-01 1.755362e+00 -2.033097e-04 8.682236e-04 1.047299e-04
N 1.553457e+00 -9.475017e-01 6.841401e+00 1.529155e-05 1.119926e-04 -1.327417e-04
N 1.557464e+00 -9.455404e-01 -3.291221e+00 -7.949845e-05 7.726764e-05 -1.153353e-05
N 3.129389e+00 1.782586e+00 1.778053e+00 -1.152060e-05 6.205093e-05 -1.445991e-04
N 3.121168e+00 1.779788e+00 6.838052e+00 -3.515774e-05 -4.619602e-05 -1.274371e-04
N 3.125384e+00 1.773934e+00 -3.308088e+00 -2.269352e-06 -8.595044e-05 -9.252937e-07
N 6.273137e+00 -3.674252e+00 1.852341e+00 2.167268e-03 -2.202721e-04 -1.439616e-03
N 6.272142e+00 -3.672800e+00 6.834702e+00 2.320764e-05 -6.027171e-05 -1.450534e-05
N 6.273503e+00 -3.720770e+00 -3.312908e+00 3.741740e-05 1.229745e-05 -2.202004e-04
N 4.696777e+00 -9.452788e-01 1.787466e+00 3.063437e-05 1.354796e-04 -9.839994e-05
N 4.693976e+00 -9.482753e-01 6.841088e+00 -1.160022e-04 6.149629e-06 -1.053029e-04
N 4.660232e+00 -9.245373e-01 -3.321539e+00 -2.739609e-04 6.168188e-05 -2.323357e-04
N -3.179925e+00 1.732687e+00 1.829619e+00 -8.287767e-05 3.380161e-04 -7.155243e-04
N -3.178429e+00 1.777191e+00 6.844412e+00 2.828424e-06 -5.144677e-05 9.331647e-05
N -3.213449e+00 1.797962e+00 -3.309480e+00 -1.007657e-05 3.376054e-04 -2.833111e-04
N -6.472565e-02 -3.697883e+00 1.805803e+00 -2.323027e-04 -5.197126e-05 -3.070215e-04
N -3.076321e-02 -3.675711e+00 6.860907e+00 -1.361510e-07 1.888960e-05 1.385081e-04
N -2.132640e-02 -3.670140e+00 -3.302965e+00 1.487082e-06 -5.252619e-06 -1.801182e-05
N -1.636050e+00 -9.302579e-01 1.776980e+00 2.006212e-05 7.138299e-04 3.353916e-04
N -1.604890e+00 -9.475088e-01 6.850790e+00 -3.835237e-05 7.842369e-05 3.171888e-05
N -1.553296e+00 -9.731119e-01 -3.341504e+00 8.789628e-06 2.204113e-04 -1.339668e-04
