108
Energy=-9.401944e+05 Lattice="9.459934e+00 0.000000e+00 0.000000e+00 -4.735433e+00 8.192886e+00 0.000000e+00 4.878782e-03 -4.345361e-03 1.519617e+01" Stress="3.642594e-04 -3.429638e-04 3.032965e-04 -3.331821e-04 7.152684e-04 -2.083711e-04 2.988672e-04 -2.107584e-04 -1.043248e-03" Properties=species:S:1:pos:R:3:forces:R:3 Config_type=AlGaN_super3_11_0_11.xyz
Al 1.547840e+00 8.658092e-01 2.401034e+00 -1.124230e-03 -1.085411e-03 1.023773e-03
Al 1.558826e+00 8.743331e-01 7.435391e+00 5.407759e-04 -1.406086e-04 6.420667e-04
Al 1.552162e+00 8.625503e-01 -2.699530e+00 1.443209e-04 -5.729254e-04 3.840137e-04
Al -2.258665e-02 3.597352e+00 2.397332e+00 -2.082815e-05 3.950429e-06 5.339361e-04
Al -2.877931e-02 3.591881e+00 7.429156e+00 -7.545724e-05 2.723279e-04 7.368762e-04
Al -2.599363e-02 3.602421e+00 -2.684825e+00 8.360472e-06 -3.483387e-04 3.584869e-04
Al 3.135652e+00 -1.862504e+00 2.385584e+00 -3.793628e-05 1.627958e-04 3.630860e-04
Al 3.130891e+00 -1.864995e+00 7.427817e+00 2.171932e-04 -2.803058e-04 1.140795e-03
Al 3.121255e+00 -1.859110e+00 -2.672495e+00 2.209336e-04 3.246153e-04 1.969603e-04
Al -4.748907e+00 8.671101e-01 2.411244e+00 3.638327e-04 -3.261518e-04 1.150361e-05
Al -4.758916e+00 8.812928e-01 7.421224e+00 1.240796e-04 -1.558336e-04 3.974105e-04
Al -4.765365e+00 8.731901e-01 -2.681635e+00 2.478265e-05 -6.512391e-05 3.821274e-04
Al -6.335228e+00 3.602508e+00 2.411055e+00 -1.875911e-03 -1.705479e-05 1.656571e-03
Al -6.330587e+00 3.582552e+00 7.434987e+00 1.639393e-05 3.598368e-04 5.798410e-04
Ga -6.342932e+00 3.596806e+00 -2.695916e+00 -6.229854e-05 -2.713975e-04 2.548081e-05
Al -3.187516e+00 -1.869933e+00 2.395138e+00 1.062019e-03 1.603496e-04 -7.368451e-04
Ga -3.184067e+00 -1.869245e+00 7.444953e+00 -1.097634e-05 3.565839e-04 4.623096e-04
Ga -3.183550e+00 -1.867481e+00 -2.676773e+00 5.211802e-04 3.976482e-04 -3.155175e-04
Al -1.598149e+00 8.920606e-01 2.393483e+00 5.291222e-04 -3.948388e-03 -1.366404e-03
Al -1.599094e+00 8.986270e-01 7.454361e+00 1.292472e-04 -1.530832e-03 -1.053908e-04
Ga -1.599994e+00 8.871303e-01 -2.691181e+00 1.054356e-03 -9.489904e-04 8.179854e-04
Al -3.168963e+00 3.598214e+00 2.407203e+00 -6.357055e-04 1.730241e-04 -6.699911e-04
Al -3.172157e+00 3.596238e+00 7.436054e+00 2.062309e-04 3.301005e-04 8.110337e-04
Ga -3.174031e+00 3.610767e+00 -2.693275e+00 6.375771e-04 -6.144919e-04 8.137471e-04
Al -1.372142e-03 -1.865646e+00 2.411846e+00 -4.922449e-04 7.154013e-04 5.091014e-05
Ga -2.986322e-03 -1.860533e+00 7.448540e+00 4.627934e-04 -4.370894e-04 4.380619e-04
Al -2.314728e-03 -1.856549e+00 -2.697608e+00 -7.833885e-04 4.604462e-03 -1.696215e-03
Al -1.962188e-02 1.785253e+00 4.917861e+00 2.472478e-04 1.746232e-04 9.461159e-04
Al -1.920892e-02 1.789591e+00 -5.239129e+00 -2.953519e-04 2.243302e-04 3.728060e-04
Al -1.936280e-02 1.791938e+00 -1.394001e-01 -1.482681e-04 3.776533e-04 1.002363e-03
Al 3.136983e+00 -3.684093e+00 4.909981e+00 8.667760e-05 4.949179e-04 3.858817e-04
Al 3.134392e+00 -3.682682e+00 -5.239400e+00 -6.624984e-06 1.560477e-04 6.651316e-04
Al 3.149550e+00 -3.681683e+00 -1.336706e-01 -8.927877e-05 4.977820e-04 9.306741e-04
Al 1.576172e+00 -9.500408e-01 4.908209e+00 -8.707976e-04 4.586727e-04 7.071997e-04
Al 1.557207e+00 -9.474650e-01 -5.217667e+00 -3.567163e-04 7.739026e-04 8.276420e-04
Al 1.566855e+00 -9.495932e-01 -1.474762e-01 -8.191955e-04 2.558600e-04 8.624546e-04
Al 3.126719e+00 1.778787e+00 4.910495e+00 -2.403067e-04 1.824585e-04 1.229362e-04
Al 3.122682e+00 1.783919e+00 -5.237899e+00 -3.622127e-05 -1.006249e-05 4.207233e-04
Ga 3.123038e+00 1.766871e+00 -1.242076e-01 -2.582358e-05 -1.572113e-04 9.867188e-04
Al 6.281121e+00 -3.696834e+00 4.908457e+00 7.850487e-04 -4.679807e-05 3.831912e-04
Al 6.280657e+00 -3.696435e+00 -5.238155e+00 1.288721e-04 -6.663071e-04 2.915509e-04
Al 6.263277e+00 -3.687293e+00 -1.169055e-01 6.350580e-05 1.389405e-04 5.756931e-04
Al 4.697198e+00 -9.520505e-01 4.908669e+00 -1.482215e-04 1.805533e-05 5.153557e-04
Ga 4.695559e+00 -9.406356e-01 -5.219554e+00 -6.279584e-04 3.773468e-04 8.245492e-04
Al 4.700504e+00 -9.507833e-01 -1.366293e-01 -4.082436e-04 2.552636e-06 4.954641e-04
Al -3.177833e+00 1.789893e+00 4.919450e+00 -4.293920e-04 -2.974415e-04 7.286113e-04
Al -3.184835e+00 1.792716e+00 -5.246507e+00 -2.428373e-04 -6.420072e-05 -1.917064e-03
Al -3.178215e+00 1.782274e+00 -1.197754e-01 -2.848663e-04 -6.095468e-05 9.904212e-04
Al -1.264922e-02 -3.695633e+00 4.910051e+00 -7.194827e-04 1.928863e-04 4.329438e-04
Al -2.345044e-02 -3.679788e+00 -5.235957e+00 4.405966e-05 2.985505e-04 -7.310193e-05
Ga -1.117528e-02 -3.671499e+00 -1.145648e-01 7.473814e-05 -9.812501e-05 -1.864269e-03
Ga -1.595893e+00 -9.443866e-01 4.896717e+00 -3.925230e-04 4.811683e-04 5.479623e-05
Al -1.587006e+00 -9.386329e-01 -5.219229e+00 -2.894267e-04 1.131133e-04 1.322207e-04
Ga -1.591020e+00 -9.449940e-01 -1.173379e-01 -3.649573e-04 -1.562651e-04 1.286354e-05
N 1.548047e+00 8.681939e-01 4.319027e+00 4.840631e-05 -2.211666e-04 -2.527154e-04
N 1.550308e+00 8.696151e-01 -5.833659e+00 2.055839e-04 -2.569315e-04 -5.337100e-04
N 1.511005e+00 8.482334e-01 -7.725239e-01 6.387258e-05 -2.998540e-04 -3.687551e-04
N -2.524764e-02 3.596429e+00 4.315773e+00 -4.757661e-04 -1.534492e-04 -4.243456e-04
N -3.036320e-02 3.603894e+00 -5.848485e+00 -1.553851e-04 -2.935598e-04 -5.658387e-04
N -2.365815e-02 3.601759e+00 -7.511318e-01 -2.955324e-04 -1.756215e-04 -8.268447e-04
N 3.135240e+00 -1.865712e+00 4.305065e+00 1.530034e-04 -3.430970e-04 -6.110502e-04
N 3.089011e+00 -1.881101e+00 -5.852248e+00 -2.424226e-04 -3.996026e-04 -1.080089e-03
N 3.131614e+00 -1.864529e+00 -7.421999e-01 1.627885e-04 -3.253726e-04 -5.161330e-05
N -4.750491e+00 8.689639e-01 4.326974e+00 7.894753e-04 1.919837e-04 1.661179e-04
N -4.761281e+00 9.199292e-01 -5.862974e+00 4.801882e-04 2.595312e-04 -9.162335e-04
N -4.714089e+00 8.537921e-01 -7.594014e-01 6.927111e-04 -7.763368e-05 -1.489459e-04
N -6.332290e+00 3.599368e+00 4.323236e+00 -8.232361e-05 3.937228e-04 -2.836750e-05
N -6.334454e+00 3.600917e+00 -5.834675e+00 2.490309e-05 -2.008422e-06 -9.677011e-05
N -6.372830e+00 3.625684e+00 -7.244936e-01 -4.336634e-04 -1.171879e-05 -1.891761e-04
N -3.220065e+00 -1.890259e+00 4.304638e+00 -3.845356e-04 2.162662e-05 -1.671357e-04
N -3.138307e+00 -1.881779e+00 -5.782063e+00 2.010970e-04 6.280491e-04 -5.010821e-04
N -3.210384e+00 -1.886735e+00 -6.999181e-01 -4.097704e-04 -1.103266e-05 2.920189e-04
N -1.601092e+00 9.312699e-01 4.298312e+00 5.171898e-04 -3.266650e-04 -6.434150e-04
N -1.604002e+00 8.827372e-01 -5.820914e+00 7.738621e-04 -4.161171e-04 -6.247699e-04
N -1.603644e+00 9.234093e-01 -7.102367e-01 4.938694e-04 -3.283013e-05 -9.798952e-05
N -3.172392e+00 3.599690e+00 4.321855e+00 2.872084e-04 -2.369478e-04 -6.360029e-04
N -3.179904e+00 3.610411e+00 -5.834055e+00 1.535674e-04 -3.062913e-04 -5.564544e-04
N -3.137622e+00 3.580519e+00 -7.117887e-01 5.924253e-04 -1.945811e-04 -5.220933e-04
N 2.865070e-02 -1.885473e+00 4.315126e+00 1.096727e-03 -4.377155e-04 -4.492936e-05
N -1.720057e-02 -1.853757e+00 -5.775994e+00 7.479205e-05 -3.854995e-04 -2.288407e-04
N 2.012624e-02 -1.834793e+00 -7.901899e-01 7.229048e-04 -5.598467e-04 1.401893e-03
N -1.502986e-02 1.784155e+00 1.787490e+00 -2.885819e-04 -2.673406e-04 -1.107905e-03
N -2.073946e-02 1.777967e+00 6.842098e+00 -3.008460e-04 -1.780736e-04 -6.548024e-04
N 1.869837e-02 1.809536e+00 -3.316660e+00 -1.630951e-04 5.205002e-04 -5.010042e-04
N 3.140301e+00 -3.683839e+00 1.795695e+00 -4.884774e-04 4.446967e-05 -9.215998e-04
N 3.136008e+00 -3.684338e+00 6.833220e+00 -1.866469e-04 1.550692e-04 -6.983029e-04
N 3.177963e+00 -3.655240e+00 -3.312326e+00 -7.132074e-05 5.249295e-04 -5.072939e-04
N 1.560709e+00 -9.523125e-01 1.782806e+00 -4.210746e-04 5.355236e-04 -7.411190e-04
N 1.602614e+00 -9.266292e-01 6.817415e+00 -4.601653e-04 8.070717e-04 -7.599401e-04
N 1.565007e+00 -9.504247e-01 -3.293406e+00 -2.936391e-04 2.818673e-04 -4.290091e-04
N 3.126418e+00 1.776804e+00 1.864742e+00 1.438977e-03 -3.836718e-04 -2.875825e-03
N 3.126572e+00 1.779862e+00 6.830772e+00 -1.813757e-04 -2.848376e-04 -5.891149e-04
N 3.128008e+00 1.734191e+00 -3.312724e+00 -1.434771e-04 -4.622246e-04 -7.027376e-04
N 6.284511e+00 -3.688180e+00 1.801400e+00 -2.376945e-04 -3.852576e-04 -1.884579e-04
N 6.287699e+00 -3.732566e+00 6.821371e+00 2.340411e-04 -5.915889e-04 -5.622363e-04
N 6.239756e+00 -3.706618e+00 -3.334852e+00 1.074307e-04 2.106129e-06 -9.389512e-06
N 4.706864e+00 -9.459061e-01 1.790769e+00 -2.495046e-04 4.943486e-04 -7.577564e-04
N 4.670121e+00 -9.293195e-01 6.822862e+00 -5.663154e-04 3.298577e-04 -6.866058e-04
N 4.661265e+00 -9.241972e-01 -3.246678e+00 -3.792977e-04 -8.871842e-05 -1.188752e-04
N -3.183570e+00 1.783147e+00 1.800502e+00 -2.056125e-04 -4.934938e-04 -5.096351e-04
N -3.173776e+00 1.783363e+00 6.840760e+00 4.108049e-05 -3.412541e-05 -5.452051e-04
N -3.226175e+00 1.762403e+00 -3.343796e+00 -4.459591e-04 4.690413e-05 1.862598e-03
N -2.459260e-02 -3.685943e+00 1.853091e+00 3.328780e-03 6.777838e-04 2.444947e-03
N -1.902710e-02 -3.728883e+00 6.826394e+00 9.718253e-05 -5.125139e-04 -3.287282e-04
N -2.288508e-02 -3.630225e+00 -3.323875e+00 -1.431077e-04 -3.319801e-03 -1.736367e-03
N -1.587333e+00 -9.654062e-01 1.861218e+00 -1.369485e-03 5.164660e-03 2.333777e-03
N -1.596298e+00 -8.997132e-01 6.858365e+00 2.029552e-04 1.289305e-03 2.807027e-04
N -1.561121e+00 -9.648683e-01 -3.311557e+00 3.121744e-04 -6.797685e-04 5.165390e-04
