108
Energy=-1.031745e+06 Lattice="9.468660e+00 0.000000e+00 0.000000e+00 -4.738125e+00 8.196036e+00 0.000000e+00 2.880582e-02 -4.575330e-03 1.524003e+01" Stress="3.524418e-04 -6.714301e-05 1.324736e-03 -7.485061e-05 3.084526e-05 -1.298881e-04 1.321560e-03 -1.315042e-04 1.879627e-04" Properties=species:S:1:pos:R:3:forces:R:3 Config_type=AlGaN_super3_13_2_15.xyz
Al 1.556422e+00 8.846233e-01 2.397696e+00 1.520649e-04 3.364264e-04 4.629303e-05
Al 1.561264e+00 8.655908e-01 7.455715e+00 1.236509e-03 5.411830e-04 -2.683397e-04
Al 1.550643e+00 8.695184e-01 -2.678795e+00 5.975229e-04 5.844163e-04 1.317406e-03
Al -2.868678e-02 3.596955e+00 2.400138e+00 -7.167157e-04 -6.204348e-04 -8.938870e-05
Al -4.976015e-03 3.599225e+00 7.452649e+00 9.259826e-05 1.049692e-04 4.762834e-04
Al -4.248102e-02 3.607621e+00 -2.685516e+00 1.635029e-04 8.902311e-05 2.704341e-04
Al 3.156049e+00 -1.867529e+00 2.398527e+00 6.222813e-04 -2.700771e-04 -9.501790e-05
Al 3.154575e+00 -1.854566e+00 7.467770e+00 7.693042e-05 -2.094292e-04 3.976394e-04
Al 3.146229e+00 -1.863370e+00 -2.698172e+00 -1.289187e-04 -9.729887e-05 -5.481596e-05
Al -4.754797e+00 8.650531e-01 2.365027e+00 1.583566e-04 -9.318697e-05 -9.507907e-04
Al -4.744618e+00 8.585898e-01 7.480769e+00 -8.153515e-04 -9.330412e-05 3.041178e-04
Al -4.754522e+00 8.624369e-01 -2.674925e+00 5.718689e-04 -2.488456e-04 1.854107e-04
Al -6.341224e+00 3.590616e+00 2.399975e+00 1.430253e-03 -2.352685e-04 2.485517e-04
Al -6.334694e+00 3.595757e+00 7.471074e+00 -7.175617e-05 1.416279e-03 5.020085e-04
Ga -6.350529e+00 3.595819e+00 -2.688110e+00 -1.577596e-04 1.200463e-04 4.609987e-04
Al -3.188124e+00 -1.853653e+00 2.406423e+00 6.519458e-04 8.358005e-04 -1.633279e-04
Ga -3.175599e+00 -1.863833e+00 7.467194e+00 -5.450220e-06 -1.750105e-05 4.463474e-04
Al -3.198438e+00 -1.846954e+00 -2.702017e+00 2.738657e-04 -3.724539e-04 2.860750e-04
Al -1.595435e+00 8.780215e-01 2.371954e+00 -1.702114e-04 1.016424e-03 4.086883e-04
Al -1.585946e+00 8.808233e-01 7.472855e+00 6.562115e-05 -2.548597e-03 8.181585e-04
Al -1.617680e+00 8.795850e-01 -2.674727e+00 1.141854e-04 -3.312354e-04 -2.062666e-05
Al -3.161267e+00 3.597622e+00 2.398806e+00 2.413014e-04 -2.695503e-04 -1.145148e-04
Ga -3.160305e+00 3.598193e+00 7.480837e+00 1.071697e-04 4.953142e-05 -4.455459e-05
Al -3.164553e+00 3.595637e+00 -2.701584e+00 -2.512647e-05 -2.372724e-04 -2.287867e-04
Ga -2.647236e-02 -1.853689e+00 2.417710e+00 3.819118e-04 -1.166073e-04 9.928396e-05
Ga -4.952041e-03 -1.852847e+00 7.471152e+00 2.626477e-04 -4.740729e-07 -5.319473e-05
Ga -2.680848e-02 -1.846454e+00 -2.700647e+00 -4.495022e-05 -1.224676e-04 5.117995e-04
Al -1.891807e-02 1.778938e+00 4.928203e+00 -1.571753e-04 2.852580e-04 -1.335481e-04
Ga -4.213904e-02 1.782726e+00 -5.225790e+00 -4.826219e-04 1.281902e-04 1.644252e-04
Al -3.382393e-02 1.783519e+00 -1.547741e-01 7.139463e-04 9.194513e-06 6.210501e-04
Al 3.155418e+00 -3.673293e+00 4.923555e+00 -2.544974e-04 6.113314e-05 -6.297848e-05
Al 3.132148e+00 -3.668992e+00 -5.227459e+00 3.969533e-05 -3.273302e-05 2.212182e-04
Al 3.140269e+00 -3.689480e+00 -1.497205e-01 -2.206644e-04 3.833700e-04 4.268716e-04
Al 1.573247e+00 -9.563816e-01 4.923154e+00 5.944456e-04 3.035598e-04 4.223954e-04
Al 1.560662e+00 -9.572215e-01 -5.224470e+00 -5.293104e-04 -9.545799e-04 -7.153314e-04
Ga 1.576856e+00 -9.406453e-01 -1.373696e-01 -3.625278e-04 5.130269e-04 -3.667822e-05
Ga 3.136580e+00 1.779896e+00 4.936353e+00 1.860228e-04 -1.107122e-04 3.144777e-04
Ga 3.128927e+00 1.773734e+00 -5.242362e+00 2.083487e-04 4.285543e-04 4.332207e-04
Al 3.134338e+00 1.768264e+00 -1.330192e-01 -1.797012e-04 -1.344517e-04 -2.602939e-04
Al 6.295633e+00 -3.681428e+00 4.910729e+00 -1.645872e-04 -2.379783e-05 3.127698e-04
Al 6.274668e+00 -3.669808e+00 -5.226896e+00 -8.035071e-04 4.015699e-05 7.708361e-05
Ga 6.271378e+00 -3.673240e+00 -1.282153e-01 5.272782e-05 2.521138e-04 -1.290519e-04
Al 4.715203e+00 -9.617574e-01 4.921267e+00 2.829130e-05 -6.444928e-05 -1.070261e-04
Al 4.702827e+00 -9.528111e-01 -5.219091e+00 -1.346014e-04 -9.715622e-05 3.670156e-04
Al 4.718730e+00 -9.464284e-01 -1.525731e-01 -4.646093e-04 -1.243592e-04 1.102934e-04
Ga -3.161198e+00 1.773924e+00 4.914361e+00 -1.317586e-04 -3.167920e-05 -3.648576e-05
Al -3.190006e+00 1.776105e+00 -5.214233e+00 4.185305e-04 -5.693998e-04 -2.190793e-04
Al -3.174926e+00 1.780414e+00 -1.490558e-01 -5.120787e-04 -4.959165e-05 1.046404e-04
Al -1.510241e-02 -3.679408e+00 4.922434e+00 1.309553e-04 2.528776e-04 3.853884e-04
Al -2.508452e-02 -3.674322e+00 -5.223078e+00 -2.081244e-03 -1.636823e-03 -1.239947e-03
Ga -6.825887e-03 -3.695084e+00 -1.307898e-01 1.921815e-04 2.144264e-04 4.231839e-06
Al -1.594147e+00 -9.466116e-01 4.923021e+00 -5.593444e-04 2.793545e-04 -1.565288e-05
Al -1.619795e+00 -9.467653e-01 -5.220153e+00 -9.126208e-05 5.143224e-04 -2.394364e-05
Al -1.622424e+00 -9.296434e-01 -1.479359e-01 -2.124207e-04 -1.769231e-04 4.178647e-04
N 1.520627e+00 8.512297e-01 4.312845e+00 4.872094e-05 1.611416e-04 -6.518950e-05
N 1.535179e+00 8.188653e-01 -5.877259e+00 3.353270e-04 1.107457e-03 -7.458360e-04
N 1.554936e+00 9.203775e-01 -7.634391e-01 -5.792458e-04 -3.264136e-04 -9.292435e-04
N -2.100140e-02 3.595947e+00 4.321685e+00 3.015388e-05 -1.083833e-04 1.095572e-04
N -3.414788e-02 3.650395e+00 -5.864069e+00 -3.798431e-04 3.858437e-05 -3.958011e-04
N -6.692995e-02 3.583130e+00 -7.710385e-01 1.529409e-04 -1.249141e-04 1.339309e-04
N 3.147833e+00 -1.865225e+00 4.314432e+00 1.642673e-05 -4.501174e-05 9.679566e-05
N 3.129086e+00 -1.858072e+00 -5.841289e+00 7.455821e-06 -1.238496e-04 -3.686859e-04
N 3.179563e+00 -1.887931e+00 -7.784887e-01 2.404413e-04 -1.350135e-04 -2.679176e-04
N -4.752179e+00 8.221896e-01 4.269410e+00 -5.406972e-05 -6.345476e-06 1.054090e-03
N -4.721696e+00 8.429680e-01 -5.848283e+00 1.313564e-04 -8.309621e-07 -2.460801e-04
N -4.757813e+00 8.722003e-01 -7.444703e-01 4.637850e-04 3.735722e-05 4.200163e-05
N -6.329449e+00 3.642264e+00 4.306882e+00 2.626897e-05 2.461395e-04 9.769803e-06
N -6.359548e+00 3.654564e+00 -5.849594e+00 3.641012e-03 6.441377e-04 6.212611e-04
N -6.343426e+00 3.560316e+00 -7.243202e-01 -5.277364e-05 1.869024e-05 -2.969739e-04
N -3.173289e+00 -1.856908e+00 4.328471e+00 1.805682e-04 -6.161054e-05 -3.432726e-04
N -3.190846e+00 -1.858606e+00 -5.789532e+00 -9.044642e-05 2.620820e-04 -1.755687e-04
N -3.181121e+00 -1.814027e+00 -7.819666e-01 2.287392e-04 -8.051511e-05 -4.360690e-04
N -1.548351e+00 8.489590e-01 4.284480e+00 6.872378e-05 -8.943433e-05 1.601171e-04
N -1.652481e+00 8.488936e-01 -5.850020e+00 -4.742574e-04 8.153322e-04 -1.399387e-03
N -1.607361e+00 8.749680e-01 -7.525642e-01 4.049438e-04 -8.351357e-05 -5.965085e-05
N -3.164698e+00 3.650366e+00 4.312414e+00 2.684320e-05 -1.858765e-04 1.733918e-04
N -3.185119e+00 3.605123e+00 -5.778430e+00 -3.332998e-04 -3.301038e-04 1.133611e-04
N -3.135818e+00 3.580898e+00 -7.811647e-01 1.267442e-04 -3.598497e-04 -7.494893e-05
N -1.549785e-02 -1.854552e+00 4.391814e+00 3.116224e-05 -1.408904e-03 -9.158486e-04
N -3.176757e-02 -1.853173e+00 -5.778155e+00 4.411917e-05 -3.645286e-04 -2.439676e-04
N -6.284928e-02 -1.832575e+00 -7.281940e-01 4.771307e-05 -2.880017e-04 -5.810496e-04
N -1.822356e-02 1.784488e+00 1.773543e+00 1.184680e-05 6.664756e-05 -6.837203e-04
N -1.597880e-02 1.781211e+00 6.858018e+00 8.145712e-05 -1.911549e-04 -1.248781e-04
N -3.057362e-02 1.780310e+00 -3.242055e+00 5.521750e-05 2.726914e-04 3.782096e-05
N 3.141549e+00 -3.683314e+00 1.780708e+00 1.121642e-04 1.981657e-04 -2.755264e-04
N 3.190509e+00 -3.658160e+00 6.842388e+00 -7.878431e-05 3.349823e-04 -1.170337e-04
N 3.136087e+00 -3.679048e+00 -3.306466e+00 -9.481438e-05 1.998780e-04 -8.568032e-05
N 1.607805e+00 -9.276164e-01 1.833398e+00 -6.632509e-04 1.354837e-04 -1.391151e-04
N 1.615879e+00 -9.338325e-01 6.838490e+00 -8.661332e-05 4.878618e-04 -3.642642e-05
N 1.599663e+00 -9.242121e-01 -3.311730e+00 6.262878e-04 9.386351e-05 1.237641e-03
N 3.132208e+00 1.778325e+00 1.788201e+00 -3.002775e-05 1.057056e-04 1.581153e-04
N 3.150711e+00 1.781671e+00 6.921508e+00 -9.475758e-04 -1.921526e-03 -1.041768e-04
N 3.133172e+00 1.728665e+00 -3.268361e+00 -1.097630e-03 1.570708e-05 -7.204720e-04
N 6.287900e+00 -3.681153e+00 1.853079e+00 9.101605e-05 1.124341e-03 -3.155526e-04
N 6.305699e+00 -3.730661e+00 6.830214e+00 -7.684333e-05 6.329261e-05 -4.635274e-04
N 6.240234e+00 -3.659428e+00 -3.308391e+00 -1.794655e-04 1.378122e-04 -2.135948e-04
N 4.715912e+00 -9.570967e-01 1.770498e+00 2.036964e-04 -1.613096e-04 -9.363746e-05
N 4.683616e+00 -9.283844e-01 6.837018e+00 -1.195059e-04 2.309153e-04 -4.683004e-04
N 4.704364e+00 -9.433108e-01 -3.298371e+00 -3.186069e-04 4.089171e-05 1.645574e-05
N -3.174669e+00 1.785644e+00 1.779226e+00 -6.733380e-05 2.607827e-04 -4.042244e-04
N -3.171406e+00 1.732073e+00 6.887119e+00 1.009135e-03 4.747993e-04 -2.192125e-04
N -3.186809e+00 1.776993e+00 -3.289885e+00 1.307917e-05 1.270140e-04 3.008693e-04
N -1.067808e-02 -3.729421e+00 1.836680e+00 -1.180631e-03 -1.267330e-04 -1.326429e-04
N -4.627902e-02 -3.711288e+00 6.834347e+00 -3.746830e-04 9.454946e-05 -5.848018e-05
N 1.362478e-02 -3.707270e+00 -3.320938e+00 4.309310e-05 7.749691e-05 3.758955e-04
N -1.643039e+00 -9.248335e-01 1.768998e+00 -1.004730e-03 -1.874829e-03 2.014087e-04
N -1.592010e+00 -9.032237e-01 6.826327e+00 -8.443854e-05 1.526961e-03 1.416876e-03
N -1.649704e+00 -9.165913e-01 -3.309698e+00 -4.190984e-04 1.289090e-04 -1.567344e-04
