108
Energy=-848643.537350 Lattice="9.446755 0.000000 0.000000 -4.725749 8.178569 0.000000 -0.023679 0.003927 15.178588" Stress="0.000001 -0.000001 -0.000006 -0.000001 -0.000000 0.000001 -0.000006 0.000001 -0.000004" Properties=species:S:1:pos:R:3:forces:R:3
Al 1.557699 0.874993 2.377461 0.000059 -0.000922 -0.000540
Al 1.552176 0.863760 7.441902 -0.000712 0.000453 0.000092
Al 1.574924 0.867196 -2.678379 -0.000266 -0.000130 -0.000032
Al -0.033712 3.594606 2.396206 0.001016 0.000953 -0.001004
Al -0.034261 3.609957 7.438712 -0.000190 0.000734 0.000488
Al -0.019965 3.599475 -2.685554 -0.000155 -0.000078 -0.000173
Al 3.131983 -1.848623 2.388638 0.000770 0.000291 -0.000180
Al 3.116589 -1.854354 7.442560 0.000098 -0.000100 0.000610
Al 3.129940 -1.857486 -2.696952 0.000004 -0.000051 0.000207
Al -4.765833 0.860529 2.404478 0.001431 0.000597 -0.000693
Al -4.761132 0.871374 7.435630 0.000345 0.000053 0.000205
Al -4.761640 0.872881 -2.701083 0.000695 -0.000164 0.000190
Al -6.339966 3.579547 2.414197 -0.000205 0.000577 0.000088
Al -6.336475 3.595964 7.440819 -0.000061 0.000101 0.000115
Al -6.313085 3.582069 -2.714523 0.000253 0.000041 -0.000611
Al -3.187423 -1.848426 2.402280 0.000386 -0.000721 -0.000741
Al -3.185868 -1.857428 7.438350 0.000007 -0.000114 0.000161
Ga -3.167862 -1.859891 -2.693551 -0.000091 0.000246 -0.000012
Al -1.597598 0.862444 2.387957 -0.000437 -0.000008 0.001232
Al -1.622981 0.866847 7.447591 0.000020 0.000342 -0.001662
Ga -1.590313 0.871786 -2.684675 0.000484 -0.000398 0.000229
Ga -3.164948 3.596680 2.418169 0.000034 -0.000363 -0.000387
Al -3.183792 3.598805 7.440710 0.000047 -0.000460 -0.000360
Al -3.165511 3.607072 -2.712820 -0.000068 -0.000151 -0.000387
Ga -0.027551 -1.843465 2.409052 0.000106 -0.000155 0.000155
Al -0.030250 -1.851614 7.436977 0.000013 -0.000383 -0.000351
Al -0.002527 -1.856481 -2.700482 -0.000087 -0.000053 -0.000053
Ga -0.032393 1.776949 4.925172 -0.000502 -0.000837 0.000576
Ga -0.007213 1.779035 -5.226343 0.000044 0.000219 0.000199
Al -0.009857 1.774580 -0.139808 0.000022 0.000315 -0.000823
Al 3.118838 -3.660798 4.936198 -0.000342 0.000559 0.000445
Al 3.134787 -3.666158 -5.222045 0.000110 0.000082 0.000052
Al 3.138084 -3.662258 -0.162674 -0.000054 0.000194 -0.000061
Al 1.557520 -0.952375 4.928031 -0.000390 0.000354 0.000298
Al 1.569715 -0.957610 -5.216934 -0.000323 0.000229 0.000697
Al 1.566453 -0.941584 -0.166010 -0.000156 0.000171 -0.000291
Al 3.123162 1.777413 4.921877 -0.000052 0.000187 0.000241
Al 3.143148 1.774869 -5.221938 -0.000035 -0.000074 0.000157
Al 3.122559 1.766328 -0.153136 -0.000179 -0.000676 0.000860
Al 6.268740 -3.666777 4.914910 0.000428 -0.000053 0.000098
Al 6.287975 -3.671816 -5.224853 -0.000027 -0.000076 0.000045
Ga 6.274453 -3.683087 -0.134377 -0.000273 0.000091 -0.000137
Al 4.689927 -0.948043 4.919162 0.000133 -0.000032 0.000304
Al 4.707013 -0.945735 -5.232897 -0.000131 -0.000280 0.000172
Al 4.689832 -0.944677 -0.140635 -0.000301 -0.000292 0.000058
Al -3.192087 1.772487 4.930314 0.000609 -0.000144 -0.000792
Al -3.180222 1.780684 -5.225102 0.000705 -0.000517 -0.000822
Ga -3.177236 1.772614 -0.148287 -0.000082 0.000205 0.000437
Al -0.037924 -3.675057 4.948778 0.000132 -0.000245 -0.000348
Al -0.013380 -3.671289 -5.225120 0.000093 0.000065 -0.000314
Ga -0.021500 -3.666508 -0.168880 0.000401 -0.000065 -0.000044
Al -1.617916 -0.953361 4.936416 0.000320 0.001422 -0.000692
Al -1.588124 -0.960068 -5.241153 0.000040 0.000275 -0.000571
Al -1.587260 -0.943036 -0.132270 -0.000036 -0.000340 -0.000324
N 1.584732 0.845162 4.294975 0.000211 0.000050 -0.000186
N 1.608043 0.839251 -5.832676 0.000320 -0.000019 -0.000272
N 1.556957 0.871556 -0.752510 0.000171 -0.000122 -0.000062
N -0.040736 3.642090 4.307836 0.000475 0.000195 -0.000411
N -0.014945 3.647666 -5.837288 -0.000029 0.000001 0.000069
N -0.058449 3.572305 -0.770232 -0.000517 -0.000262 0.000343
N 3.119302 -1.856349 4.312954 -0.000014 -0.000315 -0.000365
N 3.136165 -1.857852 -5.820286 -0.000020 -0.000065 -0.000342
N 3.135008 -1.855665 -0.769895 -0.000092 0.000042 -0.000154
N -4.760918 0.868131 4.323230 0.000210 -0.000118 0.000028
N -4.740308 0.868995 -5.828189 0.000333 0.000157 -0.000275
N -4.789546 0.842441 -0.781893 0.000242 0.000367 0.000122
N -6.329265 3.593397 4.331218 -0.000204 -0.000207 0.000129
N -6.312385 3.592998 -5.818126 -0.000088 0.000052 0.000109
N -6.321804 3.543297 -0.805484 -0.000219 0.000590 -0.000153
N -3.181580 -1.854056 4.322154 -0.000259 0.000591 0.000134
N -3.164930 -1.861173 -5.822099 -0.000055 0.000390 -0.000248
N -3.167354 -1.811025 -0.716064 -0.000391 0.000519 -0.000502
N -1.647911 0.845442 4.301438 0.000226 -0.000974 0.001453
N -1.632392 0.847300 -5.834842 -0.001265 0.000083 0.003192
N -1.554907 0.847794 -0.716239 0.000057 -0.000052 0.000181
N -3.180163 3.601694 4.392199 -0.000299 -0.000332 0.000159
N -3.162852 3.598497 -5.817473 0.000025 -0.000329 0.000148
N -3.127537 3.621755 -0.802638 0.000050 -0.000666 0.000414
N -0.029830 -1.852839 4.386655 -0.000168 -0.000202 0.000168
N -0.005735 -1.855705 -5.825894 0.000122 -0.000447 0.000069
N -0.019651 -1.802008 -0.780397 0.000007 -0.000379 0.000010
N -0.024560 1.777283 1.791784 0.000402 0.000857 0.000210
N -0.038826 1.782196 6.905792 0.001797 -0.001755 -0.001223
N 0.029640 1.800171 -3.257409 0.000259 -0.000150 -0.000412
N 3.163298 -3.642483 1.758650 -0.000186 -0.001724 0.000288
N 3.116874 -3.669067 6.847031 -0.000008 0.000695 -0.000070
N 3.139014 -3.673196 -3.301676 0.000099 0.000609 -0.000180
N 1.590784 -0.929155 1.755648 -0.000037 0.000931 0.000625
N 1.548044 -0.947646 6.840801 -0.000273 0.000436 -0.000281
N 1.564048 -0.946996 -3.291354 -0.000057 0.000281 -0.000088
N 3.125059 1.781753 1.778945 0.000264 -0.000105 -0.000393
N 3.114415 1.781242 6.836645 -0.000221 -0.000090 -0.000170
N 3.130419 1.774374 -3.307025 -0.000482 -0.000166 -0.000057
N 6.269194 -3.676649 1.845717 0.001165 -0.000061 0.001601
N 6.266792 -3.671946 6.834103 -0.000017 -0.000036 -0.000342
N 6.280472 -3.722028 -3.312225 0.000036 0.000279 0.000199
N 4.694411 -0.944299 1.786983 -0.000266 0.000336 0.000500
N 4.689478 -0.946938 6.840555 -0.000356 -0.000110 -0.000351
N 4.667818 -0.924626 -3.319511 -0.000398 -0.000293 -0.000426
N -3.176685 1.733383 1.827506 -0.002650 0.000226 -0.000197
N -3.186598 1.778518 6.843784 -0.000409 0.000046 0.000147
N -3.209784 1.799171 -3.309337 -0.000365 0.000039 0.000043
N -0.067945 -3.699847 1.803418 -0.000194 0.000418 0.000332
N -0.037201 -3.673895 6.858053 0.000016 0.000137 0.000622
N -0.016130 -3.670380 -3.300350 -0.000133 0.000101 -0.000067
N -1.639161 -0.931293 1.778034 -0.000170 -0.000345 -0.000184
N -1.611987 -0.947033 6.849490 0.000028 0.000057 -0.000072
N -1.547863 -0.972269 -3.340714 -0.000322 -0.000034 0.000180
