108
Energy=-7.113171e+05 Lattice="9.433513e+00 0.000000e+00 0.000000e+00 -4.722915e+00 8.165727e+00 0.000000e+00 1.444590e-03 1.303929e-02 1.515081e+01" Stress="1.711596e-03 -3.976747e-04 7.342415e-05 -3.947212e-04 9.145127e-04 6.550912e-04 7.350818e-05 6.537095e-04 1.796311e-03" Properties=species:S:1:pos:R:3:forces:R:3 Config_type=AlGaN_super3_6_2_11.xyz
Al 1.554339e+00 8.718787e-01 2.380265e+00 6.961737e-05 4.980430e-04 3.981116e-04
Al 1.549096e+00 8.741885e-01 7.426292e+00 3.802184e-04 4.261604e-05 6.474612e-04
Al 1.554729e+00 8.663488e-01 -2.684659e+00 1.994738e-04 -8.848762e-05 1.063018e-04
Al -2.619641e-02 3.586303e+00 2.396547e+00 -1.063461e-03 -6.421758e-05 7.175434e-05
Al -2.290636e-02 3.596880e+00 7.419395e+00 6.059785e-05 -1.759732e-04 3.312577e-04
Al -1.625153e-02 3.588117e+00 -2.690539e+00 1.883021e-05 -1.146422e-04 2.235916e-04
Al 3.131110e+00 -1.858691e+00 2.369290e+00 -1.045479e-03 1.060031e-03 4.537857e-05
Al 3.122974e+00 -1.849363e+00 7.439833e+00 -8.230807e-05 -5.867446e-05 5.387439e-04
Al 3.132816e+00 -1.853338e+00 -2.686861e+00 -1.487780e-04 -3.057776e-05 3.327782e-04
Al -4.743533e+00 8.723639e-01 2.374264e+00 4.885560e-04 1.968227e-04 -2.805813e-04
Al -4.745219e+00 8.820326e-01 7.434355e+00 4.555351e-04 2.938498e-04 -2.365749e-05
Al -4.758721e+00 8.581468e-01 -2.680204e+00 6.781848e-04 2.153071e-04 -8.773361e-05
Al -6.326909e+00 3.568699e+00 2.410236e+00 2.863680e-03 2.643810e-03 -1.013255e-04
Al -6.316834e+00 3.596471e+00 7.426778e+00 1.264764e-04 1.058740e-04 9.219358e-05
Al -6.324658e+00 3.583072e+00 -2.702134e+00 -1.184291e-05 -1.206391e-04 -4.381967e-03
Al -3.170958e+00 -1.850771e+00 2.384360e+00 1.354275e-03 5.151050e-04 2.838355e-04
Al -3.159655e+00 -1.849365e+00 7.439675e+00 1.445994e-04 -7.288511e-05 2.205378e-04
Al -3.169421e+00 -1.858943e+00 -2.695086e+00 1.862138e-04 -2.609140e-05 -2.388155e-04
Al -1.598452e+00 8.728821e-01 2.381913e+00 -5.047786e-04 2.986734e-04 -6.475160e-05
Al -1.599331e+00 8.803504e-01 7.425402e+00 5.767464e-04 -3.133132e-04 3.030002e-04
Ga -1.598267e+00 8.639363e-01 -2.677633e+00 1.010826e-03 -5.681740e-04 1.076923e-03
Al -3.153452e+00 3.577578e+00 2.398115e+00 -2.386062e-03 1.755799e-03 -6.673745e-04
Al -3.169270e+00 3.601420e+00 7.426049e+00 -1.507899e-04 -4.280476e-04 6.441346e-05
Ga -3.172369e+00 3.594386e+00 -2.687422e+00 3.157230e-04 -5.401456e-04 -4.495376e-04
Ga -1.987808e-02 -1.839537e+00 2.403188e+00 -1.404182e-04 -7.522757e-04 -1.053758e-05
Al -1.756720e-02 -1.840634e+00 7.422095e+00 1.906133e-04 -6.354354e-04 -1.689659e-04
Al -2.168712e-02 -1.848422e+00 -2.692120e+00 1.829859e-04 -5.601563e-04 2.987693e-04
Al -2.390740e-02 1.777047e+00 4.904804e+00 -1.709597e-04 -6.089519e-05 2.490761e-04
Al -2.054586e-02 1.771380e+00 -5.219566e+00 -3.349894e-04 3.356911e-04 2.905070e-04
Al -1.948660e-02 1.770909e+00 -1.345604e-01 -1.222648e-03 -9.667309e-04 -1.580052e-03
Al 3.122784e+00 -3.670283e+00 4.909549e+00 -1.212265e-04 6.092456e-04 6.723643e-04
Al 3.131377e+00 -3.672616e+00 -5.217680e+00 -2.114538e-04 1.962351e-04 1.242478e-04
Al 3.133715e+00 -3.671694e+00 -1.416873e-01 2.636304e-04 8.439186e-04 -2.085466e-04
Al 1.555861e+00 -9.375888e-01 4.919994e+00 -3.031072e-04 2.825773e-04 5.058941e-04
Al 1.554162e+00 -9.516226e-01 -5.206115e+00 -7.107716e-04 2.038138e-04 4.054641e-04
Al 1.561734e+00 -9.400314e-01 -1.652296e-01 -5.052615e-04 2.335239e-04 -4.881659e-04
Al 3.113843e+00 1.785820e+00 4.911843e+00 3.473343e-05 -3.925273e-04 4.167751e-04
Al 3.117050e+00 1.769611e+00 -5.208671e+00 -5.199887e-05 -7.268349e-06 3.032325e-04
Al 3.117197e+00 1.763393e+00 -1.519934e-01 1.369375e-05 -8.776106e-04 -1.339885e-03
Al 6.273270e+00 -3.669202e+00 4.909674e+00 1.361980e-04 2.462540e-04 1.567697e-04
Al 6.266700e+00 -3.673795e+00 -5.206822e+00 7.125881e-05 -5.264926e-05 3.539641e-04
Ga 6.263757e+00 -3.673679e+00 -1.484462e-01 -2.335758e-04 7.191425e-04 -1.198255e-03
Ga 4.697881e+00 -9.408459e-01 4.911106e+00 -5.251623e-04 7.120128e-05 4.895859e-04
Al 4.696136e+00 -9.478533e-01 -5.207905e+00 -2.951967e-04 -2.468783e-04 9.221478e-05
Al 4.695059e+00 -9.404696e-01 -1.482837e-01 -2.916877e-04 -6.464753e-04 -2.226462e-03
Al -3.166552e+00 1.789192e+00 4.907478e+00 -9.853228e-05 -2.829137e-04 7.275894e-05
Al -3.176913e+00 1.771668e+00 -5.227425e+00 -1.397786e-04 -8.594920e-05 6.499582e-04
Al -3.174167e+00 1.769410e+00 -1.273878e-01 1.209905e-03 -2.921199e-03 -1.065811e-04
Al -1.889549e-02 -3.668194e+00 4.921539e+00 -1.887192e-06 1.413578e-04 -1.051251e-03
Al -2.547880e-02 -3.665962e+00 -5.219738e+00 1.454529e-04 7.158198e-05 8.506936e-05
Ga -2.046591e-02 -3.672689e+00 -1.471676e-01 2.803471e-04 9.145413e-04 2.127338e-03
Al -1.590189e+00 -9.327886e-01 4.923601e+00 -5.279623e-04 7.510202e-06 2.974632e-04
Al -1.591477e+00 -9.512119e-01 -5.218154e+00 -3.102891e-04 -8.450961e-05 3.160176e-04
Al -1.596715e+00 -9.377210e-01 -1.497646e-01 3.104727e-05 3.703740e-05 -1.564289e-04
N 1.549211e+00 8.712980e-01 4.305253e+00 3.442861e-04 5.798199e-05 -3.322688e-04
N 1.547886e+00 8.609443e-01 -5.808170e+00 4.701914e-04 2.464111e-05 -3.461950e-04
N 1.546781e+00 8.695872e-01 -7.589268e-01 1.428638e-04 4.152552e-04 -1.886021e-04
N -2.625051e-02 3.593633e+00 4.315655e+00 2.088607e-06 -1.827809e-04 -1.370594e-04
N -2.280601e-02 3.585228e+00 -5.815726e+00 -9.182996e-05 -1.467244e-04 -4.090156e-04
N -6.367442e-02 3.561444e+00 -7.732030e-01 -6.135302e-04 -5.689170e-04 1.358771e-04
N 3.085407e+00 -1.872342e+00 4.285809e+00 -2.915168e-04 -5.595758e-04 -7.840946e-04
N 3.123061e+00 -1.858051e+00 -5.799015e+00 9.895561e-05 9.538284e-05 1.931525e-05
N 3.129617e+00 -1.859591e+00 -7.568527e-01 -2.706025e-05 -3.185133e-04 -8.419089e-05
N -4.744838e+00 9.217048e-01 4.287200e+00 4.569463e-04 4.406922e-04 -6.367665e-05
N -4.749007e+00 8.652213e-01 -5.808094e+00 3.931246e-04 1.856238e-04 -1.856887e-04
N -4.742697e+00 8.675978e-01 -7.517877e-01 2.911060e-04 5.098405e-04 6.568829e-04
N -6.314917e+00 3.591485e+00 4.323024e+00 -2.294300e-04 -2.287849e-04 2.069110e-04
N -6.318539e+00 3.584554e+00 -5.806268e+00 -1.683957e-04 -8.994970e-05 -6.587479e-05
N -6.315930e+00 3.540378e+00 -8.127944e-01 -5.044605e-05 -6.733116e-04 5.922558e-03
N -3.121760e+00 -1.868471e+00 4.295375e+00 3.460454e-04 -3.593385e-04 -3.891679e-04
N -3.164878e+00 -1.860829e+00 -5.798783e+00 -1.457113e-04 2.326606e-04 1.122506e-04
N -3.165069e+00 -1.811551e+00 -7.768957e-01 -2.516512e-04 6.891522e-04 2.002853e-04
N -1.599593e+00 8.750044e-01 4.307071e+00 6.324897e-04 -3.166943e-04 -1.090939e-04
N -1.599381e+00 8.673594e-01 -5.808655e+00 6.510204e-04 -1.001925e-04 -3.512573e-04
N -1.598205e+00 8.709328e-01 -6.972755e-01 2.335316e-04 1.237408e-03 -1.761632e-05
N -3.167157e+00 3.597536e+00 4.316062e+00 1.182253e-04 -6.257628e-04 4.629928e-05
N -3.171582e+00 3.592027e+00 -5.807350e+00 2.413393e-04 -4.747335e-04 -2.001410e-04
N -3.127102e+00 3.560707e+00 -7.180348e-01 -1.588167e-04 1.286206e-03 -3.996027e-05
N -1.915400e-02 -1.840752e+00 4.377181e+00 4.638380e-05 -8.589565e-04 4.751666e-04
N -1.842515e-02 -1.852132e+00 -5.812607e+00 3.717248e-04 -2.167153e-04 -4.035677e-04
N -2.152115e-02 -1.808428e+00 -7.712432e-01 1.022423e-04 1.772844e-04 -3.398095e-04
N -1.992095e-02 1.775560e+00 1.788627e+00 3.779928e-04 4.713024e-04 7.249869e-04
N -2.303547e-02 1.778932e+00 6.825239e+00 -9.450887e-05 5.232731e-04 -3.949393e-04
N 1.570528e-02 1.791076e+00 -3.305389e+00 2.113478e-04 6.675025e-04 -5.577498e-04
N 3.131892e+00 -3.672760e+00 1.780912e+00 7.321548e-05 -9.044152e-05 6.196836e-04
N 3.126650e+00 -3.660929e+00 6.829382e+00 1.282521e-04 5.201995e-04 -4.080911e-04
N 3.168531e+00 -3.651214e+00 -3.306754e+00 1.737910e-04 1.029734e-03 -3.557265e-04
N 1.591166e+00 -9.189500e-01 1.751896e+00 1.176916e-03 -1.339405e-03 3.735252e-04
N 1.561690e+00 -9.385737e-01 6.834866e+00 -3.383794e-04 2.458204e-04 -4.607126e-04
N 1.556006e+00 -9.507122e-01 -3.280897e+00 -5.003329e-05 3.406450e-04 -2.539284e-04
N 3.117059e+00 1.774484e+00 1.771454e+00 1.803043e-04 9.553321e-04 7.991072e-05
N 3.118464e+00 1.782478e+00 6.828303e+00 -8.810349e-05 -1.497602e-04 -2.392600e-04
N 3.118007e+00 1.768682e+00 -3.290931e+00 -2.500419e-05 -3.471868e-04 -2.236106e-04
N 6.268290e+00 -3.671749e+00 1.832570e+00 8.245144e-04 -5.328188e-04 7.999673e-04
N 6.270377e+00 -3.659035e+00 6.827615e+00 -1.368557e-05 -1.011246e-05 -3.042536e-04
N 6.265776e+00 -3.671244e+00 -3.286966e+00 8.697361e-06 2.950034e-04 -2.412429e-04
N 4.698558e+00 -9.467743e-01 1.774228e+00 -5.564616e-04 1.371858e-04 1.535436e-03
N 4.698550e+00 -9.384017e-01 6.885603e+00 -3.766831e-04 -4.406314e-04 -2.048942e-04
N 4.696242e+00 -9.468342e-01 -3.286138e+00 -5.473784e-04 -1.931188e-04 6.202134e-06
N -3.167899e+00 1.773694e+00 1.790283e+00 -9.298294e-04 4.322457e-04 2.052637e-04
N -3.171597e+00 1.784843e+00 6.828338e+00 -1.581453e-04 -3.307068e-05 -1.363118e-04
N -3.215382e+00 1.746915e+00 -3.322276e+00 -4.036152e-04 2.407466e-04 -3.554296e-04
N -2.343414e-02 -3.709650e+00 1.835002e+00 -2.197129e-04 -2.985973e-03 -1.171516e-03
N -2.044797e-02 -3.662467e+00 6.836449e+00 -1.805533e-05 3.996532e-05 1.774032e-04
N -6.080951e-02 -3.644533e+00 -3.305642e+00 -2.236503e-04 3.611463e-04 -1.166953e-04
N -1.632683e+00 -9.238714e-01 1.763274e+00 -5.190921e-04 -5.644444e-04 3.476830e-04
N -1.595447e+00 -9.342901e-01 6.837803e+00 -6.372645e-04 -1.466448e-04 7.622246e-05
N -1.592341e+00 -9.915357e-01 -3.307310e+00 -7.686191e-04 -4.218907e-04 -6.630662e-04
