108
Energy=-8.944190e+05 Lattice="9.450490e+00 0.000000e+00 0.000000e+00 -4.726982e+00 8.181007e+00 0.000000e+00 3.489149e-03 -6.238601e-03 1.520370e+01" Stress="2.909329e-04 -8.904547e-05 2.048692e-04 -8.320116e-05 -3.786813e-04 -2.143729e-04 1.918862e-04 -2.121747e-04 8.422237e-04" Properties=species:S:1:pos:R:3:forces:R:3 Config_type=AlGaN_super3_10_2_28.xyz
Al 1.560455e+00 8.778846e-01 2.384202e+00 -3.241497e-05 1.211941e-04 -1.348040e-05
Al 1.564618e+00 8.755857e-01 7.423311e+00 3.468170e-05 1.018112e-04 7.181415e-05
Al 1.566248e+00 8.780294e-01 -2.655387e+00 2.999980e-05 1.295808e-05 -3.175310e-05
Al -2.877962e-02 3.592987e+00 2.400752e+00 7.799209e-05 -1.971596e-05 -1.303198e-04
Al -1.481171e-02 3.600015e+00 7.425843e+00 -3.037527e-05 5.213890e-05 -3.822266e-05
Al -2.623264e-02 3.600609e+00 -2.673766e+00 -2.844953e-05 -3.677276e-05 4.907040e-05
Al 3.131906e+00 -1.860836e+00 2.369608e+00 1.340049e-04 -3.200258e-05 2.491076e-05
Al 3.140087e+00 -1.860406e+00 7.451971e+00 7.291315e-05 -1.375655e-04 -6.683443e-05
Al 3.130222e+00 -1.860394e+00 -2.664553e+00 -4.972513e-05 4.939426e-05 -9.963606e-05
Al -4.751447e+00 8.760274e-01 2.376192e+00 2.198950e-05 3.349305e-06 -7.084983e-05
Al -4.751129e+00 8.692722e-01 7.451653e+00 -5.881715e-05 2.602957e-07 6.015628e-05
Al -4.764302e+00 8.756727e-01 -2.677809e+00 -6.441230e-05 5.068215e-06 7.191362e-07
Al -6.321610e+00 3.582343e+00 2.395354e+00 -1.507970e-04 -8.304779e-05 4.466950e-06
Al -6.334714e+00 3.584592e+00 7.447399e+00 5.257375e-05 2.386222e-05 -4.350929e-05
Al -6.319389e+00 3.585501e+00 -2.689900e+00 4.704696e-05 1.145844e-05 3.763159e-05
Al -3.178439e+00 -1.854666e+00 2.389876e+00 7.615937e-05 2.865116e-05 -1.468757e-04
Al -3.179076e+00 -1.867682e+00 7.447816e+00 -7.419673e-05 -6.669737e-05 1.754698e-05
Ga -3.188781e+00 -1.862848e+00 -2.674348e+00 -6.249160e-05 -7.273288e-06 -4.814228e-05
Al -1.601336e+00 8.796082e-01 2.380766e+00 -3.183056e-05 1.233007e-05 -1.980831e-06
Al -1.603352e+00 8.732787e-01 7.424898e+00 -4.510521e-05 -1.313504e-06 -7.140256e-05
Ga -1.600118e+00 8.864326e-01 -2.644459e+00 2.194484e-04 -1.976682e-04 -1.660922e-04
Al -3.168699e+00 3.590016e+00 2.383327e+00 1.483197e-04 -1.847876e-04 1.090881e-05
Ga -3.166611e+00 3.586086e+00 7.454386e+00 1.957120e-04 5.146424e-06 -4.021626e-05
Al -3.176635e+00 3.604307e+00 -2.681651e+00 1.058357e-05 -1.749245e-04 -6.008609e-05
Ga -1.894676e-02 -1.858264e+00 2.392293e+00 2.023705e-04 5.377327e-05 -9.265343e-05
Ga -2.043796e-02 -1.857586e+00 7.425752e+00 1.220923e-04 1.092591e-05 -5.423917e-05
Al -1.083377e-02 -1.870864e+00 -2.648956e+00 -3.620086e-05 5.961392e-05 -9.923519e-05
Al -2.214124e-02 1.775866e+00 4.906618e+00 -4.367508e-05 4.811076e-05 -1.140901e-04
Ga -2.031253e-02 1.797810e+00 -5.228777e+00 -1.171900e-04 4.102348e-05 -1.696499e-05
Al -1.899421e-02 1.778472e+00 -1.252120e-01 -3.566657e-05 -1.386200e-05 2.680493e-04
Al 3.125878e+00 -3.680423e+00 4.900610e+00 -8.454174e-05 8.014961e-05 5.136139e-05
Al 3.134261e+00 -3.670527e+00 -5.206958e+00 1.048969e-04 -8.992298e-05 -2.771398e-05
Al 3.120785e+00 -3.678854e+00 -1.446377e-01 -7.187175e-05 3.498328e-05 -1.585764e-05
Al 1.560471e+00 -9.442155e-01 4.910285e+00 -1.049180e-04 -1.593016e-05 -1.704719e-05
Ga 1.570651e+00 -9.494504e-01 -5.194236e+00 -2.956088e-04 1.545022e-04 -3.749428e-05
Al 1.558966e+00 -9.448029e-01 -1.551248e-01 -1.247859e-04 1.000896e-04 -1.728098e-04
Al 3.126821e+00 1.785546e+00 4.913041e+00 8.853345e-05 -1.545987e-05 -7.384858e-05
Al 3.137658e+00 1.786986e+00 -5.219947e+00 -2.697916e-05 -7.864934e-05 2.956846e-05
Al 3.132413e+00 1.773640e+00 -1.439683e-01 -1.949028e-05 -5.630583e-06 1.217174e-04
Al 6.287025e+00 -3.684729e+00 4.908029e+00 -1.339572e-05 -4.776550e-05 -4.507323e-05
Al 6.275200e+00 -3.680597e+00 -5.228660e+00 2.323238e-05 5.791555e-05 -6.805166e-05
Ga 6.280064e+00 -3.685983e+00 -1.279333e-01 -5.156139e-05 -5.855050e-05 5.617480e-04
Ga 4.700875e+00 -9.476725e-01 4.916840e+00 -9.398436e-05 1.578066e-04 5.760737e-05
Al 4.695696e+00 -9.422141e-01 -5.234055e+00 -3.294192e-05 2.732081e-05 -1.039700e-04
Al 4.693244e+00 -9.370930e-01 -1.280398e-01 -6.587968e-05 6.338046e-05 2.140265e-04
Al -3.170524e+00 1.781901e+00 4.897628e+00 3.574928e-05 3.141852e-05 3.864983e-05
Al -3.192103e+00 1.784424e+00 -5.211799e+00 -6.762025e-05 -1.330525e-04 -2.010349e-05
Al -3.181454e+00 1.784896e+00 -1.326561e-01 -1.449867e-04 4.743431e-05 1.935465e-05
Al -2.319849e-02 -3.690569e+00 4.904695e+00 1.103874e-05 1.887078e-05 1.858437e-06
Al -2.860106e-02 -3.690275e+00 -5.195975e+00 -1.938452e-05 -6.002599e-05 1.533863e-05
Al -1.339912e-02 -3.684198e+00 -1.509924e-01 1.715984e-05 -7.584792e-06 -2.886388e-04
Al -1.599518e+00 -9.415646e-01 4.914360e+00 1.603255e-05 -1.155572e-05 -9.042520e-05
Ga -1.610725e+00 -9.488170e-01 -5.220914e+00 -1.434688e-04 8.234771e-05 -8.107265e-05
Al -1.592218e+00 -9.427309e-01 -1.256739e-01 4.664247e-05 -2.793982e-05 1.872032e-04
N 1.556024e+00 8.713274e-01 4.307470e+00 -8.020888e-06 -5.950183e-05 6.763744e-05
N 1.594983e+00 8.932137e-01 -5.868039e+00 1.534895e-04 -8.105977e-05 -1.967093e-05
N 1.554047e+00 8.775796e-01 -7.388542e-01 2.849256e-05 1.851450e-06 1.046228e-04
N -2.383356e-02 3.594068e+00 4.316626e+00 -9.781858e-06 -3.311225e-05 7.547998e-05
N -2.837790e-02 3.650387e+00 -5.860224e+00 -4.888770e-05 4.398884e-05 9.454173e-05
N -6.426151e-02 3.573602e+00 -7.606821e-01 -6.440828e-05 1.246007e-05 1.232590e-05
N 3.088831e+00 -1.881992e+00 4.278679e+00 6.529436e-05 -1.198335e-04 -3.713238e-05
N 3.162413e+00 -1.883342e+00 -5.839457e+00 3.227399e-05 -3.057072e-05 7.755038e-05
N 3.135744e+00 -1.861047e+00 -7.433606e-01 8.769251e-05 -3.132174e-06 8.726000e-05
N -4.750756e+00 9.171830e-01 4.285612e+00 -1.875069e-04 -2.441439e-05 4.605738e-05
N -4.750941e+00 8.778905e-01 -5.828672e+00 6.785437e-05 -2.709815e-05 -1.804101e-05
N -4.748551e+00 8.690327e-01 -7.500447e-01 3.612819e-05 -1.342962e-05 3.347323e-05
N -6.322229e+00 3.590549e+00 4.306392e+00 3.553212e-05 2.134582e-05 -1.817335e-06
N -6.323599e+00 3.598217e+00 -5.825758e+00 4.086079e-05 5.615679e-05 2.420738e-05
N -6.283812e+00 3.570689e+00 -7.749498e-01 -5.395880e-05 -8.102674e-05 -8.775770e-05
N -3.132898e+00 -1.880351e+00 4.297929e+00 8.587476e-05 -3.781880e-05 3.920367e-05
N -3.215666e+00 -1.882542e+00 -5.839245e+00 -4.013221e-05 -7.987273e-06 2.196218e-05
N -3.177470e+00 -1.811890e+00 -7.044263e-01 -5.524670e-06 1.069872e-04 6.187681e-05
N -1.596200e+00 8.713180e-01 4.302277e+00 9.672969e-05 -6.008364e-05 1.102395e-04
N -1.644639e+00 9.022220e-01 -5.865902e+00 1.747047e-04 -6.682297e-05 1.463664e-04
N -1.599943e+00 8.762147e-01 -6.729621e-01 1.675414e-04 5.733697e-06 6.356455e-05
N -3.171086e+00 3.596071e+00 4.302221e+00 6.337313e-05 -8.652435e-05 -5.547201e-05
N -3.173196e+00 3.601684e+00 -5.764176e+00 5.864435e-06 1.637360e-04 3.505794e-05
N -3.171256e+00 3.595321e+00 -7.574585e-01 7.885400e-05 -6.162799e-05 1.112683e-04
N -1.972464e-02 -1.858028e+00 4.371351e+00 -3.632485e-05 1.411171e-04 -1.500276e-05
N -1.725193e-02 -1.904479e+00 -5.810472e+00 1.790746e-04 -4.579453e-05 6.697510e-05
N -2.351356e-02 -1.860924e+00 -7.291724e-01 9.198000e-05 -1.313083e-05 1.877441e-04
N -1.764762e-02 1.781627e+00 1.794838e+00 -6.875152e-06 7.479257e-06 -2.405605e-04
N -2.096704e-02 1.775909e+00 6.832416e+00 -8.851138e-05 4.257819e-05 3.761959e-05
N 1.966043e-02 1.800597e+00 -3.253670e+00 -2.206755e-05 4.036535e-05 9.992241e-05
N 3.129800e+00 -3.680830e+00 1.777079e+00 -7.995970e-05 1.148430e-04 -1.875999e-05
N 3.166917e+00 -3.653509e+00 6.813487e+00 -1.335184e-05 1.052251e-04 -2.989195e-06
N 3.131511e+00 -3.672551e+00 -3.281051e+00 -3.797031e-05 1.018146e-04 1.966583e-05
N 1.594091e+00 -9.215735e-01 1.758081e+00 -9.576563e-05 -1.031957e-04 -1.162033e-04
N 1.606103e+00 -9.271842e-01 6.821161e+00 -1.796362e-04 3.408036e-05 -1.031773e-04
N 1.554640e+00 -9.449721e-01 -3.209534e+00 -4.234625e-05 -1.361008e-04 1.266304e-04
N 3.126613e+00 1.780156e+00 1.773796e+00 3.540189e-05 -5.885860e-05 -9.813433e-05
N 3.134105e+00 1.778927e+00 6.833029e+00 -2.808730e-05 -3.463479e-05 -1.199163e-05
N 3.124860e+00 1.776335e+00 -3.294196e+00 -9.785058e-05 1.381660e-06 1.608689e-05
N 6.278979e+00 -3.682082e+00 1.847322e+00 -1.752850e-05 2.557866e-05 -4.393658e-04
N 6.284926e+00 -3.679197e+00 6.832509e+00 4.172958e-05 -3.047885e-06 6.359794e-05
N 6.276808e+00 -3.724652e+00 -3.306794e+00 -5.779900e-06 -1.197915e-04 -3.694183e-06
N 4.701413e+00 -9.454186e-01 1.789928e+00 -4.869741e-05 4.174310e-05 -1.824955e-04
N 4.704072e+00 -9.476043e-01 6.894617e+00 -5.971720e-05 -4.118614e-05 8.748783e-06
N 4.655619e+00 -9.209801e-01 -3.312355e+00 1.866229e-05 2.142782e-05 1.265633e-04
N -3.176686e+00 1.781657e+00 1.783671e+00 6.348866e-05 6.733744e-05 -5.636704e-05
N -3.179090e+00 1.731192e+00 6.810954e+00 2.083000e-04 5.564537e-05 -6.925658e-05
N -3.217629e+00 1.799002e+00 -3.294620e+00 8.994710e-05 1.780056e-04 1.322294e-04
N -2.174239e-02 -3.726432e+00 1.764145e+00 -6.893592e-05 1.029716e-04 1.461499e-04
N -6.089584e-02 -3.713170e+00 6.805658e+00 -1.436850e-04 -8.035269e-05 6.665197e-05
N -2.448880e-02 -3.673689e+00 -3.274975e+00 -7.360920e-06 1.067725e-04 2.902420e-05
N -1.634833e+00 -9.256559e-01 1.779939e+00 -9.036439e-05 -1.514357e-04 -2.600677e-04
N -1.643623e+00 -9.265321e-01 6.826322e+00 -4.099166e-05 2.239020e-07 -8.673497e-05
N -1.556139e+00 -9.666518e-01 -3.256202e+00 1.144779e-04 -8.867786e-06 1.893695e-04
