108
Energy=-665537.080298 Lattice="9.476278 0.000000 0.000000 -4.738139 8.206697 0.000000 0.000000 0.000000 15.313968" Stress="0.000069 0.000028 -0.000000 0.000028 0.000096 -0.000000 -0.000000 -0.000000 0.000132" Properties=species:S:1:pos:R:3:forces:R:3
Al 1.564294 0.903146 2.504900 -0.001102 -0.014249 -0.012284
Al 1.564294 0.903146 7.521855 -0.001365 -0.014028 -0.005670
Al 1.564294 0.903146 -2.775158 -0.001317 -0.014058 -0.006154
Al 0.000000 3.612582 2.504900 -0.002719 -0.001173 -0.011049
Al 0.000000 3.612582 7.521855 -0.003019 -0.001231 -0.004237
Al 0.000000 3.612582 -2.775158 -0.002794 -0.001437 -0.004027
Al 3.173845 -1.884678 2.504900 -0.002979 0.001738 -0.012173
Al 3.173845 -1.884678 7.521855 -0.002876 0.001257 -0.005726
Al 3.173845 -1.884678 -2.775158 -0.002933 0.001641 -0.004987
Al -4.783396 0.903146 2.504900 0.001321 -0.013098 -0.011034
Al -4.783396 0.903146 7.521855 0.001403 -0.012917 -0.004481
Al -4.783396 0.903146 -2.775158 0.001437 -0.012862 -0.004975
Al -6.347690 3.612582 2.504900 -0.000260 0.000053 -0.010149
Al -6.347690 3.612582 7.521855 -0.000430 -0.000051 -0.002244
Al -6.347690 3.612582 -2.775158 -0.000359 -0.000121 -0.003323
Al -3.173845 -1.884678 2.504900 -0.000384 0.002914 -0.011144
Al -3.173845 -1.884678 7.521855 -0.000598 0.002850 -0.003852
Al -3.173845 -1.884678 -2.775158 -0.000607 0.002907 -0.004495
Al -1.654808 0.903146 2.504900 0.013641 -0.007889 -0.011925
Al -1.654808 0.903146 7.521855 0.013630 -0.007567 -0.006938
Al -1.654808 0.903146 -2.775158 0.013595 -0.007526 -0.006907
Al -3.219102 3.612582 2.504900 0.011969 0.005336 -0.010644
Al -3.219102 3.612582 7.521855 0.012374 0.005267 -0.005228
Al -3.219102 3.612582 -2.775158 0.012193 0.005109 -0.004554
Al -0.045257 -1.884678 2.504900 0.011754 0.008060 -0.011756
Ga -0.045257 -1.884678 7.521855 0.014730 0.010640 -0.006672
Ga -0.045257 -1.884678 -2.775158 0.014858 0.010655 -0.006674
Al 0.000000 1.806291 5.013378 -0.012020 -0.008277 -0.006464
Al 0.000000 1.806291 -5.283635 -0.011835 -0.008498 -0.006216
Al 0.000000 1.806291 -0.266680 -0.011772 -0.008352 0.032861
Al 3.173845 -3.690969 5.013378 -0.012223 -0.005246 -0.005179
Ga 3.173845 -3.690969 -5.283635 -0.015146 -0.007933 -0.005819
Al 3.173845 -3.690969 -0.266680 -0.012062 -0.005306 0.034168
Al 1.609551 -0.981532 5.013378 -0.013879 0.007547 -0.007599
Al 1.609551 -0.981532 -5.283635 -0.014130 0.007865 -0.006809
Al 1.609551 -0.981532 -0.266680 -0.013736 0.007863 0.032421
Ga 3.128588 1.806291 5.013378 0.000532 -0.003313 -0.003902
Al 3.128588 1.806291 -5.283635 0.000324 -0.003081 -0.004290
Al 3.128588 1.806291 -0.266680 0.000342 -0.003271 0.035032
Ga 6.302433 -3.690969 5.013378 -0.000024 0.000221 -0.002694
Al 6.302433 -3.690969 -5.283635 0.000505 0.000117 -0.003184
Al 6.302433 -3.690969 -0.266680 0.000170 -0.000090 0.036173
Al 4.738139 -0.981532 5.013378 -0.001455 0.012962 -0.005481
Al 4.738139 -0.981532 -5.283635 -0.001058 0.013190 -0.005137
Al 4.738139 -0.981532 -0.266680 -0.001432 0.013100 0.034029
Al -3.219102 1.806291 5.013378 0.003305 -0.001589 -0.005807
Al -3.219102 1.806291 -5.283635 0.003184 -0.001952 -0.005539
Al -3.219102 1.806291 -0.266680 0.003132 -0.001819 0.033740
Al -0.045257 -3.690969 5.013378 0.003338 0.001660 -0.004923
Al -0.045257 -3.690969 -5.283635 0.002709 0.001494 -0.004140
Al -0.045257 -3.690969 -0.266680 0.003025 0.001188 0.035393
Al -1.609551 -0.981532 5.013378 0.001600 0.014353 -0.006651
Al -1.609551 -0.981532 -5.283635 0.001317 0.014314 -0.006114
Al -1.609551 -0.981532 -0.266680 0.001251 0.014440 0.033515
N 1.564294 0.903146 4.418497 -0.019708 -0.024540 -0.001575
N 1.564294 0.903146 -5.878516 -0.000556 -0.013537 0.005816
N 1.564294 0.903146 -0.861561 -0.000568 -0.013595 0.006978
N 0.000000 3.612582 4.418497 -0.020961 -0.011275 -0.003990
N 0.000000 3.612582 -5.878516 0.016847 -0.010989 -0.004286
N 0.000000 3.612582 -0.861561 -0.001958 0.000088 0.004968
N 3.173845 -1.884678 4.418497 -0.002263 0.001624 0.003453
N 3.173845 -1.884678 -5.878516 -0.002646 0.023354 -0.005059
N 3.173845 -1.884678 -0.861561 -0.002489 0.001374 0.004518
N -4.783396 0.903146 4.418497 0.020112 -0.024358 -0.001179
N -4.783396 0.903146 -5.878516 0.000690 -0.013406 0.006370
N -4.783396 0.903146 -0.861561 0.000887 -0.013364 0.007274
N -6.347690 3.612582 4.418497 0.018585 0.011347 -0.011702
N -6.347690 3.612582 -5.878516 -0.000510 0.000174 0.003782
N -6.347690 3.612582 -0.861561 -0.000399 0.000433 0.005201
N -3.173845 -1.884678 4.418497 -0.000916 0.024020 -0.004201
N -3.173845 -1.884678 -5.878516 -0.001236 0.001592 0.003454
N -3.173845 -1.884678 -0.861561 -0.000865 0.001685 0.004705
N -1.654808 0.903146 4.418497 0.013302 -0.007850 0.009186
N -1.654808 0.903146 -5.878516 0.013581 -0.007644 0.008725
N -1.654808 0.903146 -0.861561 0.013567 -0.007963 0.009331
N -3.219102 3.612582 4.418497 0.011761 0.005601 0.006651
N -3.219102 3.612582 -5.878516 -0.003594 -0.002542 -0.000099
N -3.219102 3.612582 -0.861561 0.011850 0.006017 0.007322
N -0.045257 -1.884678 4.418497 0.011078 0.007264 0.005565
N -0.045257 -1.884678 -5.878516 0.011866 0.007440 0.028616
N -0.045257 -1.884678 -0.861561 0.011593 0.007370 0.030564
N 0.000000 1.806291 1.910020 -0.011784 -0.007628 -0.028882
N 0.000000 1.806291 6.926975 -0.011208 -0.007509 0.005693
N 0.000000 1.806291 -3.370038 -0.011476 -0.007348 0.005750
N 3.173845 -3.690969 1.910020 -0.012361 -0.006026 -0.028141
N 3.173845 -3.690969 6.926975 -0.012018 -0.005837 0.005410
N 3.173845 -3.690969 -3.370038 -0.012317 -0.005964 0.029822
N 1.609551 -0.981532 1.910020 -0.013876 0.008030 -0.025425
N 1.609551 -0.981532 6.926975 0.002103 0.016629 0.002495
N 1.609551 -0.981532 -3.370038 0.002160 0.016401 0.002698
N 3.128588 1.806291 1.910020 0.001035 -0.001976 -0.032002
N 3.128588 1.806291 6.926975 0.001090 -0.001761 0.027115
N 3.128588 1.806291 -3.370038 0.001159 -0.001685 0.003296
N 6.302433 -3.690969 1.910020 0.000403 -0.000293 -0.031438
N 6.302433 -3.690969 6.926975 0.000835 -0.000249 0.027528
N 6.302433 -3.690969 -3.370038 0.000570 -0.000144 0.003776
N 4.738139 -0.981532 1.910020 -0.001000 0.013670 -0.028248
N 4.738139 -0.981532 6.926975 -0.000796 0.013623 0.005956
N 4.738139 -0.981532 -3.370038 -0.000842 0.013452 0.006173
N -3.219102 1.806291 1.910020 0.002862 -0.001505 -0.031949
N -3.219102 1.806291 6.926975 0.002216 -0.001601 0.002766
N -3.219102 1.806291 -3.370038 0.002400 -0.001429 0.002836
N -0.045257 -3.690969 1.910020 0.002356 0.000093 -0.031409
N -0.045257 -3.690969 6.926975 0.001880 -0.022128 -0.004813
N -0.045257 -3.690969 -3.370038 0.002158 -0.022076 -0.004608
N -1.609551 -0.981532 1.910020 0.000825 0.014078 -0.028721
N -1.609551 -0.981532 6.926975 -0.018271 0.024497 -0.002127
N -1.609551 -0.981532 -3.370038 -0.018276 0.024557 -0.002020
