108
Energy=-5.739908e+05 Lattice="9.413015e+00 0.000000e+00 0.000000e+00 -4.707230e+00 8.152137e+00 0.000000e+00 8.094290e-03 1.244771e-03 1.509565e+01" Stress="5.983563e-05 -6.692482e-05 3.194681e-04 -6.526183e-05 6.107735e-05 5.320186e-05 3.217953e-04 5.237226e-05 -3.913351e-06" Properties=species:S:1:pos:R:3:forces:R:3 Config_type=AlGaN_super3_3_2_14.xyz
Al 1.546860e+00 8.691025e-01 2.372627e+00 9.574207e-05 1.485283e-05 1.352077e-04
Al 1.550853e+00 8.697927e-01 7.391735e+00 1.160647e-04 8.095547e-05 5.577902e-06
Al 1.548268e+00 8.721552e-01 -2.668324e+00 1.323653e-04 3.861625e-05 -4.404143e-05
Al -2.063211e-02 3.586818e+00 2.369133e+00 8.546762e-05 -6.423965e-05 -5.895969e-05
Al -1.950607e-02 3.584650e+00 7.395938e+00 9.565622e-06 -2.364854e-05 -2.382235e-05
Al -2.385860e-02 3.582019e+00 -2.670105e+00 3.596754e-05 6.377931e-05 -8.141933e-06
Al 3.118215e+00 -1.849314e+00 2.373668e+00 1.412822e-04 -2.684802e-05 -6.195067e-05
Al 3.122234e+00 -1.852284e+00 7.391686e+00 5.100472e-05 -2.381614e-05 1.615609e-05
Al 3.122854e+00 -1.851612e+00 -2.667449e+00 5.345537e-05 2.160110e-05 4.768426e-05
Al -4.728196e+00 8.687333e-01 2.368054e+00 -7.875997e-05 -1.188238e-04 1.180137e-04
Al -4.731697e+00 8.653739e-01 7.384970e+00 1.018731e-04 7.279787e-05 4.583484e-06
Al -4.738175e+00 8.610972e-01 -2.655601e+00 1.686237e-04 6.607878e-05 -5.723363e-05
Al -6.299934e+00 3.585657e+00 2.373540e+00 -8.570891e-06 9.528996e-06 -4.386245e-05
Al -6.294984e+00 3.582911e+00 7.391678e+00 1.785075e-06 2.570442e-07 -7.668669e-05
Al -6.303391e+00 3.576116e+00 -2.668081e+00 1.318819e-05 8.277709e-05 -8.465152e-05
Al -3.167448e+00 -1.854474e+00 2.387405e+00 1.872746e-06 -1.377391e-04 9.348923e-05
Al -3.156374e+00 -1.849948e+00 7.391051e+00 1.456672e-05 8.437814e-06 -1.050203e-04
Al -3.174491e+00 -1.854194e+00 -2.678743e+00 1.138175e-04 1.881476e-05 -3.402486e-05
Al -1.591806e+00 8.796465e-01 2.385705e+00 1.529107e-04 -4.246166e-04 2.141068e-04
Al -1.583617e+00 8.667354e-01 7.380732e+00 7.975602e-05 -2.262746e-05 -3.250487e-05
Al -1.590762e+00 8.747363e-01 -2.663727e+00 -1.368986e-04 1.042108e-04 1.707982e-04
Al -3.158641e+00 3.585031e+00 2.372455e+00 4.321615e-05 4.848217e-05 9.401435e-05
Al -3.154854e+00 3.590845e+00 7.381692e+00 -5.981881e-06 -1.139519e-04 -3.920938e-05
Al -3.159274e+00 3.583602e+00 -2.652603e+00 5.560733e-05 -1.201769e-05 5.722764e-05
Al -1.287315e-02 -1.852329e+00 2.384273e+00 -1.669656e-05 -1.026141e-04 -7.724218e-05
Al -1.864272e-02 -1.849340e+00 7.393067e+00 2.516224e-07 -1.394534e-04 -5.504356e-05
Ga -1.929839e-02 -1.853562e+00 -2.672323e+00 1.551710e-04 -1.777067e-04 8.011333e-05
Al -1.773504e-02 1.776729e+00 4.883050e+00 6.683993e-05 6.905385e-05 -2.783974e-05
Al -1.657565e-02 1.771268e+00 -5.188807e+00 4.642571e-05 8.269065e-05 -5.550343e-05
Al -1.715123e-02 1.778341e+00 -1.459001e-01 -1.640547e-06 3.870215e-04 3.972241e-04
Al 3.120846e+00 -3.661533e+00 4.879298e+00 1.240073e-04 6.818471e-05 -2.528547e-05
Al 3.116517e+00 -3.656290e+00 -5.184989e+00 4.173659e-05 9.721488e-05 1.970863e-05
Al 3.116712e+00 -3.662956e+00 -1.470254e-01 -5.073927e-06 2.809174e-04 1.378161e-06
Al 1.551819e+00 -9.436448e-01 4.885740e+00 1.632395e-05 1.293667e-05 7.973184e-05
Al 1.550604e+00 -9.426050e-01 -5.200511e+00 -3.185865e-05 3.358698e-05 -3.247696e-05
Al 1.562563e+00 -9.409490e-01 -1.349940e-01 1.201620e-05 -2.217338e-04 1.221557e-04
Al 3.116490e+00 1.774278e+00 4.878771e+00 4.160317e-05 -4.385577e-05 -3.256598e-05
Al 3.102643e+00 1.772069e+00 -5.184131e+00 6.569807e-05 -4.341268e-05 2.813171e-05
Al 3.112567e+00 1.771571e+00 -1.470712e-01 4.335654e-05 1.456472e-04 1.493271e-04
Al 6.254467e+00 -3.663312e+00 4.888037e+00 5.705657e-05 -6.052997e-06 -4.339942e-05
Al 6.250796e+00 -3.664323e+00 -5.190727e+00 9.608983e-05 -1.756789e-05 -1.255280e-04
Al 6.249456e+00 -3.670369e+00 -1.497895e-01 -4.572637e-05 1.663122e-04 1.486652e-04
Al 4.685867e+00 -9.436837e-01 4.883446e+00 4.166271e-05 -1.626806e-04 -5.750889e-05
Al 4.676203e+00 -9.524863e-01 -5.188412e+00 -3.237638e-05 -9.729719e-05 6.698930e-06
Al 4.675629e+00 -9.484346e-01 -1.450327e-01 -6.360388e-05 1.649549e-05 2.045223e-04
Al -3.160529e+00 1.775428e+00 4.885100e+00 5.172283e-05 -5.300059e-05 1.913636e-05
Ga -3.165415e+00 1.773581e+00 -5.182394e+00 1.583248e-05 -2.172213e-05 -4.014917e-05
Al -3.165831e+00 1.778112e+00 -1.449582e-01 1.064963e-05 3.646890e-04 -1.073340e-03
Al -2.055046e-02 -3.661374e+00 4.882758e+00 3.179447e-05 -5.443785e-05 -6.558506e-05
Al -2.937719e-02 -3.662236e+00 -5.197989e+00 7.662210e-05 -1.095556e-05 -4.390860e-05
Al -1.961727e-02 -3.678588e+00 -1.302074e-01 -5.095866e-05 8.143049e-04 -8.974876e-05
Al -1.588057e+00 -9.444832e-01 4.878740e+00 -6.683982e-05 -7.930506e-05 -1.177746e-04
Al -1.594274e+00 -9.489773e-01 -5.196312e+00 -7.160468e-05 -8.735220e-05 -4.949045e-05
Ga -1.599436e+00 -9.425918e-01 -1.270029e-01 1.174909e-04 -1.478148e-04 3.499148e-04
N 1.548314e+00 8.673721e-01 4.287259e+00 1.225691e-05 5.916542e-05 6.481617e-06
N 1.543579e+00 8.688978e-01 -5.789040e+00 9.011012e-05 8.230971e-05 4.799555e-06
N 1.545292e+00 8.650031e-01 -7.463429e-01 1.850358e-05 1.513229e-04 6.405157e-05
N -1.813901e-02 3.585683e+00 4.284088e+00 -1.286340e-04 4.301023e-06 1.979282e-05
N -2.683850e-02 3.583023e+00 -5.780950e+00 -5.679249e-05 4.929033e-06 8.084017e-05
N -2.285707e-02 3.582643e+00 -7.492153e-01 -2.413618e-05 1.108496e-05 4.481367e-05
N 3.118993e+00 -1.849693e+00 4.287772e+00 -8.623341e-05 2.510190e-05 3.105628e-06
N 3.115424e+00 -1.854674e+00 -5.789312e+00 2.700348e-05 -1.292133e-05 1.507706e-05
N 3.115388e+00 -1.852491e+00 -7.471047e-01 -4.102447e-05 -1.303947e-05 -3.348929e-05
N -4.726914e+00 8.677747e-01 4.285423e+00 1.239921e-05 1.254575e-04 -4.598567e-05
N -4.776394e+00 8.420975e-01 -5.801043e+00 1.286453e-04 1.970233e-04 1.787412e-05
N -4.733304e+00 8.623888e-01 -7.367526e-01 -6.260403e-06 1.598318e-04 1.156474e-06
N -6.297392e+00 3.585728e+00 4.287895e+00 -9.290268e-05 7.720573e-05 2.878708e-05
N -6.302951e+00 3.580310e+00 -5.787648e+00 -1.055629e-04 4.689491e-05 6.094719e-05
N -6.297525e+00 3.583048e+00 -7.460816e-01 -6.806482e-05 8.092330e-05 9.489879e-05
N -3.161330e+00 -1.853761e+00 4.297663e+00 -1.321661e-04 6.437791e-05 1.161636e-04
N -3.164870e+00 -1.852529e+00 -5.786357e+00 -3.235493e-05 4.199586e-05 6.317082e-05
N -3.202004e+00 -1.875664e+00 -7.663203e-01 2.386475e-05 -1.006327e-07 1.233792e-04
N -1.589832e+00 8.741873e-01 4.298280e+00 2.022994e-06 2.315170e-05 -7.725566e-06
N -1.553794e+00 8.457682e-01 -5.806067e+00 -2.097321e-06 1.147098e-05 6.352580e-05
N -1.589823e+00 9.140456e-01 -7.547466e-01 2.139888e-04 -4.961867e-04 -1.368080e-04
N -3.157573e+00 3.585473e+00 4.288734e+00 -1.078785e-04 -7.394891e-05 -3.392682e-05
N -3.160105e+00 3.631839e+00 -5.807096e+00 -7.856092e-05 -2.027443e-04 2.030845e-05
N -3.161168e+00 3.586835e+00 -7.364471e-01 -1.286376e-04 8.343265e-05 -4.995216e-05
N -1.449966e-02 -1.850773e+00 4.295961e+00 -3.378808e-05 -7.687135e-05 6.753452e-05
N -2.493002e-02 -1.850696e+00 -5.782437e+00 -1.699805e-05 -1.096955e-04 6.264854e-05
N 1.924512e-02 -1.874337e+00 -7.027830e-01 -2.065992e-04 -6.351807e-04 -3.854917e-05
N -2.175238e-02 1.775015e+00 1.775285e+00 7.709902e-05 -1.738584e-04 -2.488134e-04
N -1.548434e-02 1.776440e+00 6.795196e+00 -3.189493e-05 1.087997e-04 6.580222e-06
N -2.213291e-02 1.771381e+00 -3.269214e+00 -5.338633e-06 7.876470e-05 1.131313e-04
N 3.117133e+00 -3.660016e+00 1.774203e+00 3.599109e-05 -1.093910e-04 -7.394328e-05
N 3.123806e+00 -3.661464e+00 6.792021e+00 -9.142676e-06 1.526308e-04 -2.013606e-05
N 3.112900e+00 -3.663958e+00 -3.262349e+00 -1.535751e-06 9.163236e-05 2.016745e-05
N 1.552079e+00 -9.418727e-01 1.781704e+00 -1.075097e-04 1.093260e-04 -5.417147e-05
N 1.552633e+00 -9.441019e-01 6.802500e+00 -1.197343e-04 6.938902e-05 9.197565e-06
N 1.591020e+00 -9.202365e-01 -3.289233e+00 -1.717046e-04 3.584112e-06 -8.500818e-05
N 3.114288e+00 1.775344e+00 1.773779e+00 4.172726e-05 -1.372080e-04 -1.588615e-04
N 3.116869e+00 1.774850e+00 6.791366e+00 -6.162135e-05 -4.009863e-05 -9.060666e-06
N 3.113607e+00 1.771236e+00 -3.263558e+00 -6.564201e-05 -1.371499e-05 9.613519e-05
N 6.254134e+00 -3.659407e+00 1.771651e+00 4.138479e-05 -1.561971e-04 -2.311298e-04
N 6.256082e+00 -3.662758e+00 6.802406e+00 -7.329218e-07 -2.410120e-05 9.753449e-05
N 6.252367e+00 -3.665943e+00 -3.270767e+00 -1.432851e-06 -3.093337e-05 3.736029e-05
N 4.686002e+00 -9.444348e-01 1.775577e+00 1.072985e-05 -1.411538e-04 -2.152711e-04
N 4.688488e+00 -9.453857e-01 6.795251e+00 -1.493657e-04 -7.503745e-05 -7.906902e-06
N 4.680490e+00 -9.433877e-01 -3.270446e+00 -1.304522e-04 -9.757794e-05 4.979404e-06
N -3.159606e+00 1.775229e+00 1.772767e+00 -5.379498e-05 -2.307263e-04 7.449163e-04
N -3.158903e+00 1.773986e+00 6.800454e+00 -7.106793e-05 2.307607e-05 6.209548e-05
N -3.165917e+00 1.772519e+00 -3.207514e+00 -1.099943e-04 -7.937746e-06 -1.183469e-04
N -2.249185e-02 -3.663560e+00 1.785483e+00 3.666987e-05 -2.624898e-04 -7.952456e-05
N -2.118315e-02 -3.660588e+00 6.796369e+00 -1.341086e-05 4.902645e-05 5.581844e-05
N -2.340483e-02 -3.714807e+00 -3.287793e+00 -3.429956e-05 1.038472e-04 3.840922e-05
N -1.593371e+00 -9.426920e-01 1.849598e+00 -3.113305e-05 4.117267e-04 -6.427717e-04
N -1.587037e+00 -9.464231e-01 6.794594e+00 -1.160533e-04 -3.085350e-05 5.108129e-05
N -1.634350e+00 -9.204931e-01 -3.282549e+00 -1.017366e-04 -3.476923e-05 1.135512e-04
