108
Energy=-1352173.765195 Lattice="9.507459 0.000000 0.000000 -4.760891 8.221642 0.000000 0.001016 -0.006087 15.349557" Stress="-0.000004 0.000001 0.000001 0.000001 -0.000017 -0.000002 0.000001 -0.000002 0.000017" Properties=species:S:1:pos:R:3:forces:R:3
Al 1.576554 0.873438 2.413230 0.000715 0.001194 0.001005
Al 1.581594 0.864680 7.534775 -0.002079 0.001810 0.000076
Al 1.557749 0.869994 -2.708187 0.000342 -0.000255 -0.000504
Al -0.031443 3.616663 2.419399 -0.001055 -0.000379 0.000558
Al -0.016001 3.623725 7.547231 0.001106 0.002143 0.000169
Al -0.033336 3.602469 -2.749867 -0.001591 0.003293 0.008356
Al 3.154973 -1.866726 2.386548 0.002870 -0.001009 0.000375
Al 3.151129 -1.870900 7.569525 0.000969 -0.000248 0.000295
Ga 3.145113 -1.868839 -2.737073 0.000569 0.000015 0.001607
Al -4.803380 0.855309 2.392064 0.001954 0.007143 0.000197
Al -4.790321 0.869170 7.538382 0.000181 0.000105 0.000284
Al -4.780456 0.876125 -2.696665 0.001303 0.000386 -0.000246
Ga -6.371865 3.587171 2.422649 0.000985 0.000672 0.001840
Al -6.358558 3.617466 7.522939 -0.000156 -0.000698 0.000303
Ga -6.354906 3.609168 -2.721011 -0.000327 0.001334 0.000925
Ga -3.208013 -1.855779 2.407474 0.000423 -0.001003 0.002754
Al -3.182487 -1.874265 7.539359 -0.001084 -0.001453 0.000578
Ga -3.184137 -1.849014 -2.731986 -0.000546 -0.002031 0.002695
Ga -1.623073 0.878192 2.407650 0.000143 0.001698 0.000303
Ga -1.610880 0.871296 7.544691 0.001005 -0.000758 -0.000401
Al -1.610992 0.877243 -2.704092 0.000872 -0.000583 -0.001323
Ga -3.200507 3.623835 2.385775 0.001658 -0.002845 0.002070
Al -3.200391 3.629927 7.547122 -0.000858 0.001565 0.000397
Al -3.187576 3.621625 -2.714740 -0.000479 -0.000148 0.001363
Ga -0.025837 -1.858885 2.410718 0.000832 -0.001708 0.003934
Al -0.019510 -1.871849 7.543216 -0.000187 -0.001167 0.000174
Al -0.013968 -1.857213 -2.722890 -0.000353 -0.000707 -0.001267
Ga -0.000657 1.790527 4.979423 -0.002247 0.001076 0.000474
Ga -0.010392 1.786041 -5.247170 -0.000085 0.000782 0.000217
Ga -0.028571 1.786996 -0.159578 0.000089 0.002154 -0.000036
Ga 3.155016 -3.692645 4.988153 0.000148 0.000271 0.002421
Al 3.150775 -3.687326 -5.280176 -0.000002 0.000624 0.001021
Al 3.151596 -3.699033 -0.161559 -0.000732 -0.000214 -0.000005
Ga 1.566322 -0.960806 4.987248 -0.000694 0.000819 0.000319
Al 1.553214 -0.964333 -5.277865 0.001192 -0.002397 0.002343
Ga 1.571906 -0.964215 -0.151893 -0.002258 0.000675 0.000698
Al 3.149675 1.788621 4.992516 -0.001391 0.001886 0.000619
Ga 3.147188 1.774005 -5.278090 0.000102 0.001986 0.002297
Al 3.160500 1.772924 -0.163342 -0.000709 0.001039 0.002393
Al 6.336158 -3.705473 4.997419 -0.001855 0.003954 0.000374
Al 6.322650 -3.675994 -5.293008 -0.000169 -0.001997 0.001700
Ga 6.313506 -3.689841 -0.153177 -0.001009 -0.001338 -0.000538
Ga 4.734211 -0.953407 4.987802 -0.000273 -0.000377 0.000868
Al 4.735394 -0.956096 -5.288513 -0.000180 -0.003249 0.001823
Al 4.737862 -0.936075 -0.159236 -0.001590 -0.000459 0.001871
Ga -3.224160 1.794626 4.993080 0.000358 -0.000023 -0.000566
Ga -3.200141 1.792489 -5.253088 -0.001024 0.000847 0.001439
Al -3.199960 1.782682 -0.199714 -0.004135 0.002849 0.005790
Al -0.038065 -3.684690 5.005948 0.000350 -0.000865 0.001795
Al -0.012509 -3.670066 -5.282861 -0.001220 -0.001907 0.002056
Al -0.015244 -3.695647 -0.179319 0.000450 0.000287 0.000325
Al -1.607277 -0.968809 4.998294 -0.001664 0.000475 0.001690
Al -1.599030 -0.970350 -5.261969 -0.000498 -0.000917 0.000561
Al -1.609137 -0.948008 -0.178070 0.000076 -0.001188 0.000527
N 1.609649 0.892843 4.334140 0.000475 0.000422 -0.000862
N 1.561269 0.816522 -5.907798 -0.000041 0.003546 -0.001881
N 1.597167 0.889788 -0.801402 0.001451 0.000201 -0.000049
N 0.013688 3.644985 4.335575 0.000989 -0.000912 -0.000619
N -0.022007 3.656222 -5.888429 0.000220 0.000977 -0.000283
N -0.069900 3.638370 -0.817276 0.001342 -0.000295 -0.003784
N 3.149035 -1.871495 4.299494 0.001548 0.000234 -0.000318
N 3.144669 -1.865038 -5.859068 0.000737 -0.000216 -0.000088
N 3.190720 -1.889528 -0.748185 0.001798 -0.000492 -0.000782
N -4.831593 0.895625 4.318258 0.002348 -0.000860 -0.001052
N -4.775686 0.824193 -5.912039 0.000724 0.003118 -0.001444
N -4.784075 0.869720 -0.776466 0.001378 0.000144 -0.002050
N -6.359832 3.611238 4.431284 0.000353 -0.001048 -0.002119
N -6.359038 3.655595 -5.896947 0.000378 0.001430 -0.000971
N -6.327772 3.589745 -0.739739 -0.000009 -0.000698 -0.001095
N -3.152657 -1.885470 4.399894 0.000650 -0.002263 -0.001254
N -3.183743 -1.862259 -5.879971 0.000467 0.000621 -0.000260
N -3.193041 -1.818513 -0.744540 -0.000297 0.000456 -0.001801
N -1.621724 0.834709 4.391724 0.001392 -0.001344 0.000258
N -1.605600 0.828882 -5.841203 -0.000703 0.000135 -0.000380
N -1.652177 0.852519 -0.785846 0.001757 -0.000724 -0.002145
N -3.241466 3.649820 4.375632 -0.001012 -0.000162 -0.001877
N -3.197219 3.664914 -5.887669 -0.000000 -0.000390 -0.000786
N -3.192444 3.625933 -0.777092 0.000350 -0.001243 -0.001416
N -0.066461 -1.883241 4.401699 0.000504 -0.001730 -0.001536
N -0.025311 -1.861457 -5.881468 -0.000022 -0.000327 -0.001279
N -0.063098 -1.885279 -0.801378 0.001345 -0.000254 -0.000511
N 0.014956 1.806328 1.832366 0.000408 0.000092 -0.000169
N 0.018542 1.820300 6.959580 0.002434 -0.003967 0.000009
N -0.020801 1.785390 -3.262837 -0.000350 -0.002396 -0.001857
N 3.192651 -3.681134 1.768408 -0.000004 0.001681 -0.001080
N 3.155508 -3.694232 6.980151 -0.000065 0.000705 -0.000303
N 3.150024 -3.743407 -3.359689 -0.000564 -0.000018 -0.001927
N 1.602790 -0.935063 1.840477 -0.002040 0.000791 -0.004038
N 1.574701 -0.963114 6.977902 -0.001182 0.000220 -0.000996
N 1.525020 -0.924716 -3.351676 -0.000754 -0.001276 0.000020
N 3.142382 1.733640 1.765660 -0.001293 0.000891 -0.001771
N 3.150666 1.781383 6.923627 -0.000799 0.000412 -0.000720
N 3.146882 1.738383 -3.299627 -0.000609 -0.000676 -0.001045
N 6.273470 -3.720698 1.819401 0.002047 0.000966 -0.000732
N 6.322259 -3.696454 6.929036 -0.000673 0.000314 -0.000645
N 6.278619 -3.717880 -3.368592 0.002199 0.001459 -0.002414
N 4.692003 -0.915971 1.766187 -0.000728 -0.006751 -0.000266
N 4.733796 -0.957353 6.977551 -0.000850 -0.001050 -0.000007
N 4.735910 -0.897813 -3.370542 -0.000703 -0.000518 -0.002406
N -3.245083 1.764126 1.743881 -0.000450 -0.000364 -0.001983
N -3.240784 1.818603 6.972703 -0.000038 -0.001462 -0.001875
N -3.198697 1.792398 -3.267515 -0.000396 -0.000267 0.002380
N -0.029494 -3.689731 1.734945 -0.001866 0.000469 -0.001767
N -0.015022 -3.690635 6.933009 -0.000169 0.000666 -0.000551
N 0.024275 -3.666904 -3.351156 0.000781 0.000503 -0.001171
N -1.604650 -0.949720 1.733656 -0.001520 -0.000843 -0.002319
N -1.605233 -1.001585 6.914703 0.001149 0.000163 0.000026
N -1.558683 -0.929470 -3.343723 -0.000335 0.000771 -0.000998
