108
Energy=-573990.779864 Lattice="9.412641 0.000000 0.000000 -4.706661 8.151840 0.000000 0.000125 0.000207 15.096413" Stress="0.000001 0.000000 -0.000000 -0.000000 0.000001 0.000000 -0.000000 0.000000 0.000003" Properties=species:S:1:pos:R:3:forces:R:3
Al 1.546804 0.867355 2.371530 -0.000017 -0.000016 -0.000199
Al 1.546288 0.874586 7.379240 -0.000003 -0.000028 -0.000011
Al 1.549982 0.882792 -2.649780 -0.000007 -0.000038 0.000030
Al -0.021707 3.584660 2.367114 -0.000011 -0.000012 -0.000199
Al -0.027846 3.581113 7.383923 -0.000006 -0.000010 -0.000010
Al -0.029602 3.580000 -2.651559 0.000014 0.000004 0.000043
Al 3.115977 -1.850318 2.371502 -0.000016 -0.000006 -0.000176
Al 3.121908 -1.854274 7.379102 -0.000008 0.000002 0.000016
Al 3.131028 -1.855367 -2.649726 -0.000033 0.000013 0.000031
Al -4.727206 0.867881 2.368129 -0.000000 -0.000021 -0.000174
Al -4.730021 0.866298 7.392918 0.000004 -0.000022 -0.000010
Al -4.729463 0.866593 -2.666307 -0.000010 -0.000021 0.000004
Al -6.299832 3.583314 2.371701 0.000005 -0.000008 -0.000188
Al -6.293589 3.580313 7.378796 0.000003 -0.000005 0.000011
Al -6.294645 3.572971 -2.649431 -0.000005 -0.000011 0.000046
Al -3.161701 -1.851947 2.371670 0.000005 0.000006 -0.000191
Al -3.161171 -1.844990 7.378823 0.000002 -0.000001 0.000010
Al -3.168133 -1.842357 -2.649477 -0.000009 -0.000008 0.000036
Al -1.593776 0.869808 2.372269 0.000037 -0.000020 -0.000190
Al -1.590211 0.867911 7.389310 0.000031 -0.000019 -0.000038
Al -1.595880 0.873697 -2.663853 0.000052 -0.000043 -0.000013
Al -3.158940 3.580803 2.372309 0.000025 0.000009 -0.000171
Al -3.158819 3.584883 7.389232 0.000021 0.000003 -0.000010
Al -3.156607 3.577272 -2.663894 0.000020 0.000005 0.000018
Al -0.021131 -1.849745 2.368186 0.000009 0.000012 -0.000239
Al -0.027645 -1.853426 7.381120 0.000030 0.000013 0.000000
Ga -0.031181 -1.855471 -2.644942 0.000133 0.000053 -0.000084
Al -0.023803 1.773128 4.875071 -0.000018 -0.000012 -0.000019
Al -0.030816 1.772278 -5.184032 -0.000005 -0.000058 -0.000020
Al -0.024327 1.771794 -0.140583 -0.000016 -0.000001 0.000317
Al 3.115114 -3.663351 4.875058 -0.000019 -0.000008 -0.000006
Al 3.110832 -3.668856 -5.184188 -0.000018 -0.000012 -0.000015
Al 3.113828 -3.663338 -0.140582 -0.000020 -0.000005 0.000318
Al 1.546483 -0.944800 4.880866 -0.000028 0.000025 -0.000056
Ga 1.551653 -0.942077 -5.191067 -0.000125 0.000088 -0.000048
Al 1.553986 -0.940589 -0.134475 -0.000010 0.000031 0.000308
Al 3.116925 1.771466 4.875023 0.000001 -0.000003 0.000001
Al 3.122393 1.773380 -5.183785 -0.000013 -0.000051 0.000007
Al 3.116921 1.772331 -0.140420 0.000001 0.000002 0.000345
Al 6.251727 -3.662612 4.880565 -0.000003 0.000002 -0.000003
Ga 6.253541 -3.661663 -5.181256 0.000012 -0.000002 -0.000001
Al 6.253240 -3.661840 -0.148269 0.000005 -0.000000 0.000336
Al 4.683925 -0.942407 4.875009 -0.000001 0.000028 -0.000005
Al 4.688207 -0.938717 -5.183793 -0.000009 0.000034 -0.000009
Al 4.684757 -0.942950 -0.140416 -0.000003 0.000010 0.000315
Al -3.160990 1.772338 4.883266 0.000016 -0.000006 0.000008
Al -3.159802 1.772994 -5.188666 0.000007 -0.000001 -0.000003
Al -3.160328 1.772643 -0.149169 0.000010 -0.000002 0.000329
Al -0.020997 -3.662480 4.874295 0.000001 -0.000006 -0.000018
Al -0.018482 -3.674628 -5.194641 0.000031 0.000013 0.000014
Al -0.020835 -3.671138 -0.126277 -0.000008 -0.000026 0.000339
Al -1.590985 -0.943211 4.874246 -0.000003 0.000032 -0.000031
Al -1.600235 -0.934955 -5.194453 0.000010 0.000049 0.000003
Al -1.598310 -0.938921 -0.126491 -0.000031 0.000020 0.000372
N 1.546320 0.866630 4.285827 -0.000046 -0.000084 0.000027
N 1.546021 0.919690 -5.805470 -0.000040 -0.000055 -0.000018
N 1.546545 0.871351 -0.734325 -0.000040 -0.000089 0.000223
N -0.021671 3.584592 4.281824 -0.000039 -0.000021 0.000008
N -0.064016 3.560173 -5.800351 -0.000157 -0.000064 -0.000033
N -0.026425 3.581712 -0.735901 -0.000059 -0.000027 0.000202
N 3.115104 -1.850461 4.285840 -0.000053 0.000021 0.000007
N 3.160668 -1.877049 -5.805464 0.000089 -0.000053 -0.000057
N 3.119412 -1.852817 -0.734294 -0.000057 0.000033 0.000210
N -4.726850 0.868148 4.281114 0.000015 -0.000062 0.000006
N -4.729621 0.866477 -5.781209 0.000037 -0.000042 -0.000013
N -4.729461 0.866542 -0.745612 0.000026 -0.000051 0.000196
N -6.299379 3.584140 4.285783 0.000017 -0.000008 0.000008
N -6.258974 3.558726 -5.808109 0.000127 -0.000083 -0.000057
N -6.292941 3.582087 -0.734293 0.000019 -0.000017 0.000189
N -3.160696 -1.851997 4.285772 -0.000001 0.000035 0.000009
N -3.162487 -1.804397 -5.808084 -0.000031 0.000176 -0.000060
N -3.159183 -1.845632 -0.734341 -0.000014 0.000063 0.000196
N -1.593707 0.869167 4.284583 0.000074 -0.000039 0.000022
N -1.591023 0.869648 -5.787687 0.000049 -0.000032 -0.000021
N -1.591176 0.866022 -0.744183 0.000044 -0.000026 0.000196
N -3.159520 3.581223 4.284633 0.000066 0.000011 0.000006
N -3.157699 3.583222 -5.787810 0.000057 -0.000003 -0.000013
N -3.160865 3.584812 -0.744238 0.000050 -0.000000 0.000190
N -0.021301 -1.849950 4.284369 0.000047 0.000075 0.000031
N -0.065144 -1.875175 -5.799848 -0.000009 0.000046 -0.000037
N -0.025699 -1.852539 -0.672163 0.000058 0.000088 0.000392
N -0.023275 1.772128 1.776234 -0.000049 -0.000102 -0.000354
N -0.024903 1.772628 6.786582 -0.000049 -0.000078 0.000034
N -0.022557 1.772460 -3.260683 -0.000055 -0.000036 -0.000023
N 3.114349 -3.662273 1.776217 -0.000060 -0.000015 -0.000349
N 3.114032 -3.663866 6.786589 -0.000065 -0.000015 0.000028
N 3.115215 -3.661900 -3.260752 -0.000043 -0.000009 -0.000029
N 1.550548 -0.942464 1.780637 -0.000066 0.000027 -0.000330
N 1.546750 -0.944611 6.800264 -0.000057 0.000036 0.000022
N 1.588368 -0.920722 -3.219730 -0.000026 0.000054 0.000130
N 3.115556 1.772512 1.776210 0.000013 -0.000044 -0.000375
N 3.118471 1.770532 6.786220 0.000006 -0.000036 0.000024
N 3.114513 1.773034 -3.262298 0.000020 -0.000016 -0.000022
N 6.253159 -3.661811 1.771303 -0.000013 0.000022 -0.000336
N 6.251707 -3.662618 6.798189 -0.000009 0.000018 0.000018
N 6.253377 -3.661788 -3.199663 -0.000033 0.000001 0.000118
N 4.684056 -0.944140 1.776183 -0.000002 0.000078 -0.000359
N 4.683794 -0.940584 6.786257 -0.000014 0.000069 0.000027
N 4.684039 -0.945233 -3.262272 -0.000008 0.000054 -0.000025
N -3.160163 1.772920 1.768782 0.000056 -0.000021 -0.000349
N -3.161136 1.772303 6.799797 0.000033 -0.000010 0.000033
N -3.160781 1.772631 -3.265392 0.000046 -0.000022 -0.000009
N -0.021616 -3.666862 1.786238 0.000052 0.000050 -0.000364
N -0.019595 -3.663242 6.787576 0.000031 0.000031 0.000016
N -0.023197 -3.710524 -3.280992 0.000030 -0.000131 -0.000047
N -1.595141 -0.941670 1.786260 0.000076 0.000093 -0.000392
N -1.591047 -0.941617 6.787561 0.000043 0.000082 0.000031
N -1.633826 -0.921129 -3.280756 -0.000110 0.000154 -0.000051
