108
Energy=-1535275.679681 Lattice="9.529247 0.000000 0.000000 -4.765429 8.251351 0.000000 0.002773 -0.003577 15.387021" Stress="0.000001 -0.000001 0.000001 -0.000001 0.000000 -0.000002 0.000001 -0.000001 -0.000001" Properties=species:S:1:pos:R:3:forces:R:3
Al 1.552168 0.876203 2.460669 0.000020 0.000022 -0.000016
Al 1.570866 0.890440 7.531436 -0.000002 -0.000085 0.000014
Al 1.567877 0.893694 -2.745069 0.000014 0.000001 0.000019
Al -0.029372 3.610500 2.451118 -0.000010 0.000016 -0.000010
Al -0.016476 3.619065 7.550280 -0.000001 -0.000004 0.000032
Ga -0.016579 3.619991 -2.754502 -0.000019 0.000029 0.000033
Ga 3.144825 -1.876728 2.415472 0.000000 0.000059 0.000123
Al 3.161088 -1.874549 7.554719 0.000065 -0.000061 -0.000069
Ga 3.158337 -1.874269 -2.715600 0.000075 -0.000068 0.000075
Ga -4.782863 0.884617 2.453654 0.000062 0.000019 0.000010
Al -4.793285 0.883118 7.541196 -0.000016 -0.000001 0.000117
Ga -4.810307 0.879846 -2.742671 0.000030 -0.000013 0.000014
Ga -6.385049 3.618845 2.474198 0.000001 0.000010 0.000048
Al -6.377459 3.615782 7.537951 0.000031 0.000003 0.000007
Al -6.382278 3.618883 -2.767056 -0.000008 0.000001 0.000022
Ga -3.206250 -1.881415 2.444916 0.000017 0.000069 0.000008
Al -3.206365 -1.883324 7.565104 0.000025 -0.000035 -0.000005
Ga -3.198239 -1.876542 -2.754538 -0.000036 -0.000032 0.000043
Al -1.602291 0.900048 2.465091 0.000021 0.000035 -0.000044
Al -1.605777 0.891692 7.537571 0.000067 -0.000050 0.000089
Ga -1.592439 0.877441 -2.745153 0.000073 -0.000069 0.000021
Al -3.184125 3.617288 2.451272 -0.000006 -0.000030 0.000040
Al -3.199296 3.621564 7.544550 0.000089 0.000034 -0.000036
Ga -3.201755 3.639825 -2.737547 0.000041 -0.000027 0.000061
Ga -0.003870 -1.864758 2.451540 0.000027 0.000006 0.000047
Ga -0.015332 -1.883071 7.546993 -0.000012 0.000010 0.000029
Ga -0.027815 -1.874500 -2.740330 -0.000002 -0.000073 0.000046
Al -0.012289 1.794391 4.995147 -0.000015 0.000100 -0.000075
Al -0.012610 1.801415 -5.322681 0.000065 -0.000012 0.000005
Ga -0.013333 1.792085 -0.118644 -0.000011 -0.000039 0.000061
Ga 3.152341 -3.721749 5.007833 0.000005 0.000001 0.000026
Al 3.161071 -3.703321 -5.334428 0.000072 -0.000058 0.000092
Al 3.155852 -3.700188 -0.119932 -0.000014 0.000010 0.000046
Al 1.569041 -0.942283 5.016802 -0.000002 0.000033 0.000106
Ga 1.573886 -0.944536 -5.300179 -0.000028 0.000009 0.000040
Al 1.577131 -0.946286 -0.156483 -0.000057 -0.000017 0.000011
Al 3.142357 1.795518 5.019151 0.000081 -0.000108 -0.000005
Al 3.141009 1.807100 -5.315832 -0.000051 0.000022 -0.000031
Ga 3.139342 1.783582 -0.149451 0.000014 -0.000082 0.000069
Al 6.331730 -3.728031 5.029998 0.000155 -0.000024 -0.000015
Al 6.334562 -3.709826 -5.323253 0.000003 -0.000014 0.000077
Ga 6.320158 -3.707653 -0.154780 0.000129 -0.000010 -0.000011
Ga 4.737217 -0.952434 5.034462 -0.000033 0.000019 0.000018
Al 4.741481 -0.960920 -5.331885 0.000004 -0.000052 0.000053
Al 4.730270 -0.962780 -0.144529 -0.000030 -0.000025 -0.000025
Al -3.198041 1.805886 5.015965 -0.000049 0.000064 -0.000034
Ga -3.201738 1.798317 -5.326121 0.000047 -0.000023 0.000030
Ga -3.196233 1.798155 -0.129431 0.000011 -0.000060 -0.000033
Al -0.019580 -3.726256 5.009851 0.000016 0.000046 -0.000068
Al -0.036150 -3.715628 -5.307781 -0.000041 -0.000053 0.000069
Ga -0.016555 -3.706772 -0.142350 0.000031 -0.000071 -0.000016
Ga -1.606476 -0.949371 5.011898 -0.000002 0.000030 0.000015
Al -1.620352 -0.956489 -5.324225 0.000035 -0.000000 -0.000079
Ga -1.611877 -0.952075 -0.125013 -0.000029 -0.000090 -0.000021
N 1.566698 0.872766 4.391657 0.000014 -0.000042 -0.000013
N 1.565684 0.928756 -5.946108 -0.000003 0.000038 0.000017
N 1.558698 0.838653 -0.823939 0.000033 0.000018 -0.000023
N 0.021336 3.604731 4.374881 -0.000116 -0.000088 -0.000018
N -0.020080 3.626357 -5.917426 0.000025 -0.000013 -0.000011
N -0.070981 3.646237 -0.767578 -0.000106 -0.000060 -0.000008
N 3.113478 -1.851796 4.393365 -0.000021 0.000021 -0.000031
N 3.188327 -1.892775 -5.930282 0.000033 0.000048 -0.000077
N 3.154985 -1.880236 -0.711661 -0.000010 -0.000013 -0.000048
N -4.788047 0.924173 4.437309 -0.000035 -0.000015 0.000008
N -4.837565 0.862298 -5.931609 0.000063 -0.000029 -0.000105
N -4.789743 0.832288 -0.757464 0.000029 0.000026 -0.000033
N -6.379567 3.624053 4.457121 -0.000055 0.000300 -0.000044
N -6.376030 3.627727 -5.926916 -0.000007 -0.000013 -0.000011
N -6.376113 3.625946 -0.841701 -0.000004 0.000004 -0.000008
N -3.203667 -1.927933 4.415577 -0.000008 -0.000009 -0.000035
N -3.200378 -1.877066 -5.908566 -0.000004 0.000002 -0.000042
N -3.238515 -1.847183 -0.767573 -0.000018 -0.000011 0.000008
N -1.612314 0.930982 4.384898 0.000149 -0.000011 0.000014
N -1.565854 0.862457 -5.937814 -0.000026 -0.000091 -0.000019
N -1.604567 0.880641 -0.775051 0.000058 -0.000019 -0.000013
N -3.236969 3.601959 4.370892 -0.000064 0.000019 0.000011
N -3.205977 3.681194 -5.933743 0.000011 -0.000093 -0.000067
N -3.154237 3.656033 -0.758555 0.000022 -0.000018 -0.000021
N 0.026034 -1.899083 4.437018 -0.000033 -0.000066 -0.000040
N -0.057823 -1.898041 -5.871522 -0.000020 0.000034 0.000009
N 0.014351 -1.848987 -0.754203 0.000000 -0.000035 -0.000022
N -0.017871 1.789640 1.877819 0.000009 0.000093 0.000051
N -0.019206 1.795802 6.920349 -0.000006 -0.000001 -0.000058
N 0.021630 1.771119 -3.407362 -0.000014 0.000037 -0.000008
N 3.157410 -3.762234 1.810602 -0.000069 0.000107 -0.000027
N 3.158447 -3.712527 6.989016 -0.000069 0.000081 0.000029
N 3.155180 -3.701951 -3.421845 -0.000018 0.000016 -0.000084
N 1.563913 -0.897679 1.765856 -0.000025 0.000089 -0.000059
N 1.612722 -0.930362 6.930161 -0.000080 0.000101 -0.000014
N 1.572809 -0.907309 -3.328526 -0.000170 0.000093 -0.000054
N 3.105438 1.769480 1.834362 -0.000016 0.000076 0.000002
N 3.151733 1.792607 6.933811 -0.000012 -0.000041 -0.000006
N 3.108277 1.818089 -3.386983 0.000002 -0.000032 0.000014
N 6.289827 -3.740351 1.824122 0.000081 0.000124 -0.000031
N 6.328371 -3.710815 6.952106 0.000052 -0.000018 -0.000004
N 6.369585 -3.729908 -3.403481 0.000007 -0.000035 -0.000074
N 4.744791 -0.952004 1.764917 -0.000088 -0.000001 -0.000027
N 4.745423 -0.958358 7.006004 -0.000080 -0.000031 0.000023
N 4.736269 -0.956634 -3.418793 -0.000025 0.000018 -0.000035
N -3.155739 1.815207 1.854800 -0.000015 0.000056 -0.000040
N -3.196250 1.795626 6.943429 -0.000024 -0.000040 0.000012
N -3.201123 1.795078 -3.359249 0.000003 -0.000012 -0.000001
N 0.014728 -3.737119 1.841091 -0.000030 0.000083 0.000008
N -0.018944 -3.761840 6.919220 -0.000101 -0.000019 0.000045
N -0.064374 -3.733037 -3.390715 0.000004 -0.000039 -0.000041
N -1.609385 -0.904679 1.857751 -0.000028 0.000060 0.000018
N -1.653676 -0.932763 6.981024 -0.000009 0.000001 -0.000031
N -1.612353 -0.953409 -3.416214 -0.000040 -0.000011 -0.000011
