108
Energy=-1.947255e+06 Lattice="9.582779e+00 0.000000e+00 0.000000e+00 -4.795657e+00 8.293966e+00 0.000000e+00 2.260733e-03 4.392633e-03 1.550891e+01" Stress="2.731210e-04 -1.339754e-04 7.719110e-05 -1.458242e-04 1.516701e-05 2.644790e-04 8.944542e-05 2.692139e-04 1.315960e-04" Properties=species:S:1:pos:R:3:forces:R:3 Config_type=AlGaN_super3_33_0_9.xyz
Al 1.579772e+00 8.894204e-01 2.451163e+00 3.189506e-04 -1.941603e-04 -3.832475e-04
Al 1.574837e+00 8.934233e-01 7.601107e+00 1.478579e-04 -1.903017e-04 9.928661e-05
Al 1.576535e+00 8.930463e-01 -2.750741e+00 3.594201e-04 -2.025541e-04 -2.748319e-05
Al -5.758462e-03 3.642936e+00 2.435724e+00 -4.463361e-05 4.285336e-05 2.188169e-04
Al -1.945246e-02 3.641178e+00 7.592195e+00 -8.259243e-05 -1.039214e-04 1.065669e-04
Al -1.263260e-03 3.648709e+00 -2.727085e+00 -9.424700e-06 -7.590787e-05 4.517000e-05
Al 3.180866e+00 -1.872651e+00 2.425133e+00 6.066848e-06 -1.252780e-04 -9.242186e-05
Al 3.161391e+00 -1.888213e+00 7.610601e+00 5.510981e-05 -2.206797e-04 4.461706e-05
Ga 3.175086e+00 -1.882784e+00 -2.723744e+00 -3.552633e-05 -1.632090e-04 -1.330015e-04
Al -4.837666e+00 8.743225e-01 2.427321e+00 -9.415429e-05 3.948791e-05 -5.143117e-05
Ga -4.840973e+00 8.939899e-01 7.622512e+00 4.621335e-04 -2.847912e-04 2.993896e-05
Ga -4.836128e+00 8.826156e-01 -2.731335e+00 1.626246e-04 -1.236246e-04 2.427597e-05
Al -6.430737e+00 3.635571e+00 2.421377e+00 2.531159e-05 -1.867967e-04 -4.684205e-05
Al -6.410494e+00 3.643402e+00 7.631233e+00 8.420070e-05 -4.260753e-05 1.713449e-04
Al -6.426767e+00 3.651926e+00 -2.756271e+00 1.859740e-04 -2.777954e-04 1.784072e-04
Ga -3.234375e+00 -1.900363e+00 2.414248e+00 -5.248460e-05 -1.711881e-04 3.018175e-04
Ga -3.216145e+00 -1.898502e+00 7.608658e+00 1.604427e-04 -1.859085e-05 1.196700e-04
Al -3.213972e+00 -1.904777e+00 -2.710418e+00 -1.319928e-05 -1.005766e-04 2.538818e-04
Ga -1.611462e+00 8.934870e-01 2.451542e+00 5.275865e-04 -2.137346e-04 1.075443e-04
Ga -1.598440e+00 8.971086e-01 7.605170e+00 2.964350e-04 -4.302879e-04 -2.198570e-04
Ga -1.605139e+00 8.795323e-01 -2.731281e+00 3.659616e-04 -3.382887e-04 -1.719562e-04
Ga -3.224087e+00 3.651363e+00 2.443997e+00 3.673663e-04 1.397400e-05 6.508179e-05
Al -3.224366e+00 3.670229e+00 7.617773e+00 7.108639e-05 -3.312171e-04 -1.878878e-04
Ga -3.228715e+00 3.663628e+00 -2.741308e+00 1.492609e-04 -3.372300e-04 -9.320876e-05
Ga -1.158299e-02 -1.885166e+00 2.445273e+00 6.283920e-04 -2.345477e-04 4.016315e-05
Al -7.118563e-03 -1.893276e+00 7.622559e+00 3.705815e-05 -1.804875e-04 -6.355307e-05
Al -2.639640e-02 -1.890516e+00 -2.753051e+00 3.213005e-04 -3.067681e-04 5.027545e-05
Al -1.041773e-02 1.811613e+00 5.023019e+00 -1.403651e-04 1.640941e-04 1.508459e-04
Ga -1.917917e-03 1.810570e+00 -5.314647e+00 -3.291306e-04 3.339710e-04 2.672479e-04
Ga -1.193492e-03 1.817341e+00 -1.481183e-01 -4.713189e-04 1.972291e-04 -2.609344e-05
Ga 3.187382e+00 -3.728492e+00 5.031321e+00 -1.059406e-04 3.429252e-04 -1.301646e-04
Ga 3.173129e+00 -3.731384e+00 -5.334446e+00 -1.945362e-04 1.888874e-04 9.263807e-05
Ga 3.202577e+00 -3.720838e+00 -1.367784e-01 -2.665634e-04 5.504302e-05 6.225186e-04
Ga 1.580796e+00 -9.504747e-01 5.041792e+00 -3.124400e-04 3.420411e-04 -1.246140e-04
Ga 1.573999e+00 -9.581456e-01 -5.331762e+00 -4.663760e-04 2.818114e-04 -1.370758e-04
Ga 1.583964e+00 -9.525791e-01 -1.526259e-01 -5.381330e-04 8.017632e-05 1.383237e-03
Ga 3.156347e+00 1.811047e+00 5.010157e+00 -3.173421e-06 -2.807915e-05 4.524832e-04
Al 3.159577e+00 1.816719e+00 -5.318545e+00 -1.210763e-04 8.997626e-05 1.412156e-04
Ga 3.162330e+00 1.809079e+00 -1.426343e-01 -2.809902e-05 1.501392e-04 1.123956e-03
Ga 6.368133e+00 -3.746277e+00 5.026924e+00 -4.053410e-05 1.846378e-05 5.155718e-04
Ga 6.377317e+00 -3.742311e+00 -5.307340e+00 -1.553940e-04 2.315173e-05 3.554811e-04
Al 6.365035e+00 -3.728453e+00 -1.692180e-01 2.493748e-04 2.818381e-04 1.184906e-04
Ga 4.760000e+00 -9.600486e-01 5.015844e+00 -3.274975e-04 1.829481e-04 1.739208e-04
Ga 4.763741e+00 -9.620953e-01 -5.306890e+00 -3.035330e-04 1.523831e-05 5.460835e-05
Al 4.774870e+00 -9.686388e-01 -1.400501e-01 2.480710e-04 5.179515e-05 -3.871768e-05
Ga -3.220819e+00 1.804123e+00 5.032972e+00 -2.157013e-04 -7.904405e-05 -3.887151e-05
Ga -3.235617e+00 1.818149e+00 -5.324093e+00 -4.022439e-05 1.344106e-04 -1.742614e-04
Ga -3.226448e+00 1.796643e+00 -1.319256e-01 -2.896755e-04 2.374533e-06 -1.489911e-03
Ga -3.381784e-02 -3.729383e+00 5.052450e+00 -1.633186e-04 -1.186307e-05 1.148944e-04
Al -3.182332e-02 -3.732120e+00 -5.331140e+00 -4.720430e-05 5.818289e-05 1.285906e-04
Ga -4.030583e-02 -3.722509e+00 -1.625888e-01 -3.067617e-04 -8.925779e-05 4.037199e-05
Ga -1.611091e+00 -9.562397e-01 5.039134e+00 -3.563369e-04 2.314244e-04 -2.587482e-04
Ga -1.611168e+00 -9.797701e-01 -5.298129e+00 -3.362874e-04 1.635671e-04 1.454619e-05
Ga -1.625963e+00 -9.761131e-01 -1.644033e-01 -6.060909e-04 1.641253e-05 -1.944125e-03
N 1.529697e+00 9.030438e-01 4.369715e+00 2.971152e-04 -1.913778e-04 1.073664e-04
N 1.613008e+00 9.093292e-01 -5.985655e+00 5.026993e-04 -2.426118e-04 -8.549626e-05
N 1.579633e+00 8.850489e-01 -8.390424e-01 2.944739e-04 -1.095839e-04 3.560419e-04
N -2.120221e-02 3.601952e+00 4.361615e+00 4.110704e-05 -1.058171e-04 -1.522784e-04
N -2.057313e-02 3.643964e+00 -6.004928e+00 2.285926e-04 -9.393035e-05 -1.148884e-04
N 1.800751e-02 3.670221e+00 -8.125800e-01 6.316711e-05 -1.668938e-04 1.158856e-04
N 3.168083e+00 -1.882367e+00 4.343735e+00 1.553076e-04 -3.583570e-04 2.047269e-04
N 3.171980e+00 -1.882996e+00 -5.988883e+00 2.636082e-04 -1.402164e-04 5.095911e-05
N 3.214417e+00 -1.858727e+00 -7.512705e-01 1.004552e-04 -1.676643e-04 2.113777e-04
N -4.820531e+00 8.831646e-01 4.346407e+00 2.716809e-04 -4.029650e-05 -1.297738e-04
N -4.868097e+00 9.043757e-01 -5.912752e+00 1.551927e-04 -9.886973e-07 -6.440419e-05
N -4.823398e+00 8.362687e-01 -7.524169e-01 4.683777e-05 -7.304236e-05 -1.278192e-04
N -6.413293e+00 3.652620e+00 4.335245e+00 6.283583e-05 4.497694e-05 -1.905477e-04
N -6.375992e+00 3.621023e+00 -5.950635e+00 1.252498e-04 -9.090397e-05 -1.455454e-04
N -6.454418e+00 3.665501e+00 -8.286876e-01 -1.834882e-04 -4.247371e-05 -1.036729e-04
N -3.216051e+00 -1.887617e+00 4.395624e+00 8.491818e-05 -2.574627e-04 -2.385465e-04
N -3.217425e+00 -1.888269e+00 -5.935637e+00 1.347276e-04 -1.682683e-04 -1.853584e-04
N -3.261950e+00 -1.910012e+00 -7.781663e-01 1.751208e-05 -2.241929e-04 -4.843743e-04
N -1.578910e+00 9.110762e-01 4.432712e+00 2.682158e-04 -2.039607e-04 -5.938344e-05
N -1.617217e+00 8.820841e-01 -5.928631e+00 3.615667e-04 -2.891895e-04 4.561862e-05
N -1.615952e+00 8.895474e-01 -7.636816e-01 4.213554e-04 -2.461731e-04 -1.976664e-04
N -3.223418e+00 3.654802e+00 4.412168e+00 8.135667e-05 -1.148753e-04 6.381749e-05
N -3.263913e+00 3.677049e+00 -5.973135e+00 4.448725e-05 -1.584889e-04 1.567168e-05
N -3.215803e+00 3.653708e+00 -7.663992e-01 1.706068e-04 -1.449721e-04 2.567451e-05
N -1.705603e-02 -1.884187e+00 4.411672e+00 3.345652e-04 -3.985289e-04 1.066620e-04
N -2.351086e-02 -1.930885e+00 -5.969248e+00 3.900588e-04 -3.312599e-04 4.666576e-05
N -1.386400e-02 -1.881761e+00 -8.370920e-01 3.282811e-04 -3.509660e-04 8.669846e-06
N 2.445827e-02 1.825809e+00 1.838555e+00 -9.159160e-05 3.623337e-04 3.638425e-05
N 2.602498e-02 1.829646e+00 6.951318e+00 -1.534625e-04 3.938596e-04 -1.073299e-04
N 2.309116e-02 1.832567e+00 -3.331880e+00 -3.006257e-04 3.704508e-04 -1.154435e-04
N 3.222378e+00 -3.706986e+00 1.855186e+00 7.618146e-05 2.648124e-04 -7.651077e-04
N 3.176845e+00 -3.725409e+00 7.030138e+00 2.758452e-05 2.539769e-04 1.671472e-05
N 3.221691e+00 -3.752413e+00 -3.352094e+00 -4.738561e-06 2.535549e-04 -3.137046e-05
N 1.615296e+00 -9.329129e-01 1.844983e+00 -2.389188e-04 3.236081e-04 -1.449817e-03
N 1.577850e+00 -9.575294e-01 7.040037e+00 -2.119187e-04 2.504877e-04 1.784809e-05
N 1.537179e+00 -9.380830e-01 -3.340471e+00 -4.096420e-04 2.624884e-04 1.209570e-05
N 3.161889e+00 1.801763e+00 1.860490e+00 1.743320e-04 2.181138e-04 -1.148131e-03
N 3.127746e+00 1.835182e+00 6.998541e+00 -2.690719e-04 2.783742e-04 -3.483574e-04
N 3.125801e+00 1.830129e+00 -3.387984e+00 -2.087301e-04 3.304535e-04 -1.080531e-04
N 6.366791e+00 -3.780324e+00 1.768420e+00 -4.515074e-05 -8.496326e-05 -4.866658e-05
N 6.376117e+00 -3.780374e+00 7.012780e+00 1.143470e-05 3.552918e-05 -2.966517e-04
N 6.366556e+00 -3.726745e+00 -3.315329e+00 2.542525e-05 1.849247e-04 -3.306268e-04
N 4.730268e+00 -9.391012e-01 1.787121e+00 -2.376324e-04 3.357079e-05 1.390437e-04
N 4.725958e+00 -9.816162e-01 6.994667e+00 -2.503772e-04 1.386272e-04 -1.730380e-04
N 4.813911e+00 -9.898362e-01 -3.336342e+00 -3.324545e-05 6.993781e-05 -5.468948e-05
N -3.261573e+00 1.777234e+00 1.839575e+00 -6.794606e-05 2.252164e-04 1.501854e-03
N -3.224010e+00 1.852636e+00 7.013426e+00 -2.035585e-04 3.909588e-04 2.502058e-04
N -3.220901e+00 1.804635e+00 -3.356986e+00 -1.718021e-04 2.961449e-04 1.470649e-04
N -6.911957e-02 -3.750214e+00 1.815557e+00 -6.160903e-05 2.240395e-04 -6.237687e-05
N -2.870471e-02 -3.727703e+00 7.042326e+00 -8.741672e-05 2.088581e-04 3.016949e-05
N -6.604151e-02 -3.704816e+00 -3.395370e+00 -2.240980e-04 3.168296e-04 -6.618518e-05
N -1.617899e+00 -9.642913e-01 1.803472e+00 -2.219041e-04 2.974824e-04 1.964402e-03
N -1.572418e+00 -9.858230e-01 7.011165e+00 -2.820337e-04 8.217408e-05 1.055001e-04
N -1.623545e+00 -1.014870e+00 -3.311996e+00 -3.342287e-04 2.460468e-04 3.117689e-05
