108
Energy=-619761.994776 Lattice="9.476278 0.000000 0.000000 -4.738139 8.206697 0.000000 0.000000 0.000000 15.313968" Stress="0.000082 0.000027 -0.000001 0.000027 0.000111 -0.000002 -0.000001 -0.000002 0.000155" Properties=species:S:1:pos:R:3:forces:R:3
Al 1.564294 0.903146 2.504900 -0.001154 -0.014223 -0.011895
Al 1.564294 0.903146 7.521855 -0.001372 -0.014085 -0.006150
Al 1.564294 0.903146 -2.775158 -0.001312 -0.014057 -0.006280
Al 0.000000 3.612582 2.504900 -0.002993 -0.001316 -0.010767
Al 0.000000 3.612582 7.521855 -0.002889 -0.001296 -0.004371
Al 0.000000 3.612582 -2.775158 -0.002743 -0.001235 -0.005118
Al 3.173845 -1.884678 2.504900 -0.002952 0.001694 -0.012139
Al 3.173845 -1.884678 7.521855 -0.002896 0.001442 -0.005398
Al 3.173845 -1.884678 -2.775158 -0.002903 0.001479 -0.005672
Al -4.783396 0.903146 2.504900 0.001335 -0.013107 -0.010650
Al -4.783396 0.903146 7.521855 0.001382 -0.012920 -0.004962
Al -4.783396 0.903146 -2.775158 0.001399 -0.012879 -0.005129
Al -6.347690 3.612582 2.504900 0.000037 -0.000052 -0.009483
Al -6.347690 3.612582 7.521855 -0.000405 -0.000049 -0.003168
Al -6.347690 3.612582 -2.775158 -0.000547 -0.000013 -0.003917
Al -3.173845 -1.884678 2.504900 -0.000297 0.003267 -0.011077
Al -3.173845 -1.884678 7.521855 -0.000764 0.002764 -0.003753
Al -3.173845 -1.884678 -2.775158 -0.000617 0.002687 -0.004976
Al -1.654808 0.903146 2.504900 0.013722 -0.008091 -0.012082
Al -1.654808 0.903146 7.521855 0.013673 -0.007552 -0.006498
Al -1.654808 0.903146 -2.775158 0.013610 -0.007528 -0.006993
Al -3.219102 3.612582 2.504900 0.012000 0.005362 -0.010637
Al -3.219102 3.612582 7.521855 0.012183 0.005188 -0.004956
Al -3.219102 3.612582 -2.775158 0.012154 0.005119 -0.005163
Al -0.045257 -1.884678 2.504900 0.011642 0.008176 -0.011980
Ga -0.045257 -1.884678 7.521855 0.014893 0.010668 -0.005969
Ga -0.045257 -1.884678 -2.775158 0.014812 0.010680 -0.006769
Al 0.000000 1.806291 5.013378 -0.011596 -0.008270 -0.006542
Al 0.000000 1.806291 -5.283635 -0.011706 -0.008199 -0.006279
Al 0.000000 1.806291 -0.266680 -0.011676 -0.008498 0.033021
Al 3.173845 -3.690969 5.013378 -0.012008 -0.005354 -0.005324
Al 3.173845 -3.690969 -5.283635 -0.011961 -0.005326 -0.005176
Al 3.173845 -3.690969 -0.266680 -0.012132 -0.005130 0.034126
Al 1.609551 -0.981532 5.013378 -0.013642 0.007972 -0.007526
Al 1.609551 -0.981532 -5.283635 -0.013823 0.007724 -0.006857
Al 1.609551 -0.981532 -0.266680 -0.013743 0.007880 0.032333
Al 3.128588 1.806291 5.013378 0.000362 -0.003121 -0.004956
Al 3.128588 1.806291 -5.283635 0.000310 -0.003068 -0.004522
Al 3.128588 1.806291 -0.266680 0.000259 -0.003453 0.035049
Al 6.302433 -3.690969 5.013378 0.000177 -0.000422 -0.003416
Al 6.302433 -3.690969 -5.283635 0.000191 -0.000117 -0.003217
Ga 6.302433 -3.690969 -0.266680 0.000221 -0.000070 0.047961
Al 4.738139 -0.981532 5.013378 -0.001568 0.013232 -0.005504
Al 4.738139 -0.981532 -5.283635 -0.001373 0.013001 -0.005195
Al 4.738139 -0.981532 -0.266680 -0.001598 0.013116 0.034204
Al -3.219102 1.806291 5.013378 0.002738 -0.001733 -0.005879
Al -3.219102 1.806291 -5.283635 0.003043 -0.001731 -0.005604
Al -3.219102 1.806291 -0.266680 0.003147 -0.001864 0.033854
Al -0.045257 -3.690969 5.013378 0.002836 0.001024 -0.004956
Al -0.045257 -3.690969 -5.283635 0.002882 0.001249 -0.004235
Al -0.045257 -3.690969 -0.266680 0.003103 0.001382 0.035570
Ga -1.609551 -0.981532 5.013378 0.001983 0.018243 -0.007614
Al -1.609551 -0.981532 -5.283635 0.001323 0.014283 -0.005883
Al -1.609551 -0.981532 -0.266680 0.001419 0.014416 0.033959
N 1.564294 0.903146 4.418497 -0.000758 -0.013647 0.006328
N 1.564294 0.903146 -5.878516 -0.000613 -0.013580 0.005827
N 1.564294 0.903146 -0.861561 -0.000511 -0.013390 0.007069
N 0.000000 3.612582 4.418497 -0.002039 0.000185 0.003909
N 0.000000 3.612582 -5.878516 -0.001997 0.000001 0.003516
N 0.000000 3.612582 -0.861561 -0.020690 -0.010867 -0.002258
N 3.173845 -1.884678 4.418497 -0.002492 0.001350 0.003348
N 3.173845 -1.884678 -5.878516 -0.002507 0.001473 0.003039
N 3.173845 -1.884678 -0.861561 -0.002324 0.001341 0.004478
N -4.783396 0.903146 4.418497 0.000997 -0.013523 0.007014
N -4.783396 0.903146 -5.878516 0.000797 -0.013440 0.006250
N -4.783396 0.903146 -0.861561 0.000948 -0.013213 0.007341
N -6.347690 3.612582 4.418497 -0.000616 0.000491 0.004302
N -6.347690 3.612582 -5.878516 -0.000487 0.000254 0.003628
N -6.347690 3.612582 -0.861561 0.018377 -0.010491 -0.001904
N -3.173845 -1.884678 4.418497 -0.020332 -0.009239 -0.004151
N -3.173845 -1.884678 -5.878516 -0.000983 0.001774 0.003312
N -3.173845 -1.884678 -0.861561 -0.000866 0.023356 -0.002436
N -1.654808 0.903146 4.418497 0.013142 0.010100 0.003172
N -1.654808 0.903146 -5.878516 0.013567 -0.007833 0.008699
N -1.654808 0.903146 -0.861561 0.013421 -0.007836 0.009426
N -3.219102 3.612582 4.418497 0.012188 0.005993 0.006673
N -3.219102 3.612582 -5.878516 0.012011 0.005999 0.006066
N -3.219102 3.612582 -0.861561 0.011787 0.005867 0.007223
N -0.045257 -1.884678 4.418497 0.030307 -0.003436 -0.002355
N -0.045257 -1.884678 -5.878516 0.011616 0.007518 0.028712
N -0.045257 -1.884678 -0.861561 0.011488 0.007249 0.030608
N 0.000000 1.806291 1.910020 -0.011669 -0.007519 -0.028851
N 0.000000 1.806291 6.926975 -0.011525 -0.007552 0.005899
N 0.000000 1.806291 -3.370038 -0.011507 -0.007519 0.005847
N 3.173845 -3.690969 1.910020 -0.012271 -0.006075 -0.028084
N 3.173845 -3.690969 6.926975 -0.012153 -0.005882 0.006260
N 3.173845 -3.690969 -3.370038 -0.012226 -0.005859 0.006330
N 1.609551 -0.981532 1.910020 -0.013833 0.008096 -0.025488
N 1.609551 -0.981532 6.926975 0.002040 0.016423 0.002590
N 1.609551 -0.981532 -3.370038 0.002138 0.016435 0.002873
N 3.128588 1.806291 1.910020 0.001040 -0.001869 -0.031308
N 3.128588 1.806291 6.926975 0.001167 -0.001698 0.003361
N 3.128588 1.806291 -3.370038 0.001193 -0.001785 0.003412
N 6.302433 -3.690969 1.910020 0.000462 -0.000365 -0.019229
N 6.302433 -3.690969 6.926975 0.000754 0.000013 0.003805
N 6.302433 -3.690969 -3.370038 0.000634 -0.000103 0.003294
N 4.738139 -0.981532 1.910020 -0.000956 0.013706 -0.028233
N 4.738139 -0.981532 6.926975 -0.000650 0.013547 0.006065
N 4.738139 -0.981532 -3.370038 -0.000855 0.013561 0.006277
N -3.219102 1.806291 1.910020 0.002749 -0.001492 -0.032094
N -3.219102 1.806291 6.926975 0.002446 -0.001600 0.002932
N -3.219102 1.806291 -3.370038 0.002429 -0.001486 0.003024
N -0.045257 -3.690969 1.910020 0.002230 -0.000025 -0.031380
N -0.045257 -3.690969 6.926975 0.002127 -0.022013 -0.004690
N -0.045257 -3.690969 -3.370038 0.002248 -0.022047 -0.004545
N -1.609551 -0.981532 1.910020 0.000733 0.013979 -0.029638
N -1.609551 -0.981532 6.926975 -0.018127 0.024771 0.021357
N -1.609551 -0.981532 -3.370038 -0.018217 0.024619 -0.002061
