108
Energy=-1718377.719951 Lattice="9.549026 0.000000 0.000000 -4.775372 8.270261 0.000000 -0.000555 -0.001236 15.437567" Stress="-0.000002 0.000000 0.000000 0.000000 -0.000001 0.000000 -0.000000 0.000000 -0.000005" Properties=species:S:1:pos:R:3:forces:R:3
Al 1.566856 0.872105 2.414288 0.000063 -0.000137 0.000028
Al 1.559982 0.879190 7.599996 0.000022 -0.000025 0.000031
Al 1.564401 0.875027 -2.743193 -0.000209 -0.000832 -0.000877
Al -0.035541 3.632646 2.428543 0.000890 -0.000283 -0.000403
Al -0.036295 3.630197 7.583662 -0.000190 0.000163 -0.000083
Ga -0.009923 3.628391 -2.735726 -0.000025 0.000043 0.000011
Al 3.155360 -1.874726 2.419430 -0.000204 0.000394 -0.000435
Ga 3.138206 -1.896897 7.577666 -0.000016 -0.000266 -0.000080
Ga 3.135346 -1.872890 -2.719192 -0.000014 0.000023 -0.000033
Al -4.796904 0.876205 2.424510 0.000086 -0.000119 0.000286
Ga -4.802733 0.894564 7.570372 -0.000168 -0.000157 -0.000001
Ga -4.814667 0.888959 -2.708857 0.000060 -0.000040 0.000022
Ga -6.388907 3.625792 2.437262 -0.000224 -0.000000 0.000046
Ga -6.385642 3.633803 7.577689 0.000013 0.000050 -0.000021
Al -6.400656 3.635899 -2.736927 0.000041 0.000078 -0.000025
Ga -3.210899 -1.870321 2.405123 -0.000005 -0.000002 0.000001
Ga -3.194772 -1.885013 7.570401 -0.000048 -0.000011 0.000013
Ga -3.191342 -1.895730 -2.689368 0.000000 0.000022 0.000019
Al -1.613241 0.883522 2.442999 -0.000457 -0.000108 0.000384
Ga -1.604361 0.885010 7.551478 0.000210 -0.000119 0.000129
Ga -1.592824 0.876430 -2.717189 0.000034 -0.000020 -0.000010
Al -3.197979 3.629403 2.460467 0.001561 0.000904 -0.000051
Al -3.195891 3.644515 7.536735 0.000058 0.000521 -0.000483
Ga -3.210154 3.647599 -2.719769 0.000008 0.000008 0.000028
Ga -0.011407 -1.865418 2.428184 0.000145 0.000127 0.000029
Al -0.014661 -1.877870 7.553433 0.000058 0.000014 0.000098
Al -0.012195 -1.868011 -2.705710 0.000010 0.000036 -0.000142
Ga -0.029569 1.801949 4.992386 0.000049 -0.000172 0.000020
Al -0.001466 1.808567 -5.311950 0.000031 0.000017 0.000025
Ga -0.012673 1.786912 -0.124268 -0.000076 0.000153 0.000114
Al 3.154511 -3.723870 4.974293 -0.000932 -0.000477 0.002036
Al 3.167057 -3.721971 -5.317502 0.000065 0.000044 -0.000071
Ga 3.170062 -3.700596 -0.108973 -0.000009 0.000041 0.000166
Ga 1.562753 -0.963880 5.001877 -0.000087 0.000044 0.000078
Al 1.559723 -0.947858 -5.302488 -0.000352 -0.000107 -0.000249
Al 1.566815 -0.951491 -0.147877 0.000358 0.000026 0.000956
Ga 3.165024 1.793244 4.991631 0.000216 -0.000090 -0.000038
Al 3.133161 1.798969 -5.281391 -0.000062 0.000004 -0.000007
Ga 3.144548 1.791615 -0.147510 0.000102 0.000034 0.000156
Ga 6.336019 -3.713630 5.003579 0.000177 0.000048 0.000055
Al 6.332900 -3.733250 -5.298050 -0.000014 -0.000007 0.000003
Al 6.345494 -3.710751 -0.141214 -0.000071 0.000003 0.000147
Ga 4.753206 -0.957007 4.978270 0.000116 0.000330 0.000020
Ga 4.740597 -0.967548 -5.289529 -0.000013 -0.000055 -0.000008
Al 4.748189 -0.965842 -0.123432 -0.000023 -0.000020 0.000123
Al -3.199680 1.809801 4.974433 -0.001257 -0.000812 -0.002033
Ga -3.200012 1.815659 -5.308490 0.000019 -0.000026 0.000134
Ga -3.201831 1.785645 -0.101958 -0.000020 0.000005 0.000022
Al -0.002928 -3.712754 5.007129 0.000014 -0.000047 0.000123
Ga -0.016736 -3.704857 -5.297062 -0.000037 0.000105 0.000007
Ga -0.033742 -3.699327 -0.153050 0.000017 -0.000048 -0.000008
Al -1.608895 -0.956481 4.994501 -0.000025 0.000017 -0.000024
Ga -1.595135 -0.965397 -5.287085 0.000051 -0.000053 0.000001
Al -1.608025 -0.963043 -0.144520 -0.000087 0.000004 0.000058
N 1.566315 0.874639 4.316413 -0.000088 0.000017 0.000009
N 1.571182 0.878712 -5.911244 -0.000009 0.000026 -0.000044
N 1.563544 0.830836 -0.821501 0.000020 -0.000012 0.000317
N -0.062935 3.659975 4.337629 0.000594 -0.000257 -0.000460
N -0.025982 3.637733 -5.921431 0.000012 -0.000034 0.000073
N 0.014177 3.656355 -0.753339 0.000055 -0.000073 -0.000073
N 3.153836 -1.923726 4.340263 0.000096 0.000515 -0.000232
N 3.111516 -1.902763 -5.880527 0.000109 -0.000004 0.000046
N 3.155970 -1.832288 -0.730292 -0.000023 0.000045 -0.000178
N -4.758586 0.901883 4.336637 0.000818 0.000504 0.000468
N -4.843157 0.908369 -5.892319 0.000045 0.000046 -0.000082
N -4.796295 0.834140 -0.734604 -0.000010 0.000009 -0.000027
N -6.345480 3.664040 4.408969 -0.000034 0.000055 -0.000040
N -6.424818 3.612003 -5.877638 -0.000002 -0.000019 0.000025
N -6.435164 3.657649 -0.809714 0.000014 0.000003 -0.000034
N -3.160713 -1.855875 4.379437 -0.000018 -0.000068 -0.000016
N -3.200455 -1.924581 -5.895380 -0.000013 0.000014 -0.000006
N -3.206160 -1.879971 -0.693502 0.000036 0.000027 -0.000042
N -1.651643 0.851437 4.369372 0.000171 0.000127 -0.000007
N -1.570695 0.901135 -5.908605 -0.000006 0.000029 -0.000077
N -1.611702 0.837876 -0.743406 0.000031 -0.000032 0.000000
N -3.206694 3.640570 4.384660 -0.000017 -0.000029 -0.000138
N -3.166677 3.665488 -5.978533 -0.000050 -0.000162 0.000197
N -3.198286 3.634232 -0.754771 0.000010 0.000004 -0.000014
N -0.062041 -1.901195 4.407042 -0.000017 -0.000036 -0.000039
N 0.018028 -1.854515 -5.969493 0.000177 0.000066 0.000065
N -0.015632 -1.824458 -0.779169 -0.000224 -0.000100 -0.000182
N -0.024339 1.795593 1.864993 0.000141 0.000356 0.000006
N 0.025716 1.825043 6.979115 -0.000017 0.000001 -0.000008
N 0.020440 1.776947 -3.392131 -0.000004 -0.000037 -0.000030
N 3.159301 -3.714856 1.871574 -0.001506 -0.000681 0.000345
N 3.168055 -3.764989 6.912561 0.000147 0.000083 -0.000886
N 3.162557 -3.716829 -3.403785 -0.000023 -0.000030 -0.000040
N 1.607698 -0.933730 1.779012 0.000005 -0.000045 -0.000538
N 1.530356 -0.925567 6.981064 -0.000003 0.000057 -0.000087
N 1.520538 -0.937196 -3.375352 0.000037 0.000707 0.000660
N 3.156994 1.751884 1.833445 -0.000028 0.000062 -0.000147
N 3.109846 1.770099 6.962050 0.000021 0.000017 0.000040
N 3.114138 1.820886 -3.354295 0.000101 0.000108 0.000040
N 6.304785 -3.746523 1.773584 -0.000174 -0.000168 0.000141
N 6.296501 -3.746032 6.972097 0.000017 -0.000047 -0.000045
N 6.380630 -3.735405 -3.383824 0.000030 -0.000011 0.000003
N 4.706177 -0.935190 1.796956 0.000029 0.000017 -0.000054
N 4.744333 -0.960416 6.950246 0.000014 0.000030 -0.000005
N 4.755437 -0.964032 -3.323726 -0.000006 0.000037 -0.000020
N -3.202133 1.801897 1.883821 0.000029 -0.000276 -0.000280
N -3.208140 1.843729 6.894048 0.000057 0.000153 0.001286
N -3.204222 1.799774 -3.342502 -0.000013 0.000001 -0.000038
N 0.022574 -3.739507 1.822215 -0.000320 0.000042 -0.000149
N 0.020257 -3.691782 6.933260 0.000038 -0.000215 0.000080
N -0.063047 -3.683313 -3.304624 -0.000006 -0.000047 -0.000001
N -1.606271 -0.907100 1.768247 -0.000005 -0.000030 -0.000045
N -1.572600 -0.981346 6.909528 -0.000066 0.000007 -0.000027
N -1.570970 -0.987757 -3.314030 -0.000022 0.000023 0.000009
