108
Energy=-5.282153e+05 Lattice="9.407582e+00 0.000000e+00 0.000000e+00 -4.704072e+00 8.147487e+00 0.000000e+00 -2.474221e-05 -3.923822e-04 1.508111e+01" Stress="-3.145934e-07 1.325307e-05 -3.204583e-07 1.297526e-05 -6.719403e-06 -2.804618e-05 -1.021376e-06 -3.020300e-05 8.442273e-06" Properties=species:S:1:pos:R:3:forces:R:3 Config_type=AlGaN_super3_2_1_20.xyz
Al 1.545803e+00 8.660748e-01 2.367099e+00 -1.197661e-05 3.142811e-05 4.502179e-05
Al 1.543698e+00 8.671275e-01 7.391219e+00 9.286083e-06 1.721761e-05 6.672232e-06
Al 1.546645e+00 8.657886e-01 -2.669338e+00 3.622219e-05 2.578152e-05 1.427413e-05
Al -2.240713e-02 3.582322e+00 2.367274e+00 -1.887460e-06 3.090329e-05 6.765508e-06
Al -2.236924e-02 3.579844e+00 7.391318e+00 1.855445e-06 6.250461e-06 -7.860385e-06
Al -2.237180e-02 3.583631e+00 -2.669404e+00 4.263819e-07 1.716676e-05 -1.860853e-06
Al 3.105901e+00 -1.854446e+00 2.381481e+00 2.140944e-04 1.056824e-04 4.478043e-06
Al 3.115078e+00 -1.849161e+00 7.390415e+00 -1.846580e-06 4.937980e-06 -9.362101e-06
Al 3.108395e+00 -1.852571e+00 -2.679975e+00 1.128957e-05 1.448973e-05 -4.062358e-06
Al -4.726403e+00 8.749978e-01 2.381474e+00 7.405716e-05 -1.589306e-04 -3.646486e-05
Al -4.726414e+00 8.647532e-01 7.390482e+00 4.382069e-06 1.458394e-05 -8.049360e-06
Al -4.726302e+00 8.728641e-01 -2.679803e+00 -9.462284e-05 -1.958537e-05 -6.707309e-05
Al -6.301447e+00 3.577995e+00 2.381626e+00 -4.535873e-05 1.664842e-06 6.235154e-05
Al -6.293508e+00 3.582446e+00 7.390577e+00 -3.818647e-06 2.689823e-06 2.796055e-07
Al -6.299830e+00 3.579146e+00 -2.679569e+00 1.105395e-06 8.913839e-06 3.736247e-05
Al -3.150494e+00 -1.854265e+00 2.381596e+00 -5.722293e-05 4.254542e-05 1.385255e-05
Al -3.159307e+00 -1.849071e+00 7.390453e+00 3.266269e-06 4.178069e-06 -5.199507e-06
Al -3.152810e+00 -1.852486e+00 -2.679938e+00 6.326098e-06 -1.382562e-06 1.693190e-05
Al -1.590873e+00 8.662360e-01 2.367142e+00 -8.593829e-05 4.182541e-05 -1.413509e-05
Al -1.588879e+00 8.673391e-01 7.391279e+00 1.095451e-05 5.580254e-06 -1.154413e-06
Al -1.591717e+00 8.659729e-01 -2.669541e+00 1.698457e-05 3.209868e-06 -3.097463e-05
Al -3.151611e+00 3.578173e+00 2.382030e+00 1.696597e-05 -8.425113e-05 -8.494307e-05
Al -3.159311e+00 3.582586e+00 7.390535e+00 1.601142e-06 -7.915555e-06 -9.096909e-06
Al -3.153051e+00 3.579427e+00 -2.679795e+00 -8.131449e-06 1.498461e-05 -1.333554e-05
Al -2.246710e-02 -1.841602e+00 2.381334e+00 -3.337482e-05 -1.913089e-05 4.378554e-05
Al -2.232971e-02 -1.850555e+00 7.390506e+00 -1.130776e-07 -2.993334e-06 1.528693e-06
Al -2.235981e-02 -1.843014e+00 -2.679443e+00 2.189120e-07 -3.464876e-06 7.337273e-06
Al -2.250864e-02 1.771388e+00 4.877699e+00 -1.181468e-05 2.368572e-05 -5.080998e-06
Al -2.249866e-02 1.771722e+00 -5.177130e+00 -4.756177e-06 2.078079e-05 -5.749829e-06
Al -2.256860e-02 1.771781e+00 -1.546559e-01 -1.025499e-05 4.428388e-05 7.844305e-06
Al 3.115025e+00 -3.661757e+00 4.886620e+00 -6.433503e-07 2.870149e-05 -8.282896e-07
Al 3.115020e+00 -3.660758e+00 -5.185518e+00 1.809011e-07 1.834617e-05 -5.589482e-06
Al 3.117716e+00 -3.667025e+00 -1.499922e-01 -5.193976e-05 -1.741697e-05 6.955029e-05
Al 1.545259e+00 -9.427659e-01 4.886436e+00 -5.988097e-06 1.449432e-05 2.835310e-05
Al 1.545848e+00 -9.427175e-01 -5.185475e+00 -1.485319e-05 7.851682e-06 7.281403e-06
Al 1.541653e+00 -9.371484e-01 -1.495397e-01 -1.565872e-05 -8.559498e-06 -1.210178e-04
Al 3.111456e+00 1.771055e+00 4.886516e+00 -1.295022e-05 1.185750e-05 1.271304e-05
Al 3.111962e+00 1.771044e+00 -5.185468e+00 -1.484245e-05 1.889215e-06 1.501723e-05
Al 3.104676e+00 1.772021e+00 -1.491304e-01 6.366305e-05 2.641648e-05 -2.255017e-04
Al 6.248152e+00 -3.661614e+00 4.886616e+00 -1.394863e-05 6.723843e-06 1.648683e-05
Al 6.248115e+00 -3.660638e+00 -5.185485e+00 -1.288385e-05 2.304878e-06 1.828007e-06
Al 6.245327e+00 -3.666685e+00 -1.495865e-01 1.879672e-05 -1.261745e-05 -1.321571e-04
Al 4.681564e+00 -9.444147e-01 4.878237e+00 -2.317600e-05 -5.203693e-06 -3.699709e-05
Al 4.681596e+00 -9.440883e-01 -5.178906e+00 -2.249584e-05 -7.788034e-06 -1.891268e-06
Ga 4.681229e+00 -9.444348e-01 -1.478139e-01 3.617614e-05 -7.198135e-05 1.970643e-04
Al -3.156818e+00 1.771152e+00 4.886508e+00 -2.819093e-05 -1.080307e-05 -4.045001e-05
Al -3.157382e+00 1.771163e+00 -5.185586e+00 -1.724304e-05 -4.055440e-06 -2.872030e-05
Al -3.150767e+00 1.771858e+00 -1.512650e-01 -2.181443e-05 6.293722e-05 5.343473e-04
Al -2.242505e-02 -3.660155e+00 4.878854e+00 -3.136078e-05 3.292536e-06 3.296153e-06
Al -2.248298e-02 -3.659832e+00 -5.179953e+00 -1.780784e-05 2.335607e-06 -5.393110e-06
Ga -2.249772e-02 -3.659903e+00 -1.477755e-01 -4.708644e-05 -3.765111e-05 -1.867053e-05
Al -1.589767e+00 -9.425327e-01 4.886408e+00 -3.593757e-05 -1.927619e-06 1.474767e-05
Al -1.590347e+00 -9.425034e-01 -5.185518e+00 -2.706697e-05 -1.039957e-05 -1.010799e-06
Al -1.586388e+00 -9.368423e-01 -1.496659e-01 -3.044618e-05 -7.106684e-05 -6.308092e-05
N 1.545936e+00 8.659650e-01 4.284550e+00 4.047228e-05 -1.284373e-05 -3.221869e-05
N 1.543267e+00 8.677791e-01 -5.776765e+00 3.488436e-05 -6.301161e-06 -6.488225e-06
N 1.545807e+00 8.663283e-01 -7.486115e-01 9.173357e-06 -4.460261e-05 2.011835e-06
N -2.241000e-02 3.582495e+00 4.284562e+00 2.936742e-05 -1.066644e-05 -7.155445e-06
N -2.243538e-02 3.579745e+00 -5.776757e+00 1.450392e-05 -1.032971e-05 4.055443e-06
N -2.244916e-02 3.582914e+00 -7.487473e-01 2.507918e-05 -2.069464e-05 -1.385841e-05
N 3.109473e+00 -1.852336e+00 4.294627e+00 2.226265e-05 -1.761124e-05 3.041631e-06
N 3.114853e+00 -1.848926e+00 -5.775527e+00 2.594875e-05 -6.559195e-06 5.723431e-06
N 3.070729e+00 -1.874236e+00 -7.670828e-01 5.701581e-05 -8.700023e-06 1.938245e-05
N -4.726580e+00 8.710729e-01 4.294529e+00 2.119053e-05 1.565617e-05 3.940079e-05
N -4.726527e+00 8.652665e-01 -5.775490e+00 2.779777e-05 6.768176e-06 -1.758950e-06
N -4.727233e+00 9.161348e-01 -7.672054e-01 1.388926e-04 -1.883852e-05 2.954211e-05
N -6.298530e+00 3.579649e+00 4.294630e+00 1.598494e-05 -1.450514e-05 -2.389707e-05
N -6.293596e+00 3.582749e+00 -5.775675e+00 2.029485e-05 -3.055856e-06 1.102393e-06
N -6.336266e+00 3.558295e+00 -7.684971e-01 3.824347e-05 1.137366e-05 -2.781748e-05
N -3.153986e+00 -1.852313e+00 4.294651e+00 3.296297e-05 -1.324355e-05 1.031327e-05
N -3.159279e+00 -1.848883e+00 -5.775507e+00 2.519815e-05 1.800245e-06 6.669764e-06
N -3.115518e+00 -1.873993e+00 -7.669695e-01 -1.255402e-05 1.507966e-05 -3.281962e-05
N -1.591323e+00 8.660808e-01 4.284473e+00 3.457471e-05 -2.632661e-05 1.236909e-05
N -1.588696e+00 8.679284e-01 -5.776738e+00 2.706830e-05 -1.004824e-05 7.237558e-06
N -1.591186e+00 8.664799e-01 -7.489826e-01 -2.679324e-05 -4.308973e-05 1.667542e-05
N -3.154559e+00 3.579775e+00 4.294794e+00 4.618726e-06 -1.017819e-05 1.828313e-05
N -3.159529e+00 3.582889e+00 -5.775711e+00 1.435428e-05 -1.733351e-05 1.185625e-05
N -3.117045e+00 3.558549e+00 -7.689893e-01 3.661979e-06 -2.072928e-05 2.066107e-05
N -2.252937e-02 -1.845054e+00 4.294492e+00 2.694752e-05 -2.597434e-05 -3.942554e-05
N -2.254076e-02 -1.850377e+00 -5.775694e+00 3.211424e-05 -1.509666e-05 -2.521145e-06
N -2.254935e-02 -1.801261e+00 -7.684349e-01 1.720193e-05 -4.553510e-05 -2.334933e-05
N -2.240131e-02 1.771802e+00 1.768702e+00 2.570396e-05 -2.587146e-05 -6.541153e-06
N -2.236504e-02 1.771584e+00 6.792714e+00 -1.543977e-05 7.503760e-06 4.168847e-06
N -2.232934e-02 1.771905e+00 -3.259363e+00 -1.621884e-05 1.351774e-05 2.672671e-06
N 3.113054e+00 -3.660343e+00 1.772024e+00 4.637802e-05 5.846522e-05 -8.037392e-05
N 3.114670e+00 -3.660794e+00 6.800181e+00 -3.854712e-06 8.351707e-06 9.243036e-06
N 3.116539e+00 -3.661209e+00 -3.273100e+00 8.499195e-06 -8.406773e-07 -1.254030e-06
N 1.545576e+00 -9.450323e-01 1.771586e+00 1.814534e-05 6.345054e-05 1.168256e-04
N 1.545993e+00 -9.436383e-01 6.800121e+00 -1.908173e-05 -3.119353e-07 -6.165228e-06
N 1.546110e+00 -9.411661e-01 -3.272967e+00 -2.533205e-05 7.765767e-07 -5.203506e-06
N 3.113788e+00 1.772221e+00 1.771699e+00 -7.865884e-05 -3.034091e-05 1.405328e-04
N 3.112517e+00 1.771147e+00 6.800121e+00 -1.664820e-05 -2.776771e-06 -8.930194e-07
N 3.110778e+00 1.770324e+00 -3.273005e+00 -2.564091e-05 -6.640092e-06 -4.216268e-05
N 6.250051e+00 -3.660039e+00 1.771515e+00 -2.342500e-05 -1.481488e-05 1.418394e-04
N 6.248695e+00 -3.660661e+00 6.800182e+00 -7.591797e-06 -8.065419e-06 3.395519e-06
N 6.246757e+00 -3.661148e+00 -3.273061e+00 5.418107e-07 -6.980812e-06 -1.049567e-05
N 4.682068e+00 -9.448501e-01 1.833847e+00 -2.754317e-04 8.908246e-05 -1.938362e-04
N 4.681685e+00 -9.444246e-01 6.794590e+00 -1.567610e-05 -1.759754e-05 3.180256e-06
N 4.681605e+00 -9.440189e-01 -3.260282e+00 -9.617190e-06 -1.771851e-06 2.828847e-06
N -3.159128e+00 1.772345e+00 1.772264e+00 1.572673e-05 -2.229070e-05 -3.788782e-04
N -3.157807e+00 1.771192e+00 6.800088e+00 -1.046428e-05 2.992485e-06 4.082589e-06
N -3.156015e+00 1.770453e+00 -3.273237e+00 -1.360495e-05 -1.310917e-05 6.740471e-05
N -2.264060e-02 -3.660491e+00 1.833472e+00 4.611856e-05 1.212919e-04 -1.739698e-05
N -2.244073e-02 -3.660125e+00 6.795137e+00 -9.170642e-06 2.462225e-06 7.236808e-06
N -2.245269e-02 -3.659761e+00 -3.261286e+00 -1.856952e-05 -3.127955e-06 6.377184e-07
N -1.590392e+00 -9.449975e-01 1.771623e+00 5.601409e-05 4.381296e-05 7.018414e-05
N -1.590290e+00 -9.434706e-01 6.800083e+00 -2.164564e-05 -6.240121e-06 -4.292489e-06
N -1.590488e+00 -9.410535e-01 -3.273054e+00 -2.192461e-05 -1.215200e-05 -7.215138e-06
