108
Energy=-1352173.809325 Lattice="9.506844 0.000000 0.000000 -4.758894 8.229078 0.000000 0.002194 -0.002121 15.335546" Stress="-0.000000 -0.000002 0.000001 -0.000002 -0.000004 0.000000 0.000001 0.000000 0.000001" Properties=species:S:1:pos:R:3:forces:R:3
Al 1.580661 0.879732 2.409249 0.000077 -0.000259 0.000054
Al 1.577994 0.870543 7.529247 -0.000347 0.000326 -0.000230
Al 1.557158 0.869650 -2.710674 -0.000194 -0.000172 0.000047
Al -0.028581 3.623022 2.417124 -0.000142 0.000055 0.000018
Al -0.013813 3.631342 7.538558 0.000232 0.000448 0.000297
Al -0.034857 3.615084 -2.729327 -0.000877 -0.000856 0.001124
Al 3.159235 -1.866541 2.381295 -0.000334 -0.000537 0.000859
Al 3.149114 -1.869271 7.563939 0.000123 -0.000125 0.000182
Ga 3.143574 -1.872322 -2.730831 0.000371 0.000227 0.000802
Al -4.796474 0.870516 2.387509 -0.000067 -0.000007 -0.000525
Al -4.790584 0.873716 7.529693 0.000059 0.000110 0.000171
Al -4.777602 0.874449 -2.693944 0.000231 -0.000290 0.000091
Ga -6.365194 3.595212 2.422822 0.000502 0.000461 0.000938
Al -6.360432 3.621689 7.513812 -0.000280 -0.000464 0.000213
Ga -6.354451 3.613226 -2.717427 -0.000127 0.000205 0.000495
Ga -3.202793 -1.860981 2.412036 0.000379 -0.000072 0.000629
Al -3.187333 -1.878046 7.534945 -0.000349 -0.000535 0.000764
Ga -3.187990 -1.855400 -2.725485 -0.000087 -0.000188 0.001093
Ga -1.615417 0.878316 2.403052 0.000717 -0.000179 -0.000188
Ga -1.608943 0.868885 7.537552 0.000309 -0.000105 0.000248
Al -1.608683 0.874723 -2.706752 0.000308 -0.000211 -0.000098
Ga -3.192483 3.624397 2.386086 0.000672 -0.000509 0.000961
Al -3.202206 3.633770 7.541119 0.000130 0.000093 0.000138
Al -3.188430 3.621011 -2.707760 0.000014 -0.000021 0.000280
Ga -0.022175 -1.865087 2.414975 0.000381 -0.000341 0.001533
Al -0.018798 -1.877606 7.537265 -0.000256 -0.000118 0.000458
Al -0.018695 -1.863160 -2.730046 -0.000236 -0.000057 -0.000047
Ga -0.002256 1.794632 4.975306 -0.000675 0.000684 0.000345
Ga -0.014277 1.791945 -5.243387 -0.000333 0.000205 0.000112
Ga -0.027727 1.792219 -0.163884 -0.000423 0.000182 -0.000213
Ga 3.154996 -3.693294 4.989057 -0.000206 0.000461 0.000931
Al 3.148297 -3.690345 -5.272692 -0.000257 0.000265 0.000265
Al 3.148066 -3.702056 -0.162068 -0.000326 0.000074 -0.000104
Ga 1.565905 -0.957699 4.981816 -0.000184 0.000511 0.000254
Al 1.556008 -0.966734 -5.267324 -0.000234 -0.000498 -0.000450
Ga 1.565093 -0.962270 -0.156766 -0.001044 0.000523 -0.000243
Al 3.147285 1.795571 4.983267 0.000582 0.000689 0.000879
Ga 3.145913 1.783000 -5.269737 0.000068 0.000463 0.000875
Al 3.160154 1.777850 -0.161016 -0.000309 0.000040 0.000290
Al 6.329364 -3.693982 4.990021 0.000595 -0.002006 0.000903
Al 6.318158 -3.684544 -5.282936 -0.000106 -0.000144 -0.000053
Ga 6.312738 -3.694737 -0.155302 -0.000062 -0.000148 0.000694
Ga 4.735096 -0.952152 4.983909 -0.000519 0.000403 0.000241
Al 4.734860 -0.960198 -5.283076 -0.000174 -0.000908 0.000501
Al 4.733802 -0.939858 -0.150101 -0.000396 0.000195 0.000217
Ga -3.216936 1.793903 4.982916 0.000022 0.000130 0.000107
Ga -3.203878 1.795391 -5.242156 -0.000232 0.000306 0.000672
Al -3.208179 1.788906 -0.184613 0.000254 -0.000241 -0.000501
Al -0.036760 -3.693711 5.004546 0.000060 -0.000424 0.000592
Al -0.017132 -3.679384 -5.274461 -0.000285 -0.000238 0.000448
Al -0.014004 -3.697590 -0.181302 -0.000047 0.000432 0.000290
Al -1.607263 -0.973545 5.000189 -0.000075 0.000390 0.000716
Al -1.602032 -0.974778 -5.259639 -0.000021 -0.000484 0.000099
Al -1.608586 -0.953146 -0.181640 0.000044 0.000199 0.000121
N 1.611546 0.898041 4.327407 -0.000347 -0.000584 -0.000842
N 1.559855 0.825788 -5.903095 0.000176 0.000314 -0.000183
N 1.599977 0.893835 -0.802881 0.000802 -0.000021 -0.000239
N 0.015611 3.648910 4.332430 0.000085 -0.000204 -0.000515
N -0.023577 3.662557 -5.884726 0.000104 0.000324 -0.000169
N -0.067518 3.643494 -0.819152 0.000368 0.000278 -0.000387
N 3.152346 -1.870990 4.296362 0.000319 -0.000104 -0.000633
N 3.144982 -1.867854 -5.851747 0.000153 -0.000132 -0.000375
N 3.190553 -1.892467 -0.745827 0.000725 -0.000210 -0.000599
N -4.823613 0.897905 4.308579 0.000239 -0.000342 0.000395
N -4.776888 0.831472 -5.907247 0.000250 0.000506 -0.000768
N -4.782528 0.869068 -0.773811 0.000318 -0.000143 -0.000383
N -6.358373 3.614977 4.423855 -0.000667 0.000733 -0.000691
N -6.360731 3.662160 -5.893071 0.000113 0.000656 -0.000742
N -6.325540 3.592553 -0.740699 0.000088 -0.000125 -0.000529
N -3.150162 -1.890602 4.398236 0.000133 0.000946 -0.001109
N -3.185625 -1.867568 -5.873793 0.000035 0.000059 -0.000196
N -3.196378 -1.821750 -0.744840 -0.000116 0.000181 -0.000933
N -1.614681 0.828847 4.387072 0.000624 -0.000900 -0.000081
N -1.610728 0.828120 -5.834086 -0.000032 0.000271 -0.000466
N -1.649958 0.852052 -0.789700 -0.000109 0.000147 0.000473
N -3.238024 3.651042 4.369543 -0.000224 -0.000051 -0.000946
N -3.198641 3.666122 -5.881310 0.000292 -0.000202 -0.000497
N -3.191559 3.626035 -0.775675 0.000220 -0.000484 -0.000295
N -0.064026 -1.891892 4.399871 0.000031 -0.000461 -0.000755
N -0.025126 -1.867953 -5.875749 0.000313 0.000014 -0.000328
N -0.061618 -1.889776 -0.808437 0.000305 -0.000340 -0.000184
N 0.019420 1.813444 1.828155 -0.000316 0.000139 0.000013
N 0.021634 1.817938 6.954013 0.000497 -0.000902 -0.000223
N -0.022451 1.787014 -3.262826 0.000266 0.000278 -0.000211
N 3.194190 -3.680626 1.763455 -0.000126 0.000397 -0.000060
N 3.153176 -3.693949 6.976074 -0.000288 0.000208 -0.000194
N 3.146298 -3.747425 -3.355525 -0.000298 -0.000071 -0.000466
N 1.598325 -0.931261 1.825992 0.000097 0.000200 0.000229
N 1.570668 -0.960821 6.970746 -0.000419 0.000162 -0.000441
N 1.522092 -0.931141 -3.348174 -0.000100 0.000227 0.000573
N 3.143805 1.743037 1.760461 -0.000097 -0.000107 -0.000225
N 3.147389 1.787060 6.912587 -0.000085 -0.000027 -0.000101
N 3.146630 1.739366 -3.296559 0.000009 -0.000283 -0.000380
N 6.280172 -3.721397 1.818205 0.000090 -0.000209 -0.000690
N 6.317806 -3.696023 6.919089 -0.000100 0.000060 -0.000321
N 6.279554 -3.720063 -3.366362 0.000517 0.000292 -0.000319
N 4.694541 -0.928964 1.771079 0.000217 0.000577 -0.000023
N 4.729940 -0.957649 6.972443 -0.000147 -0.000159 -0.000180
N 4.732314 -0.902611 -3.371497 -0.000235 0.000355 -0.000400
N -3.238948 1.766165 1.742179 -0.000139 0.000208 -0.000155
N -3.237724 1.817570 6.958716 -0.000154 -0.000157 -0.000449
N -3.199288 1.791950 -3.256529 -0.000236 0.000122 0.000429
N -0.027074 -3.693409 1.731038 -0.000406 0.000022 -0.000957
N -0.016979 -3.695142 6.926292 -0.000116 0.000387 -0.000215
N 0.023649 -3.673472 -3.349341 0.000426 -0.000054 -0.000358
N -1.603889 -0.954661 1.728728 -0.000633 0.000054 -0.000651
N -1.606179 -1.005723 6.913410 0.000846 0.000055 -0.000433
N -1.563380 -0.932311 -3.344947 -0.000195 0.000160 -0.000112
