108
Energy=-2.679663e+06 Lattice="9.675080e+00 0.000000e+00 0.000000e+00 -4.837610e+00 8.378009e+00 0.000000e+00 -4.326415e-04 3.512013e-05 1.570883e+01" Stress="3.905795e-06 4.164328e-06 -2.366488e-06 -1.807560e-06 5.720871e-06 -3.886340e-06 2.080015e-06 2.341781e-06 1.526780e-06" Properties=species:S:1:pos:R:3:forces:R:3 Config_type=AlGaN_super3_49_0_15.xyz
Al 1.605291e+00 8.939318e-01 2.453993e+00 3.329273e-06 -1.089578e-06 1.716428e-06
Ga 1.589813e+00 8.908618e-01 7.694822e+00 5.359281e-07 8.404364e-06 -2.833100e-06
Ga 1.594507e+00 8.936890e-01 -2.738506e+00 5.274833e-06 3.881893e-06 -1.365222e-06
Al -2.344758e-02 3.683465e+00 2.468875e+00 4.648348e-06 -1.332730e-05 3.202335e-06
Ga -2.309376e-02 3.682410e+00 7.698865e+00 7.461242e-06 6.536232e-06 -3.593979e-06
Ga -2.464079e-02 3.682898e+00 -2.753416e+00 1.361903e-06 -7.484139e-06 -9.784923e-06
Al 3.206051e+00 -1.894084e+00 2.467080e+00 -8.714270e-07 -8.486509e-06 9.525456e-06
Ga 3.202071e+00 -1.899996e+00 7.694798e+00 1.149136e-06 5.942490e-06 -5.526085e-06
Ga 3.202103e+00 -1.902352e+00 -2.749828e+00 2.091487e-06 -2.251732e-06 -1.507389e-06
Al -4.882598e+00 8.856811e-01 2.456022e+00 -8.498492e-07 8.436122e-07 3.179138e-06
Ga -4.862729e+00 8.897102e-01 7.699130e+00 1.404398e-06 7.409853e-06 -4.030283e-06
Ga -4.866778e+00 8.929470e-01 -2.742882e+00 -8.046642e-07 -1.765315e-06 2.031383e-06
Ga -6.483072e+00 3.660148e+00 2.457849e+00 -1.623538e-06 4.147872e-06 -5.123267e-06
Ga -6.474967e+00 3.680992e+00 7.696635e+00 5.759664e-07 5.587783e-06 -5.200161e-07
Ga -6.474330e+00 3.675262e+00 -2.739728e+00 -1.837208e-06 -2.143297e-06 -2.900241e-06
Ga -3.267343e+00 -1.901872e+00 2.469979e+00 -1.535073e-06 -7.097800e-06 -1.998319e-06
Ga -3.252205e+00 -1.902134e+00 7.696643e+00 6.777830e-06 7.952104e-06 8.332635e-07
Ga -3.250225e+00 -1.901492e+00 -2.751702e+00 -9.041969e-06 -7.295975e-06 8.894480e-06
Ga -1.631667e+00 8.990176e-01 2.469744e+00 -1.318345e-06 1.367488e-05 -6.845631e-06
Ga -1.634626e+00 8.938022e-01 7.696270e+00 -6.079679e-06 -2.417619e-06 4.072057e-06
Ga -1.633967e+00 8.928238e-01 -2.750220e+00 -5.266516e-06 4.139409e-06 5.094745e-06
Ga -3.238681e+00 3.682768e+00 2.469776e+00 6.633233e-06 1.603647e-05 -7.861111e-06
Ga -3.246995e+00 3.682870e+00 7.696184e+00 -8.048245e-06 3.609507e-06 1.746355e-06
Ga -3.244622e+00 3.683623e+00 -2.750201e+00 -5.663955e-06 -8.427934e-06 1.072952e-06
Ga -9.569376e-03 -1.893913e+00 2.472004e+00 6.630491e-06 1.362812e-05 -1.487669e-05
Ga -1.983899e-02 -1.900547e+00 7.700821e+00 -1.041648e-05 4.544471e-06 6.500320e-07
Ga -2.048681e-02 -1.899938e+00 -2.755136e+00 -3.177971e-06 -3.063949e-06 1.038927e-05
Ga -1.375105e-02 1.825657e+00 5.055810e+00 -2.684390e-06 1.603022e-06 -2.437477e-06
Ga -2.102850e-02 1.820414e+00 -5.378759e+00 3.083958e-06 -1.037249e-07 -4.968622e-06
Ga -8.894140e-03 1.825361e+00 -1.178263e-01 3.213794e-06 4.107410e-07 -1.773192e-06
Ga 3.209383e+00 -3.759264e+00 5.060436e+00 -1.663711e-06 2.330303e-06 -4.998387e-06
Ga 3.201943e+00 -3.762899e+00 -5.383721e+00 3.147773e-06 -5.323229e-06 3.156693e-06
Ga 3.207741e+00 -3.761300e+00 -1.160321e-01 1.321618e-06 -8.995052e-06 3.597064e-06
Ga 1.597072e+00 -9.648204e-01 5.056502e+00 -1.005451e-06 2.310774e-06 1.252155e-06
Ga 1.591068e+00 -9.682682e-01 -5.378871e+00 6.790098e-06 -5.337008e-06 1.129395e-06
Ga 1.598584e+00 -9.605973e-01 -1.177658e-01 -2.068290e-06 -7.077487e-06 -4.526612e-06
Ga 3.201973e+00 1.813690e+00 5.059015e+00 -1.512599e-06 5.576705e-06 -9.279980e-06
Ga 3.201088e+00 1.821481e+00 -5.380904e+00 2.085609e-06 -1.804597e-06 7.266993e-07
Al 3.202032e+00 1.815233e+00 -1.178652e-01 -5.910337e-06 -9.060626e-06 5.549122e-06
Ga 6.420513e+00 -3.768627e+00 5.068514e+00 -3.910554e-06 3.683930e-06 -1.684446e-06
Ga 6.428570e+00 -3.764406e+00 -5.378709e+00 2.422483e-06 -2.742527e-06 -1.364329e-06
Ga 6.426929e+00 -3.773940e+00 -1.280207e-01 -9.188444e-07 -8.504264e-06 -9.979177e-06
Ga 4.806259e+00 -9.645465e-01 5.056842e+00 -1.588951e-06 -6.082023e-08 3.845381e-06
Ga 4.813796e+00 -9.698190e-01 -5.378944e+00 3.128681e-06 -2.633802e-06 -4.927818e-06
Ga 4.804934e+00 -9.596901e-01 -1.175531e-01 -2.672391e-06 -1.262544e-05 1.518987e-06
Ga -3.257939e+00 1.816945e+00 5.067997e+00 6.410222e-06 2.497248e-06 -1.497804e-06
Ga -3.248884e+00 1.821236e+00 -5.378639e+00 8.285581e-06 -2.740507e-06 -4.353731e-06
Ga -3.262073e+00 1.818916e+00 -1.275773e-01 -9.534127e-06 -1.627521e-05 -5.789056e-06
Ga -2.446702e-02 -3.764356e+00 5.080250e+00 6.722406e-06 7.237788e-06 5.526283e-07
Ga -2.397396e-02 -3.765319e+00 -5.378522e+00 3.298826e-06 -4.517872e-06 1.846799e-06
Ga -2.736758e-02 -3.770837e+00 -1.386247e-01 -1.242141e-06 -1.095435e-05 -2.091157e-06
Ga -1.635829e+00 -9.708568e-01 5.084400e+00 9.518381e-06 -3.255133e-07 -7.030828e-06
Ga -1.636132e+00 -9.699943e-01 -5.382007e+00 7.944116e-06 -3.504375e-06 7.412304e-06
Ga -1.634913e+00 -9.707054e-01 -1.365451e-01 4.605883e-06 -4.239567e-06 -1.386244e-06
N 1.593131e+00 8.928436e-01 4.375793e+00 1.993692e-08 1.571747e-06 6.163700e-06
N 1.589673e+00 8.911899e-01 -6.029613e+00 1.204728e-06 1.756757e-06 -1.357302e-07
N 1.633125e+00 9.160712e-01 -7.478115e-01 1.328406e-06 7.793265e-06 3.144785e-06
N -2.325544e-02 3.683860e+00 4.386314e+00 6.129174e-07 6.302187e-06 1.354396e-06
N -2.223415e-02 3.682703e+00 -6.024816e+00 -3.182700e-06 4.319042e-07 1.180706e-06
N -2.580486e-02 3.682391e+00 -7.741932e-01 2.477044e-06 8.404517e-06 4.942216e-06
N 3.201753e+00 -1.901953e+00 4.385073e+00 2.324547e-06 1.218175e-06 1.890140e-06
N 3.202069e+00 -1.900278e+00 -6.028214e+00 -6.189393e-07 3.175866e-06 -2.694130e-07
N 3.201868e+00 -1.902503e+00 -7.682930e-01 1.443771e-05 6.264486e-06 8.798779e-06
N -4.864698e+00 8.929094e-01 4.377235e+00 -6.038455e-06 -4.579958e-06 1.943488e-07
N -4.861105e+00 8.909103e-01 -6.026083e+00 -3.710661e-06 1.299379e-06 4.937510e-06
N -4.906980e+00 9.150321e-01 -7.543664e-01 8.380280e-06 9.047590e-06 -2.906765e-06
N -6.473566e+00 3.680430e+00 4.436745e+00 -4.150280e-06 -1.054668e-05 2.042581e-06
N -6.473454e+00 3.682706e+00 -6.027180e+00 -2.166457e-06 -6.067758e-07 1.177679e-06
N -6.475393e+00 3.628445e+00 -7.463473e-01 1.786178e-06 4.771105e-06 1.218212e-06
N -3.248694e+00 -1.901188e+00 4.445955e+00 -4.989764e-06 -4.373680e-06 -6.441142e-07
N -3.249829e+00 -1.902073e+00 -6.025556e+00 -4.710007e-06 3.261569e-06 -2.736476e-06
N -3.254034e+00 -1.901700e+00 -7.657537e-01 8.166705e-07 7.895227e-06 1.771379e-06
N -1.635762e+00 8.911330e-01 4.445738e+00 -1.187505e-06 -1.497126e-06 3.019124e-06
N -1.634897e+00 8.930526e-01 -6.025901e+00 -2.978537e-06 6.685863e-07 1.143610e-06
N -1.632610e+00 8.971436e-01 -7.643545e-01 -3.577452e-06 8.355020e-06 -2.589586e-06
N -3.247963e+00 3.683878e+00 4.445695e+00 -4.965721e-06 -2.890611e-06 7.867098e-08
N -3.248112e+00 3.683012e+00 -6.026113e+00 -1.896353e-06 2.351591e-06 3.915546e-06
N -3.241981e+00 3.683773e+00 -7.662382e-01 6.501438e-06 1.402834e-05 -3.173175e-06
N -2.318829e-02 -1.901132e+00 4.447029e+00 -3.165399e-06 -9.369686e-06 3.202821e-06
N -2.100031e-02 -1.901495e+00 -6.022150e+00 -2.166369e-07 3.594830e-06 -4.459076e-06
N -1.665238e-02 -1.898928e+00 -7.712204e-01 -2.756872e-06 5.473840e-06 -1.657752e-06
N 2.167897e-02 1.846992e+00 1.874068e+00 -6.099129e-07 -6.084892e-06 2.004334e-07
N -1.978793e-02 1.823189e+00 7.043969e+00 4.733147e-06 -2.365873e-06 2.793183e-06
N -1.929542e-02 1.819290e+00 -3.393125e+00 -7.461829e-07 1.147915e-06 3.195292e-06
N 3.246185e+00 -3.737504e+00 1.875382e+00 -2.210830e-07 1.161393e-06 -1.869927e-06
N 3.204908e+00 -3.762162e+00 7.047648e+00 7.442023e-06 -2.692525e-06 1.263528e-06
N 3.202229e+00 -3.762789e+00 -3.400192e+00 -1.248378e-06 3.852282e-06 4.316304e-06
N 1.633629e+00 -9.460388e-01 1.872444e+00 9.605856e-07 -5.919013e-06 1.139882e-06
N 1.591865e+00 -9.687750e-01 7.044278e+00 2.885399e-06 -1.635087e-05 1.631345e-06
N 1.591553e+00 -9.666929e-01 -3.393289e+00 -1.314386e-05 -3.440099e-07 -1.175515e-05
N 3.201640e+00 1.770682e+00 1.811743e+00 3.717900e-06 8.398652e-06 -4.535417e-06
N 3.201957e+00 1.818229e+00 7.045046e+00 4.859920e-06 2.648296e-06 4.655973e-06
N 3.200955e+00 1.820901e+00 -3.399781e+00 -6.562785e-06 4.755579e-06 6.282759e-06
N 6.383647e+00 -3.788282e+00 1.853280e+00 -7.598728e-07 1.362932e-05 -3.603111e-06
N 6.424379e+00 -3.765679e+00 7.052919e+00 -4.274237e-06 -8.511894e-06 4.039686e-06
N 6.429864e+00 -3.765410e+00 -3.391654e+00 1.253662e-06 9.091392e-07 2.807519e-06
N 4.769805e+00 -9.462696e-01 1.870972e+00 -6.011990e-07 1.401822e-05 -1.059321e-05
N 4.811330e+00 -9.683731e-01 7.044285e+00 -6.555017e-06 -6.335672e-06 7.460424e-06
N 4.813612e+00 -9.685350e-01 -3.393449e+00 -4.280300e-06 -3.476101e-06 -3.629942e-06
N -3.294079e+00 1.795113e+00 1.855438e+00 -1.993806e-06 4.451860e-07 7.310431e-06
N -3.252109e+00 1.819411e+00 7.052767e+00 -1.916122e-06 -5.019350e-06 1.842132e-06
N -3.250317e+00 1.819911e+00 -3.391531e+00 -3.350324e-09 7.147662e-06 -2.500022e-06
N -2.425704e-02 -3.764323e+00 1.836055e+00 8.179183e-08 -5.772459e-06 1.342966e-05
N -2.390004e-02 -3.763700e+00 7.061725e+00 -2.676607e-07 -8.540292e-06 -1.051561e-06
N -2.535168e-02 -3.766457e+00 -3.389680e+00 3.323480e-06 3.456634e-06 -3.314010e-06
N -1.636881e+00 -9.718993e-01 1.837382e+00 -9.552448e-07 -8.682136e-06 1.882023e-05
N -1.635634e+00 -9.711851e-01 7.065163e+00 -3.519247e-06 -6.200522e-06 -6.752473e-06
N -1.636234e+00 -9.701731e-01 -3.395548e+00 2.154407e-07 6.114108e-07 -9.328086e-06
