108
Energy=-2633887.975780 Lattice="9.668730 0.000000 0.000000 -4.835184 8.372170 0.000000 0.000327 0.000891 15.696322" Stress="0.000000 -0.000000 -0.000000 -0.000000 -0.000000 0.000000 0.000000 0.000000 0.000000" Properties=species:S:1:pos:R:3:forces:R:3
Al 1.593564 0.904703 2.446804 0.000031 -0.000079 -0.000005
Ga 1.590280 0.893473 7.703001 -0.000011 0.000014 -0.000046
Ga 1.606824 0.900376 -2.744876 -0.000030 0.000085 -0.000015
Al -0.017559 3.673234 2.463822 0.000006 -0.000032 -0.000017
Ga -0.019992 3.679568 7.699633 -0.000032 -0.000006 -0.000033
Ga -0.014340 3.679817 -2.754454 -0.000041 0.000015 -0.000025
Ga 3.204860 -1.897284 2.475528 0.000062 -0.000013 -0.000016
Ga 3.208702 -1.894493 7.685322 -0.000025 0.000013 -0.000057
Ga 3.203154 -1.894911 -2.752321 -0.000071 0.000060 -0.000018
Ga -4.875951 0.889623 2.464978 0.000109 -0.000085 -0.000075
Ga -4.859984 0.883738 7.690543 0.000021 0.000046 -0.000035
Al -4.868845 0.902133 -2.746961 -0.000007 0.000037 0.000037
Ga -6.483279 3.664146 2.451697 0.000043 -0.000114 0.000024
Ga -6.470908 3.679155 7.697981 0.000013 0.000001 -0.000005
Al -6.465807 3.664678 -2.743735 -0.000002 0.000008 -0.000036
Ga -3.256727 -1.905442 2.473868 0.000016 -0.000043 -0.000008
Ga -3.255623 -1.898651 7.692716 0.000008 0.000024 -0.000023
Ga -3.245939 -1.903509 -2.759225 -0.000000 0.000076 0.000022
Ga -1.622206 0.899464 2.465980 0.000036 -0.000078 0.000014
Ga -1.632427 0.894133 7.695603 -0.000010 0.000001 -0.000014
Ga -1.642043 0.889922 -2.752206 -0.000038 0.000025 0.000023
Ga -3.240138 3.680575 2.463314 0.000041 -0.000095 0.000000
Ga -3.246669 3.680572 7.704699 -0.000009 -0.000021 0.000001
Ga -3.257505 3.673070 -2.757262 -0.000063 -0.000015 0.000034
Ga -0.018888 -1.894206 2.467381 0.000026 -0.000070 0.000003
Ga -0.020481 -1.900820 7.699796 -0.000020 0.000000 -0.000023
Ga -0.026280 -1.907505 -2.755494 -0.000087 0.000046 0.000000
Ga -0.012007 1.824665 5.055686 -0.000049 0.000004 -0.000054
Ga -0.022142 1.819484 -5.369974 -0.000008 0.000000 -0.000041
Ga -0.009094 1.823209 -0.125488 0.000058 -0.000001 0.000028
Ga 3.211894 -3.757314 5.070563 -0.000049 0.000090 -0.000010
Ga 3.201757 -3.759041 -5.378957 -0.000018 0.000044 0.000003
Ga 3.204253 -3.762736 -0.129501 0.000010 -0.000002 0.000018
Ga 1.598950 -0.958306 5.066178 -0.000035 0.000005 -0.000002
Ga 1.590826 -0.969245 -5.374464 -0.000023 -0.000002 -0.000002
Ga 1.593303 -0.958150 -0.131378 0.000065 -0.000048 0.000094
Ga 3.197357 1.809454 5.069161 -0.000036 -0.000027 -0.000047
Ga 3.205687 1.823166 -5.354960 0.000010 -0.000002 -0.000053
Al 3.202747 1.821030 -0.158062 0.000052 -0.000111 0.000057
Ga 6.412678 -3.756635 5.066154 -0.000015 0.000053 0.000008
Ga 6.428935 -3.764837 -5.363103 0.000003 0.000002 -0.000013
Ga 6.429491 -3.773876 -0.143486 0.000018 -0.000048 -0.000025
Al 4.811211 -0.968001 5.077975 -0.000023 0.000051 -0.000026
Ga 4.809938 -0.963732 -5.360450 -0.000037 0.000004 0.000009
Ga 4.806427 -0.954616 -0.156630 0.000014 -0.000033 0.000026
Ga -3.253479 1.813559 5.078484 0.000005 0.000006 -0.000041
Ga -3.252442 1.815061 -5.362667 -0.000008 -0.000016 -0.000030
Ga -3.264108 1.815882 -0.153456 0.000048 -0.000052 0.000047
Ga -0.023634 -3.762196 5.080368 -0.000016 0.000049 -0.000018
Ga -0.029732 -3.764585 -5.358640 -0.000012 0.000011 -0.000044
Ga -0.034317 -3.772374 -0.157180 0.000129 -0.000042 0.000036
Ga -1.644945 -0.970436 5.082223 -0.000029 0.000029 -0.000012
Ga -1.635597 -0.969704 -5.378003 -0.000005 -0.000004 -0.000023
Ga -1.636355 -0.971260 -0.139674 0.000108 -0.000080 0.000053
N 1.593456 0.894109 4.370253 0.000059 -0.000008 0.000043
N 1.593296 0.894175 -6.009113 0.000020 -0.000005 0.000047
N 1.630342 0.915719 -0.760314 -0.000068 0.000032 -0.000003
N -0.023036 3.682042 4.382345 0.000053 -0.000070 0.000061
N -0.019722 3.680940 -6.013013 0.000030 -0.000058 0.000029
N -0.024244 3.679268 -0.779193 -0.000022 0.000002 0.000017
N 3.244371 -1.874482 4.461668 0.000022 -0.000086 0.000009
N 3.205195 -1.896282 -6.022732 0.000053 -0.000015 0.000035
N 3.196412 -1.902928 -0.773910 -0.000020 0.000040 -0.000021
N -4.861437 0.842334 4.452634 0.000027 -0.000027 0.000039
N -4.860947 0.888548 -6.022003 0.000040 0.000002 -0.000000
N -4.904041 0.916673 -0.819741 -0.000005 0.000075 -0.000085
N -6.470700 3.677446 4.433384 0.000046 -0.000042 0.000003
N -6.469639 3.677825 -6.016962 0.000022 -0.000022 0.000029
N -6.472525 3.628691 -0.813128 -0.000067 0.000112 0.000047
N -3.290899 -1.874188 4.460022 0.000084 -0.000076 0.000029
N -3.253190 -1.901815 -6.013642 0.000045 0.000009 0.000022
N -3.246907 -1.904239 -0.780161 -0.000037 0.000084 -0.000042
N -1.634510 0.891844 4.442776 0.000065 -0.000045 0.000008
N -1.636050 0.894003 -6.015348 0.000030 -0.000028 0.000027
N -1.630509 0.893794 -0.770192 -0.000084 0.000044 -0.000014
N -3.245752 3.681316 4.442308 0.000036 -0.000066 0.000008
N -3.249729 3.679461 -6.004782 0.000017 -0.000053 0.000021
N -3.242969 3.682209 -0.778539 -0.000072 0.000016 -0.000000
N -0.023138 -1.898334 4.445912 0.000068 -0.000075 0.000000
N -0.021384 -1.903768 -6.011927 0.000008 -0.000015 0.000021
N -0.019697 -1.898698 -0.775650 -0.000109 0.000070 -0.000027
N 0.020607 1.846259 1.866315 -0.000011 0.000030 -0.000021
N -0.017609 1.821718 7.043938 0.000010 0.000032 0.000067
N -0.020553 1.816299 -3.390685 0.000014 0.000015 0.000030
N 3.244405 -3.783599 1.856089 0.000007 0.000062 0.000041
N 3.203040 -3.763219 7.056073 0.000025 0.000019 0.000012
N 3.200603 -3.761535 -3.397376 0.000033 0.000025 -0.000020
N 1.591290 -0.920988 1.855024 -0.000047 0.000042 -0.000046
N 1.589480 -0.964693 7.052297 0.000002 0.000023 0.000024
N 1.588443 -0.967129 -3.392796 0.000047 -0.000056 0.000009
N 3.162675 1.795478 1.775861 -0.000088 0.000199 -0.000061
N 3.197466 1.819127 7.050230 -0.000025 -0.000013 0.000042
N 3.243561 1.845554 -3.361266 -0.000060 -0.000063 -0.000003
N 6.382014 -3.784664 1.844089 -0.000009 0.000040 0.000073
N 6.421760 -3.761880 7.050526 -0.000034 0.000001 0.000014
N 6.471123 -3.789477 -3.372593 -0.000076 0.000008 0.000006
N 4.810774 -0.966972 1.818067 -0.000058 -0.000027 0.000007
N 4.813127 -0.967960 7.000580 -0.000033 -0.000032 0.000039
N 4.810912 -0.916698 -3.369464 -0.000012 -0.000063 -0.000049
N -3.252546 1.815423 1.827677 -0.000026 0.000093 -0.000092
N -3.247566 1.821083 7.059553 -0.000023 0.000013 0.000020
N -3.291691 1.791869 -3.372227 0.000034 0.000029 -0.000021
N -0.027120 -3.763375 1.823664 -0.000070 0.000065 -0.000008
N -0.022623 -3.762269 7.060774 -0.000005 0.000025 0.000009
N -0.069834 -3.788508 -3.369147 0.000087 0.000024 0.000011
N -1.638261 -0.971488 1.837572 -0.000052 0.000066 -0.000063
N -1.635433 -0.970816 7.064302 -0.000020 0.000011 0.000002
N -1.634675 -0.970295 -3.398908 0.000025 -0.000042 0.000034
