108
Energy=-665541.304581 Lattice="9.440381 0.000000 0.000000 -4.741282 8.174731 0.000000 -0.003779 -0.001567 15.200325" Stress="0.000039 -0.000012 -0.000004 -0.000012 0.000046 -0.000003 -0.000004 -0.000003 0.000067" Properties=species:S:1:pos:R:3:forces:R:3
Al 1.525433 0.855059 2.364415 0.004315 0.000914 -0.000230
Al 1.542129 0.863768 7.455248 -0.000002 0.003232 0.001487
Al 1.544860 0.853061 -2.683421 0.002255 0.012862 0.007328
Al -0.047361 3.580791 2.363986 0.001947 0.001714 0.000351
Al -0.031437 3.579625 7.451943 -0.000479 0.000043 -0.000211
Al -0.030562 3.581114 -2.682825 0.002661 0.000000 0.003592
Al 3.127490 -1.856211 2.378168 0.000825 -0.000274 -0.001561
Al 3.143281 -1.845935 7.434431 0.001039 -0.004002 0.002191
Al 3.137437 -1.859112 -2.675353 0.002294 0.001442 0.003616
Al -4.749101 0.861892 2.374424 0.000502 0.002598 -0.002161
Al -4.748723 0.862398 7.466955 0.002365 0.002122 -0.000289
Al -4.753824 0.862689 -2.692288 0.001015 0.002007 0.002466
Al -6.333513 3.592692 2.357519 0.003485 0.001365 -0.001080
Al -6.325358 3.587729 7.479739 0.000725 0.001226 -0.000937
Al -6.328062 3.579068 -2.687299 -0.001394 0.000221 0.002954
Al -3.165480 -1.837930 2.371551 0.000968 -0.001995 -0.001421
Al -3.169058 -1.840694 7.463572 0.001055 -0.001929 0.000610
Al -3.171832 -1.847226 -2.694070 0.000064 -0.003359 0.003351
Al -1.606696 0.878273 2.376648 -0.002013 -0.001798 0.000359
Al -1.610873 0.881630 7.450570 0.001054 0.001580 0.001923
Al -1.613664 0.878282 -2.692169 0.000854 0.001897 0.004631
Al -3.183479 3.601339 2.384038 -0.002631 -0.001837 -0.002254
Al -3.183464 3.587973 7.443633 0.000841 -0.000719 0.000700
Al -3.178744 3.585200 -2.675624 -0.000981 -0.002485 0.003013
Al -0.018856 -1.840251 2.384863 -0.001078 -0.004170 -0.003875
Ga -0.009079 -1.837487 7.466639 -0.000168 -0.003415 0.000531
Ga -0.015311 -1.844209 -2.634094 0.001289 -0.001475 -0.001980
Al -0.047553 1.754386 4.909848 0.003838 0.005406 0.003342
Al -0.024780 1.755641 -5.223262 0.000289 0.003917 0.004363
Al -0.034022 1.760013 -0.158040 0.001851 0.003839 -0.002562
Al 3.125059 -3.682505 4.921443 0.002257 0.003816 -0.000068
Ga 3.135473 -3.678056 -5.219706 0.000420 0.002721 0.001465
Al 3.133520 -3.680970 -0.133023 0.000803 0.002289 -0.012829
Al 1.560135 -0.950086 4.911290 0.000371 -0.001461 -0.000273
Al 1.552937 -0.932962 -5.237670 0.016386 0.004271 0.019057
Al 1.541271 -0.960720 -0.136247 0.015087 0.007377 -0.002547
Ga 3.125182 1.771316 4.922155 -0.002402 0.001143 0.000828
Al 3.115634 1.767375 -5.218711 -0.000434 0.000932 0.002256
Al 3.117823 1.762794 -0.131616 -0.001887 0.000732 -0.014796
Ga 6.287497 -3.659609 4.923101 -0.001642 -0.000837 -0.000237
Al 6.292326 -3.673760 -5.219943 -0.001530 0.001470 0.001760
Al 6.285757 -3.672328 -0.131967 -0.001581 -0.000136 -0.015461
Al 4.713154 -0.937478 4.918819 -0.003849 -0.004810 0.001236
Al 4.707661 -0.934173 -5.221117 -0.001476 -0.004136 0.003500
Al 4.703796 -0.946520 -0.145904 -0.002677 -0.002245 -0.007992
Al -3.166813 1.776437 4.917171 -0.002220 0.002544 0.001810
Al -3.179688 1.771402 -5.226912 -0.000753 0.001055 0.004400
Al -3.176555 1.771162 -0.141018 -0.002017 0.001569 -0.009749
Al -0.004261 -3.664531 4.918034 0.005167 0.005235 0.001524
Al -0.014319 -3.683699 -5.211385 0.001161 0.005826 0.003777
Al -0.006850 -3.686918 -0.127886 -0.001620 0.000718 -0.007503
Al -1.586964 -0.917772 4.917093 -0.000443 -0.005372 0.000756
Al -1.592115 -0.923590 -5.211850 0.001986 -0.004670 0.002053
Al -1.594502 -0.934488 -0.129584 -0.004649 -0.000626 -0.007177
N 1.501525 0.839401 4.295458 0.001741 0.003707 -0.004274
N 1.539145 0.858913 -5.824438 0.002246 0.004842 -0.001809
N 1.539580 0.855563 -0.746062 0.000891 0.001825 -0.000713
N -0.070387 3.566270 4.299269 0.000685 -0.000662 -0.003257
N 0.005619 3.563260 -5.835530 0.002290 -0.001122 -0.000566
N -0.030904 3.586507 -0.748490 0.000770 -0.000495 0.000451
N 3.133024 -1.855328 4.312470 0.002123 -0.001517 -0.000503
N 3.130885 -1.807987 -5.847857 0.001855 -0.000021 -0.000392
N 3.125779 -1.858819 -0.754580 0.001012 -0.001477 0.004244
N -4.711307 0.841547 4.301141 0.002715 0.003806 -0.004898
N -4.748393 0.860626 -5.815484 0.000792 0.003972 -0.001712
N -4.752698 0.859597 -0.761859 0.001781 0.002682 0.001328
N -6.261493 3.631279 4.282216 -0.009939 -0.006176 -0.007074
N -6.320776 3.593234 -5.809706 0.000403 0.000341 -0.000157
N -6.324952 3.584779 -0.754325 0.000501 0.001274 0.001772
N -3.160378 -1.799230 4.297386 0.001475 -0.000433 -0.003441
N -3.159942 -1.844082 -5.817956 0.002487 -0.002008 0.000197
N -3.163761 -1.851327 -0.762804 0.002193 -0.001511 0.002413
N -1.605876 0.876326 4.317650 -0.001840 0.000284 -0.006565
N -1.603029 0.876555 -5.823635 -0.000401 0.000170 -0.002590
N -1.607415 0.870614 -0.757432 -0.000275 -0.000825 -0.001549
N -3.180579 3.601928 4.317630 -0.000277 -0.003653 -0.002923
N -3.218406 3.574938 -5.841436 -0.001449 -0.002745 -0.002396
N -3.178506 3.591905 -0.752584 -0.001265 -0.001539 0.001339
N -0.016121 -1.839193 4.322101 -0.001599 -0.002679 -0.002203
N 0.037011 -1.819353 -5.743460 -0.025385 -0.015209 -0.006146
N -0.007153 -1.837840 -0.627401 -0.011022 -0.011161 -0.017453
N -0.040063 1.760970 1.766603 0.001277 0.004188 0.002343
N -0.031217 1.761143 6.844488 0.001142 0.002740 -0.002332
N -0.030973 1.759631 -3.290712 0.000862 0.003132 -0.001295
N 3.124054 -3.679417 1.757433 0.002063 0.002285 0.011495
N 3.133878 -3.682234 6.852006 0.001293 0.002977 -0.001663
N 3.132063 -3.684999 -3.241394 0.001244 0.003195 0.000395
N 1.553792 -0.954266 1.760931 0.002407 0.000536 0.012294
N 1.602717 -0.922088 6.829396 0.000171 -0.000140 -0.003907
N 1.606790 -0.903226 -3.253446 -0.002398 -0.014195 -0.017220
N 3.111279 1.765931 1.750205 -0.000478 0.001501 0.016005
N 3.117423 1.774526 6.906396 -0.000024 0.000808 -0.000361
N 3.114824 1.768419 -3.294310 -0.000530 0.001000 -0.000745
N 6.270719 -3.666595 1.750652 0.000213 -0.000482 0.015484
N 6.286209 -3.670553 6.904014 -0.000150 0.001021 0.000087
N 6.282984 -3.674999 -3.295285 -0.000509 0.000891 0.000489
N 4.702312 -0.940397 1.759443 -0.001807 -0.003188 0.006808
N 4.712349 -0.938309 6.848873 -0.001034 -0.001741 -0.003649
N 4.703425 -0.944689 -3.295895 -0.001137 -0.002642 -0.001109
N -3.179298 1.779641 1.754673 -0.000669 0.001055 0.012196
N -3.177554 1.776257 6.847865 -0.002103 -0.000096 -0.002203
N -3.177315 1.777328 -3.297337 -0.001671 0.000337 -0.000814
N -0.013235 -3.665476 1.757372 -0.000679 -0.002112 0.014341
N -0.013519 -3.708514 6.840254 -0.001973 0.000192 -0.001970
N -0.007854 -3.713604 -3.291034 -0.001129 0.001162 -0.000146
N -1.590046 -0.930843 1.757725 -0.003106 -0.001410 0.014596
N -1.621483 -0.909742 6.843185 -0.003073 -0.003483 -0.003138
N -1.623349 -0.913341 -3.294892 -0.001953 -0.003536 -0.001143
