108
Energy=-2496559.600534 Lattice="9.568094 0.000000 0.000000 -4.795567 8.264620 0.000000 -0.132815 -0.074670 15.487545" Stress="-0.000217 0.000014 -0.000027 0.000014 -0.000210 -0.000016 -0.000027 -0.000016 -0.000186" Properties=species:S:1:pos:R:3:forces:R:3
Al 1.495312 0.859453 2.464708 0.001168 -0.007868 -0.003453
Al 1.496423 0.851844 7.591851 -0.000430 -0.007042 0.000582
Ga 1.631336 0.925145 -2.750197 0.000395 -0.009426 -0.001008
Al -0.074783 3.592209 2.449899 0.000546 0.000981 0.001030
Ga -0.083252 3.587667 7.596028 -0.002041 -0.001726 0.001386
Ga 0.048033 3.664848 -2.761071 -0.001509 -0.000365 -0.000145
Ga 3.121183 -1.927450 2.460980 -0.001568 0.000501 -0.002870
Ga 3.117346 -1.925520 7.600869 -0.001751 0.000029 0.000490
Ga 3.246176 -1.852816 -2.750020 -0.001055 0.000722 0.000015
Ga -4.902328 0.855952 2.464581 0.001148 -0.007939 -0.003360
Ga -4.902861 0.855054 7.602459 0.000848 -0.007960 -0.000620
Al -4.767513 0.931089 -2.754875 0.000265 -0.007306 -0.000219
Ga -6.483404 3.594620 2.463371 0.000508 -0.000363 -0.002490
Ga -6.490400 3.593198 7.604071 0.000900 -0.000455 0.001478
Al -6.355565 3.669753 -2.756902 -0.000212 -0.000624 0.001447
Ga -3.272739 -1.924886 2.462192 -0.000082 0.001195 -0.003020
Ga -3.276843 -1.930288 7.607245 0.000024 0.001645 0.001629
Ga -3.141008 -1.858650 -2.751010 -0.000891 0.001223 0.000960
Ga -1.717300 0.866824 2.468732 0.009612 -0.004622 -0.005425
Ga -1.721259 0.858890 7.598462 0.009789 -0.004289 -0.002386
Ga -1.596299 0.927395 -2.746622 0.008684 -0.004911 -0.002638
Ga -3.308493 3.598245 2.461981 0.008919 0.004623 -0.003663
Ga -3.314296 3.598368 7.605413 0.008320 0.003904 -0.000197
Ga -3.191650 3.670610 -2.747113 0.007946 0.003616 -0.001365
Ga -0.103577 -1.919376 2.464658 0.009199 0.004608 -0.003743
Ga -0.104163 -1.920074 7.602615 0.008687 0.004439 -0.000941
Al 0.024373 -1.853241 -2.753263 0.007086 0.003243 -0.000412
Al -0.081672 1.764778 5.020492 -0.006613 -0.002368 0.000480
Ga 0.050623 1.838545 -5.325174 -0.008066 -0.004924 -0.000395
Ga 0.048546 1.840737 -0.173573 -0.011792 -0.008122 0.014837
Ga 3.127140 -3.763395 5.027226 -0.006479 -0.004112 -0.000716
Ga 3.258641 -3.685346 -5.317519 -0.007843 -0.004385 -0.000688
Ga 3.258642 -3.686902 -0.175688 -0.012686 -0.005553 0.015164
Ga 1.533400 -1.010527 5.032755 -0.008437 0.005395 -0.002487
Ga 1.664054 -0.944786 -5.317959 -0.008459 0.006263 -0.001482
Ga 1.663397 -0.946719 -0.175063 -0.013134 0.003726 0.013812
Ga 3.076246 1.765319 5.031623 0.000221 -0.001611 0.000927
Ga 3.212571 1.842551 -5.317867 -0.000531 -0.001649 0.001754
Ga 3.215621 1.841666 -0.188255 -0.002939 -0.002908 0.017550
Ga 6.291289 -3.759544 5.024749 -0.001045 -0.000322 0.001057
Al 6.426649 -3.685009 -5.318749 -0.000483 0.000066 0.001803
Al 6.399177 -3.699659 -0.207486 0.003747 0.001398 0.021443
Ga 4.707285 -1.016488 5.035892 -0.000646 0.008811 -0.000508
Ga 4.838937 -0.944424 -5.311235 -0.000359 0.008432 -0.000353
Ga 4.837089 -0.943535 -0.180216 -0.003568 0.007394 0.014256
Ga -3.305953 1.771022 5.032923 0.000888 -0.001462 0.000062
Ga -3.180861 1.841189 -5.315666 0.001859 -0.000553 0.001160
Ga -3.182217 1.840019 -0.183383 -0.002326 -0.002872 0.016455
Ga -0.101548 -3.752826 5.034755 0.001194 0.000327 0.000862
Ga 0.021823 -3.678048 -5.310361 0.001535 -0.000383 0.001643
Ga 0.017170 -3.676465 -0.188610 -0.003007 -0.002376 0.015975
Ga -1.686276 -1.009592 5.035759 -0.000483 0.009739 -0.001172
Ga -1.556879 -0.944858 -5.312659 -0.001028 0.010243 -0.000312
Ga -1.557315 -0.950230 -0.177771 -0.004435 0.007743 0.013566
N 1.481717 0.864473 4.396879 -0.010179 -0.003205 -0.007942
N 1.629872 0.927056 -5.958718 0.000598 -0.009441 -0.013185
N 1.628495 0.925436 -0.800723 -0.001357 -0.009838 0.002075
N -0.085200 3.576338 4.394139 -0.001242 -0.012312 -0.010369
N 0.060828 3.675164 -5.933480 0.009751 0.006911 0.002694
N 0.050887 3.670241 -0.811259 0.007150 0.004956 0.006457
N 3.120029 -1.927985 4.413822 -0.001596 0.000826 -0.000965
N 3.250767 -1.854711 -5.933722 -0.001117 0.000909 -0.001947
N 3.248644 -1.855952 -0.799237 -0.002541 -0.000334 0.000593
N -4.898038 0.856477 4.416809 0.001243 -0.008211 0.001327
N -4.767057 0.929875 -5.935252 0.000365 -0.009199 0.001165
N -4.766109 0.929904 -0.827000 -0.001145 -0.009747 -0.009274
N -6.482093 3.596678 4.415753 0.000856 0.000237 -0.001175
N -6.368944 3.679169 -5.928204 -0.010629 0.006505 0.003168
N -6.376730 3.675610 -0.817573 -0.012445 0.006328 -0.009037
N -3.274137 -1.924502 4.414029 0.000230 0.001465 -0.001246
N -3.144029 -1.872202 -5.923412 -0.000636 -0.011419 0.002924
N -3.150307 -1.877245 -0.793298 -0.001111 -0.012541 0.003815
N -1.706421 0.871232 4.422530 0.018562 -0.000095 0.006436
N -1.593640 0.932179 -5.936279 0.008978 -0.005616 0.002655
N -1.593805 0.929652 -0.797393 0.008600 -0.005755 0.005045
N -3.312024 3.600076 4.413501 0.008115 0.004312 0.000355
N -3.183553 3.673305 -5.929685 0.007856 0.004470 0.001026
N -3.184326 3.673036 -0.798445 0.007393 0.003941 0.003318
N -0.104550 -1.922473 4.416497 0.008414 0.004446 0.000497
N 0.026124 -1.850527 -5.935366 0.008211 0.004286 0.000276
N 0.025257 -1.850122 -0.825755 0.007048 0.004134 -0.009709
N -0.064548 1.774984 1.848822 0.005988 0.004503 -0.004137
N -0.067252 1.754944 6.962984 0.002300 -0.010701 -0.008752
N 0.046906 1.834499 -3.373590 -0.008745 -0.005116 0.000675
N 3.143179 -3.767941 1.845393 0.007271 -0.007939 -0.008386
N 3.124020 -3.760517 6.982158 -0.008227 -0.003544 0.000994
N 3.252960 -3.686227 -3.368863 -0.008786 -0.004329 0.001848
N 1.534782 -0.994543 1.850890 -0.004904 0.017247 -0.008144
N 1.535354 -0.996524 6.987721 -0.009204 0.015270 0.006072
N 1.647950 -0.955297 -3.364073 -0.019054 -0.000181 0.006189
N 3.067282 1.757042 1.847092 -0.004980 -0.004433 -0.012911
N 3.066386 1.756465 6.988822 -0.009856 -0.006829 0.002910
N 3.229423 1.846664 -3.358336 0.011358 0.005832 0.007627
N 6.300400 -3.754066 1.843849 -0.012793 -0.007158 -0.028696
N 6.291909 -3.757125 6.978409 0.000551 0.000541 -0.001699
N 6.438759 -3.693249 -3.385893 0.011098 -0.006301 -0.009662
N 4.707323 -1.014979 1.834735 0.003457 0.011500 -0.012799
N 4.706822 -1.017086 6.987401 -0.000373 0.008780 0.000456
N 4.836988 -0.924577 -3.358423 -0.000398 0.019462 0.005222
N -3.310546 1.767889 1.840050 0.005041 0.000785 -0.015928
N -3.311208 1.768915 6.984416 0.000836 -0.001250 -0.001367
N -3.195016 1.831971 -3.361322 -0.008995 -0.006690 0.003059
N -0.099842 -3.753094 1.836059 0.005053 0.002721 -0.015774
N -0.104002 -3.754239 6.986846 0.000433 0.000090 -0.001188
N 0.010543 -3.671998 -3.353201 -0.009967 0.006157 0.007759
N -1.687160 -1.008317 1.839610 0.004326 0.011839 -0.013138
N -1.690537 -1.014389 6.986609 -0.000644 0.008840 0.000359
N -1.541800 -0.951163 -3.359140 0.010255 0.003123 0.004678
