108
Energy=-1.581047e+06 Lattice="9.485011e+00 0.000000e+00 0.000000e+00 -4.745489e+00 8.209529e+00 0.000000e+00 4.104558e-03 -1.440652e-04 1.530083e+01" Stress="-3.299811e-02 5.279311e-03 1.705245e-04 5.271840e-03 -2.894292e-02 -3.187948e-04 1.645664e-04 -3.131215e-04 -2.638427e-02" Properties=species:S:1:pos:R:3:forces:R:3 Config_type=AlGaN_super3_25_2_1.xyz
Al 1.567856e+00 8.501058e-01 2.473567e+00 -3.807788e-03 1.056294e-02 -8.529750e-03
Al 1.566098e+00 8.994637e-01 7.513126e+00 -1.662618e-03 -1.322625e-02 -4.910084e-03
Al 1.550618e+00 8.548207e-01 -2.782495e+00 3.432912e-03 3.985740e-03 5.280519e-03
Al -8.628881e-03 3.616996e+00 2.471523e+00 -1.205372e-03 -5.343945e-03 -9.213136e-03
Al -1.431803e-03 3.611767e+00 7.514222e+00 -3.352034e-03 -1.482729e-03 -3.046178e-03
Al 8.135974e-03 3.597137e+00 -2.753481e+00 -6.409289e-03 7.527080e-04 -2.252503e-03
Al 3.134551e+00 -1.865819e+00 2.446494e+00 1.412196e-02 -4.957334e-03 4.808516e-03
Al 3.175602e+00 -1.882910e+00 7.513025e+00 -2.927942e-03 8.804783e-04 -4.063613e-03
Ga 3.171688e+00 -1.878657e+00 -2.756262e+00 -1.140752e-03 -5.844198e-04 -3.074789e-03
Ga -4.783988e+00 9.015795e-01 2.477845e+00 4.137021e-04 -1.533652e-02 -9.828343e-03
Ga -4.784150e+00 9.020055e-01 7.513236e+00 1.062107e-03 -1.540488e-02 -4.028598e-03
Al -4.784234e+00 9.020873e-01 -2.753630e+00 1.428985e-03 -1.064010e-02 -2.471062e-03
Ga -6.350693e+00 3.614367e+00 2.477171e+00 -2.013301e-03 -1.389237e-03 -7.503636e-03
Ga -6.352308e+00 3.612231e+00 7.515131e+00 -1.849866e-04 3.090692e-04 -6.939317e-04
Ga -6.353329e+00 3.615180e+00 -2.750181e+00 -4.058640e-04 -1.343491e-03 -3.050744e-04
Ga -3.176801e+00 -1.881526e+00 2.483053e+00 -2.116536e-03 1.807808e-03 -8.703112e-03
Ga -3.174429e+00 -1.882561e+00 7.512723e+00 -3.079832e-04 2.815013e-03 -2.478045e-03
Al -3.176846e+00 -1.880350e+00 -2.754105e+00 -3.283611e-04 2.251774e-03 -1.467556e-03
Al -1.652933e+00 9.024398e-01 2.465007e+00 1.319522e-02 -7.119980e-03 -9.112745e-03
Ga -1.649191e+00 9.048922e-01 7.511743e+00 1.517684e-02 -7.928643e-03 -7.451652e-03
Al -1.654736e+00 9.012981e-01 -2.753668e+00 1.196069e-02 -6.292419e-03 -3.641709e-03
Al -3.216846e+00 3.615226e+00 2.471506e+00 1.207967e-02 4.264152e-03 -7.117866e-03
Al -3.216110e+00 3.613946e+00 7.512175e+00 1.188548e-02 5.156195e-03 -2.965599e-03
Al -3.220234e+00 3.615019e+00 -2.751058e+00 1.109176e-02 3.614851e-03 -2.471233e-03
Ga -3.787035e-02 -1.875140e+00 2.480725e+00 9.833226e-03 7.744962e-03 -9.746466e-03
Ga -3.725228e-02 -1.880227e+00 7.512596e+00 1.346672e-02 9.487796e-03 -5.500967e-03
Al -4.229733e-02 -1.878021e+00 -2.753125e+00 8.883008e-03 5.303608e-03 -3.304292e-03
Al -1.967472e-03 1.799688e+00 4.977803e+00 -1.042941e-02 -6.905209e-03 5.311520e-04
Al -7.269389e-03 1.801051e+00 -5.273173e+00 -1.080164e-02 -6.882615e-03 -3.928764e-03
Ga -7.425007e-04 1.801918e+00 -2.220177e-01 -1.308755e-02 -1.026353e-02 3.053684e-02
Ga 3.176352e+00 -3.694828e+00 4.994734e+00 -1.323762e-02 -5.368661e-03 -5.231910e-03
Ga 3.172283e+00 -3.693785e+00 -5.271644e+00 -1.319141e-02 -6.948342e-03 -3.464878e-03
Al 3.176872e+00 -3.691588e+00 -2.464925e-01 -1.077445e-02 -6.061396e-03 2.998691e-02
Al 1.608477e+00 -9.796679e-01 4.999800e+00 -1.147408e-02 6.293799e-03 -4.790475e-03
Al 1.604101e+00 -9.768274e-01 -5.272336e+00 -1.205161e-02 6.863834e-03 -7.319243e-03
Al 1.609724e+00 -9.733414e-01 -2.434173e-01 -1.371840e-02 9.056921e-03 2.556344e-02
Ga 3.132072e+00 1.801693e+00 4.993796e+00 -3.679809e-04 -3.471666e-03 -2.238067e-03
Ga 3.128996e+00 1.803006e+00 -5.268693e+00 5.530521e-05 -2.967562e-03 -4.079148e-04
Al 3.129398e+00 1.802308e+00 -2.454799e-01 -1.501790e-04 -2.917748e-03 3.104545e-02
Ga 6.310699e+00 -3.693415e+00 4.995528e+00 -4.504241e-04 3.045787e-04 -1.287170e-03
Ga 6.306457e+00 -3.692122e+00 -5.268328e+00 -2.872611e-04 -6.830543e-04 2.103794e-05
Al 6.307192e+00 -3.691714e+00 -2.449998e-01 1.908013e-04 -1.183767e-04 3.283665e-02
Ga 4.743951e+00 -9.776241e-01 4.998343e+00 -2.064219e-03 1.448512e-02 -5.891500e-03
Ga 4.740889e+00 -9.765091e-01 -5.270043e+00 -1.467913e-03 1.528040e-02 -3.517194e-03
Al 4.739883e+00 -9.794952e-01 -2.468720e-01 -1.266294e-05 1.303919e-02 3.159031e-02
Al -3.214398e+00 1.806647e+00 4.990202e+00 3.125346e-03 -2.232540e-03 -2.931707e-03
Al -3.219607e+00 1.806794e+00 -5.270299e+00 2.578376e-03 -1.576446e-03 -1.447961e-03
Ga -3.219755e+00 1.803734e+00 -2.255740e-01 2.945070e-03 -1.628739e-03 3.455983e-02
Ga -3.817504e-02 -3.691484e+00 4.995819e+00 2.752175e-03 1.254552e-03 -1.309051e-03
Ga -4.046550e-02 -3.690019e+00 -5.268687e+00 2.565575e-03 4.565368e-04 -6.142473e-04
Ga -4.033372e-02 -3.687012e+00 -2.238166e-01 2.253988e-03 3.034333e-04 3.585313e-02
Al -1.605122e+00 -9.746877e-01 4.993753e+00 1.375692e-04 1.338204e-02 -4.593334e-03
Ga -1.609255e+00 -9.754958e-01 -5.268368e+00 1.408075e-03 1.681980e-02 -3.747236e-03
Al -1.609576e+00 -9.769610e-01 -2.475691e-01 3.279350e-04 1.403299e-02 2.953747e-02
N 1.563477e+00 8.896688e-01 4.392533e+00 -1.855521e-02 -2.126877e-02 -3.414986e-03
N 1.558105e+00 8.977866e-01 -5.870241e+00 -1.724472e-02 -2.229196e-02 -2.381857e-03
N 1.564633e+00 8.998921e-01 -8.376590e-01 1.681068e-02 -2.513875e-02 -6.429478e-03
N -1.992576e-03 3.609183e+00 4.389996e+00 -1.708041e-03 -2.152852e-02 -1.290241e-02
N -5.730753e-03 3.608775e+00 -5.869110e+00 -1.386945e-03 -1.982727e-02 -1.257660e-02
N -1.783027e-03 3.610906e+00 -8.359451e-01 -2.544018e-03 2.090132e-02 -4.591403e-03
N 3.172087e+00 -1.881292e+00 4.400990e+00 -2.116964e-02 1.178377e-02 -1.758102e-02
N 3.169301e+00 -1.880460e+00 -5.869724e+00 -1.940852e-02 1.137102e-02 -1.233929e-02
N 3.173626e+00 -1.881187e+00 -8.370384e-01 -3.589519e-03 1.221067e-03 2.636109e-02
N -4.779868e+00 9.033529e-01 4.399349e+00 1.820577e-02 -5.120402e-03 1.250740e-02
N -4.784516e+00 9.037702e-01 -5.866192e+00 1.829469e-02 -5.482637e-03 1.200937e-02
N -4.788675e+00 8.993160e-01 -8.366945e-01 -1.594905e-02 -2.224113e-02 -1.488363e-03
N -6.351312e+00 3.613291e+00 4.398262e+00 1.031882e-04 3.454381e-04 1.679519e-03
N -6.355539e+00 3.613763e+00 -5.864667e+00 -1.003150e-04 8.264206e-04 1.500364e-03
N -6.355610e+00 3.613561e+00 -8.300590e-01 -1.693988e-02 -9.152483e-03 1.884095e-02
N -3.171182e+00 -1.880563e+00 4.402429e+00 1.714165e-02 1.166644e-02 9.482690e-03
N -3.177132e+00 -1.881702e+00 -5.867189e+00 -2.988639e-04 1.895394e-03 1.538645e-03
N -3.177475e+00 -1.882271e+00 -8.403413e-01 -8.092940e-04 1.233700e-03 4.081857e-03
N -1.649338e+00 9.037221e-01 4.388074e+00 1.212670e-02 -7.052520e-03 5.168681e-03
N -1.655070e+00 9.058585e-01 -5.866319e+00 1.187664e-02 8.693979e-03 2.150035e-02
N -1.652554e+00 8.994204e-01 -8.335028e-01 1.450560e-02 -2.524621e-02 -7.025516e-03
N -3.218565e+00 3.610937e+00 4.392082e+00 1.295770e-02 -1.280231e-02 -9.883930e-03
N -3.221362e+00 3.610843e+00 -5.870450e+00 1.308486e-02 -1.278280e-02 -9.470802e-03
N -3.217527e+00 3.616123e+00 -8.314558e-01 2.812208e-02 1.569986e-02 -8.817413e-03
N -3.978687e-02 -1.878279e+00 4.402928e+00 1.085508e-02 2.601465e-02 1.669742e-02
N -4.017755e-02 -1.878286e+00 -5.866340e+00 2.756800e-02 1.657083e-02 1.104884e-02
N -4.089584e-02 -1.876027e+00 -8.353300e-01 1.206531e-02 2.620560e-02 -1.422393e-03
N -1.022476e-02 1.789293e+00 1.827626e+00 -5.796520e-03 -3.713933e-03 2.845282e-03
N 4.241501e-03 1.806231e+00 6.917267e+00 4.241794e-03 9.084547e-04 -5.976955e-03
N -4.636203e-03 1.790685e+00 -3.355876e+00 -1.009918e-02 -5.414219e-03 2.343776e-03
N 3.173061e+00 -3.683012e+00 1.889034e+00 -1.333056e-02 -5.460328e-03 -2.911388e-02
N 3.177280e+00 -3.693772e+00 6.919061e+00 -1.068512e-02 -5.026739e-03 2.478737e-02
N 3.171749e+00 -3.693687e+00 -3.349495e+00 -8.559477e-03 -2.614354e-02 1.896325e-02
N 1.608934e+00 -9.509766e-01 1.897664e+00 -3.481803e-03 4.074784e-03 -3.704254e-02
N 1.613280e+00 -9.767189e-01 6.915641e+00 2.156765e-03 1.549315e-02 1.185165e-03
N 1.601775e+00 -9.692967e-01 -3.353992e+00 -2.911100e-02 8.624200e-03 -3.425901e-03
N 3.127504e+00 1.800794e+00 1.889097e+00 -1.783792e-02 -1.374384e-02 -4.417022e-02
N 3.129980e+00 1.801939e+00 6.917221e+00 -1.647150e-02 -1.172773e-02 7.708957e-03
N 3.133061e+00 1.801255e+00 -3.346584e+00 -2.543205e-03 -2.428820e-02 1.518601e-02
N 6.305730e+00 -3.693625e+00 1.890323e+00 -1.643499e-02 -1.006057e-02 -4.485944e-02
N 6.307981e+00 -3.694444e+00 6.917751e+00 -1.667068e-02 -1.037603e-02 8.222042e-03
N 6.305982e+00 -3.688044e+00 -3.346678e+00 -1.668477e-02 9.244163e-03 1.571477e-02
N 4.736813e+00 -9.813365e-01 1.890661e+00 -2.075701e-02 5.878597e-03 -4.208511e-02
N 4.740964e+00 -9.797938e-01 6.918563e+00 -1.788512e-02 5.911571e-03 1.259169e-02
N 4.744374e+00 -9.747081e-01 -3.348983e+00 1.580759e-02 2.183379e-02 1.850547e-02
N -3.216067e+00 1.807233e+00 1.866252e+00 1.896937e-02 9.048516e-03 -1.931329e-02
N -3.215742e+00 1.809718e+00 6.910304e+00 1.748051e-03 1.801742e-02 -1.366437e-02
N -3.219427e+00 1.807067e+00 -3.350381e+00 2.145478e-03 -1.176926e-03 -1.561969e-04
N -3.414153e-02 -3.688354e+00 1.870644e+00 1.918607e-02 -8.338872e-03 -2.674559e-02
N -3.528818e-02 -3.693198e+00 6.917543e+00 1.859172e-02 -9.856776e-03 8.552058e-03
N -3.786493e-02 -3.687569e+00 -3.346219e+00 1.919062e-02 1.113946e-02 1.495722e-02
N -1.610075e+00 -9.736642e-01 1.885544e+00 1.527756e-03 3.183711e-02 -4.129318e-02
N -1.605595e+00 -9.758640e-01 6.911376e+00 9.641822e-04 1.570950e-02 -1.630793e-02
N -1.610513e+00 -9.770397e-01 -3.346348e+00 8.626476e-04 1.167884e-02 2.495120e-02
