108
Energy=-2.588113e+06 Lattice="9.661985e+00 0.000000e+00 0.000000e+00 -4.831417e+00 8.366867e+00 0.000000e+00 -1.112983e-03 8.340771e-04 1.568353e+01" Stress="-1.955921e-06 -2.317717e-06 6.782492e-06 -2.603536e-06 -1.374848e-07 -3.673372e-06 2.677752e-06 -4.010218e-07 3.182737e-06" Properties=species:S:1:pos:R:3:forces:R:3 Config_type=AlGaN_super3_47_0_17.xyz
Al 1.582990e+00 8.991524e-01 2.462768e+00 -2.152770e-06 1.362966e-06 -1.063548e-06
Ga 1.581110e+00 8.943536e-01 7.706473e+00 -1.949149e-07 -3.740784e-06 2.743102e-07
Ga 1.583810e+00 9.023714e-01 -2.766774e+00 4.078780e-06 -4.961223e-06 1.067239e-05
Al -1.828759e-02 3.671031e+00 2.466311e+00 1.184487e-06 1.699071e-06 3.402688e-06
Ga -3.035688e-02 3.672455e+00 7.705108e+00 9.957127e-07 -4.415018e-07 -3.527820e-07
Ga -1.626961e-02 3.670235e+00 -2.770973e+00 8.747503e-07 2.591244e-06 -6.636233e-07
Ga 3.196523e+00 -1.901872e+00 2.470090e+00 3.883010e-07 -1.066489e-06 -3.144093e-06
Ga 3.192971e+00 -1.905972e+00 7.687999e+00 -7.459224e-07 -8.892135e-08 2.703706e-06
Ga 3.194556e+00 -1.902942e+00 -2.754092e+00 -3.320321e-06 -1.520226e-06 4.354954e-06
Ga -4.863773e+00 8.921449e-01 2.468333e+00 -6.717157e-06 -3.373250e-08 -1.510569e-06
Ga -4.851752e+00 8.975454e-01 7.695596e+00 -8.094870e-07 -1.984814e-06 5.425592e-06
Ga -4.859358e+00 9.010087e-01 -2.761687e+00 -7.248427e-07 5.375452e-06 -5.456254e-06
Ga -6.473330e+00 3.673473e+00 2.480828e+00 -5.032792e-06 -6.067474e-07 1.094601e-06
Ga -6.450534e+00 3.682935e+00 7.677036e+00 1.816633e-06 -2.640933e-07 -2.851325e-06
Al -6.464555e+00 3.678127e+00 -2.757629e+00 -3.593210e-08 1.632499e-06 -2.317093e-06
Ga -3.240304e+00 -1.904754e+00 2.453093e+00 1.876058e-06 2.093804e-06 -2.619842e-06
Ga -3.245078e+00 -1.901946e+00 7.697911e+00 -4.718593e-06 3.394983e-06 5.054942e-06
Ga -3.232936e+00 -1.906603e+00 -2.746036e+00 1.860067e-06 3.378500e-07 1.018331e-06
Ga -1.620822e+00 8.901771e-01 2.459799e+00 -4.589624e-06 -2.168729e-06 1.045504e-06
Ga -1.630718e+00 9.026729e-01 7.697354e+00 -1.863778e-06 1.850752e-06 -1.047373e-06
Ga -1.624910e+00 8.907170e-01 -2.755744e+00 -7.816737e-07 -8.776199e-08 4.614546e-06
Ga -3.240582e+00 3.681183e+00 2.477285e+00 -2.676199e-07 -1.411119e-06 -5.261064e-08
Al -3.252138e+00 3.684035e+00 7.680868e+00 8.576388e-07 1.695874e-07 -1.077705e-06
Ga -3.251467e+00 3.680027e+00 -2.757146e+00 -1.308988e-06 2.847856e-06 -6.596158e-08
Ga -2.638551e-02 -1.895818e+00 2.468483e+00 -2.686924e-06 -3.546039e-06 2.441750e-07
Ga -1.695157e-02 -1.915574e+00 7.683446e+00 2.786147e-06 -1.657960e-06 -1.517682e-06
Ga -3.048710e-02 -1.905088e+00 -2.748663e+00 -5.313901e-06 -2.974303e-06 4.005447e-06
Ga -1.553102e-02 1.822955e+00 5.056277e+00 2.454183e-06 1.995298e-06 -2.422226e-06
Al -2.437841e-02 1.818683e+00 -5.371571e+00 -1.918230e-06 -5.260028e-08 -1.637071e-06
Ga -2.342422e-02 1.815238e+00 -1.240584e-01 -3.808572e-06 4.133101e-06 9.080088e-07
Ga 3.192615e+00 -3.767087e+00 5.082992e+00 -2.850016e-06 -1.699291e-06 -3.007067e-06
Ga 3.193530e+00 -3.769939e+00 -5.390015e+00 -1.367621e-06 2.298928e-06 4.566884e-06
Ga 3.202004e+00 -3.763902e+00 -1.311122e-01 -4.994533e-06 -1.011953e-06 1.426741e-06
Ga 1.580765e+00 -9.670876e-01 5.067873e+00 -9.237333e-06 -3.113728e-06 -2.484182e-06
Ga 1.581621e+00 -9.632336e-01 -5.374154e+00 6.890823e-07 -3.607028e-07 7.321851e-07
Ga 1.575177e+00 -9.646629e-01 -1.328371e-01 -1.048727e-05 5.350311e-06 4.500419e-06
Ga 3.193065e+00 1.821912e+00 5.072434e+00 -1.549249e-06 -2.483288e-06 5.113083e-06
Ga 3.188031e+00 1.827011e+00 -5.367910e+00 -1.224729e-06 9.371101e-07 -8.178788e-08
Ga 3.192268e+00 1.826316e+00 -1.437370e-01 -2.320656e-06 5.933062e-07 2.761169e-07
Ga 6.419032e+00 -3.761215e+00 5.068226e+00 -6.170474e-07 -2.764800e-07 5.143581e-06
Ga 6.420573e+00 -3.769008e+00 -5.363539e+00 -7.083043e-07 3.706792e-07 -3.249375e-06
Ga 6.425603e+00 -3.760115e+00 -1.453773e-01 -4.249889e-06 -2.933561e-06 -4.593570e-06
Ga 4.811004e+00 -9.697107e-01 5.078071e+00 3.485191e-07 1.703328e-06 1.010042e-06
Ga 4.808209e+00 -9.714296e-01 -5.367772e+00 -3.224309e-06 -9.633924e-07 4.404416e-06
Ga 4.816525e+00 -9.693782e-01 -1.452930e-01 -2.704495e-06 1.162624e-06 -2.283751e-06
Ga -3.247049e+00 1.831548e+00 5.090825e+00 1.265857e-06 -1.210068e-06 1.620905e-06
Ga -3.231864e+00 1.828400e+00 -5.386596e+00 3.397417e-06 2.462884e-08 -6.304875e-07
Ga -3.237490e+00 1.812568e+00 -1.444487e-01 -2.413839e-07 3.457142e-06 3.118671e-06
Al -1.766259e-02 -3.760249e+00 5.085876e+00 -1.268044e-06 -2.007410e-06 5.687119e-07
Ga -2.097378e-02 -3.764245e+00 -5.371011e+00 3.132572e-06 -2.911914e-06 -3.116727e-06
Ga -3.478684e-02 -3.754653e+00 -1.543795e-01 -7.281610e-06 2.473557e-06 2.391092e-06
Ga -1.628943e+00 -9.773778e-01 5.082655e+00 -3.070396e-06 -3.312567e-06 -6.751093e-07
Ga -1.627064e+00 -9.612298e-01 -5.376883e+00 -1.092196e-06 -1.728914e-06 -1.961224e-06
Al -1.630646e+00 -9.686615e-01 -1.443755e-01 -2.864753e-06 -1.125193e-06 2.826741e-06
N 1.589017e+00 8.899767e-01 4.381297e+00 1.356141e-06 1.901781e-06 1.419860e-06
N 1.544488e+00 9.161228e-01 -5.989227e+00 4.119076e-07 7.989287e-07 7.792645e-07
N 1.582557e+00 8.926974e-01 -7.867963e-01 3.328827e-06 -6.921893e-06 -1.674602e-06
N -2.542149e-02 3.681782e+00 4.387261e+00 4.598610e-06 -8.162072e-06 -9.343849e-07
N -2.023845e-02 3.628804e+00 -5.989715e+00 5.833572e-07 -4.367306e-07 2.598056e-06
N -2.292977e-02 3.672961e+00 -7.881878e-01 2.508955e-06 -3.252320e-06 -9.107986e-07
N 3.197625e+00 -1.902758e+00 4.448710e+00 -3.137304e-06 -1.051822e-06 3.815806e-06
N 3.196350e+00 -1.898780e+00 -6.014184e+00 3.869857e-06 -2.809854e-06 -4.829329e-06
N 3.193183e+00 -1.901180e+00 -7.709743e-01 6.089210e-06 -1.565698e-06 -2.102153e-06
N -4.852318e+00 8.923639e-01 4.446604e+00 -6.743483e-07 -9.837721e-07 4.736889e-07
N -4.855897e+00 8.917373e-01 -6.005296e+00 4.482368e-06 -2.941710e-06 -2.820545e-06
N -4.856400e+00 8.932440e-01 -7.817454e-01 1.593215e-06 5.388245e-07 6.111539e-06
N -6.420007e+00 3.704358e+00 4.467031e+00 9.173957e-07 4.127030e-06 -1.320705e-06
N -6.461478e+00 3.681707e+00 -6.026602e+00 -9.679271e-07 9.970734e-07 7.574187e-07
N -6.466254e+00 3.677086e+00 -8.357905e-01 -6.940100e-07 4.230983e-06 -2.782065e-06
N -3.239881e+00 -1.898206e+00 4.432549e+00 8.033677e-06 -1.396003e-06 -4.375264e-06
N -3.242706e+00 -1.903251e+00 -6.005636e+00 9.360420e-08 1.336102e-06 -3.372946e-06
N -3.198458e+00 -1.877456e+00 -7.580900e-01 -2.022413e-06 1.730616e-05 -1.262435e-05
N -1.636765e+00 8.871558e-01 4.441518e+00 -3.139628e-06 2.480009e-06 -4.645036e-07
N -1.587807e+00 9.159846e-01 -5.999515e+00 3.478305e-07 1.730973e-06 -7.812200e-07
N -1.626291e+00 8.439650e-01 -7.622343e-01 7.430340e-06 -6.442700e-06 -5.156201e-07
N -3.286398e+00 3.703716e+00 4.459883e+00 4.278079e-06 3.809193e-06 -3.578376e-06
N -3.250953e+00 3.682517e+00 -6.076634e+00 4.565527e-07 6.005350e-07 2.176362e-06
N -3.243038e+00 3.679979e+00 -7.782837e-01 6.104079e-06 -2.981167e-06 1.429123e-06
N -2.577704e-02 -1.950048e+00 4.458852e+00 2.865794e-06 1.245650e-06 3.156212e-06
N -2.179949e-02 -1.905711e+00 -6.018034e+00 -1.524892e-06 1.570336e-06 1.210433e-06
N -6.457818e-02 -1.873798e+00 -7.616584e-01 7.241606e-06 -6.924264e-06 -8.310504e-07
N 1.952996e-02 1.844854e+00 1.868248e+00 -1.510779e-06 3.188078e-06 1.677907e-06
N -1.933908e-02 1.821866e+00 7.036811e+00 -3.244141e-06 4.244933e-06 -7.114229e-07
N -2.611370e-02 1.817614e+00 -3.452042e+00 -1.483962e-06 1.646614e-06 2.138822e-07
N 3.240449e+00 -3.786212e+00 1.854794e+00 4.873847e-07 1.738617e-06 -1.577382e-06
N 3.159526e+00 -3.787322e+00 7.074146e+00 -3.292444e-06 1.140635e-06 1.050125e-06
N 3.194680e+00 -3.761621e+00 -3.406573e+00 3.994186e-06 -1.258688e-06 -5.691146e-06
N 1.584745e+00 -9.203870e-01 1.855703e+00 2.242660e-06 1.423251e-06 -7.308507e-07
N 1.586034e+00 -9.621867e-01 7.050950e+00 -2.431069e-06 2.300397e-06 -4.982768e-07
N 1.583840e+00 -9.702305e-01 -3.392234e+00 6.906812e-06 2.528998e-06 -3.649300e-06
N 3.153958e+00 1.800626e+00 1.845176e+00 2.334002e-06 -3.078943e-06 1.422449e-06
N 3.191635e+00 1.815614e+00 7.053008e+00 1.385243e-06 3.229043e-06 -4.613407e-06
N 3.195805e+00 1.871108e+00 -3.381411e+00 -1.755381e-07 -3.537963e-06 3.553762e-06
N 6.379776e+00 -3.787864e+00 1.844308e+00 -1.347053e-06 -3.464636e-07 4.640172e-06
N 6.412320e+00 -3.761757e+00 7.051553e+00 2.057066e-06 4.332003e-07 -4.337466e-06
N 6.462419e+00 -3.782468e+00 -3.374770e+00 2.447396e-06 -1.651145e-06 3.757341e-06
N 4.806757e+00 -9.693168e-01 1.829604e+00 5.798444e-06 -3.442842e-06 1.523218e-06
N 4.808518e+00 -9.686400e-01 7.057246e+00 1.751061e-06 7.176872e-07 -1.884171e-06
N 4.810457e+00 -9.718078e-01 -3.385795e+00 4.636770e-07 -2.523346e-06 -4.226971e-06
N -3.243314e+00 1.820126e+00 1.833755e+00 8.704045e-06 2.389452e-06 -5.448906e-06
N -3.242750e+00 1.868389e+00 7.079314e+00 3.972766e-06 -8.975807e-07 2.382571e-06
N -3.239243e+00 1.821754e+00 -3.401893e+00 -4.686503e-06 -3.814409e-07 -4.130195e-06
N -2.733088e-02 -3.761474e+00 1.823927e+00 4.851845e-06 -4.223477e-07 -4.396134e-06
N 2.066334e-02 -3.782622e+00 7.012257e+00 1.446897e-07 -2.662438e-06 2.703925e-06
N -6.423570e-02 -3.783089e+00 -3.379564e+00 2.489593e-07 -1.267586e-06 3.710460e-06
N -1.630660e+00 -9.692978e-01 1.776595e+00 -2.990522e-06 9.491917e-06 1.228479e-06
N -1.632794e+00 -9.674690e-01 7.063081e+00 -1.288004e-06 -2.511547e-06 8.334358e-07
N -1.632328e+00 -9.683342e-01 -3.399656e+00 5.685673e-07 -3.404628e-06 5.523066e-07
