108
Energy=-2.176133e+06 Lattice="9.609470e+00 0.000000e+00 0.000000e+00 -4.806208e+00 8.321105e+00 0.000000e+00 -2.060254e-03 -2.586081e-03 1.556896e+01" Stress="1.625962e-04 -6.051842e-05 -4.185827e-05 -6.559354e-05 1.485393e-04 3.295757e-05 -4.566030e-05 2.047245e-05 2.688740e-04" Properties=species:S:1:pos:R:3:forces:R:3 Config_type=AlGaN_super3_38_1_9.xyz
Al 1.577478e+00 8.842625e-01 2.422507e+00 1.243939e-04 -1.171899e-05 2.161873e-04
Al 1.577473e+00 8.829882e-01 7.639077e+00 1.120272e-04 1.046753e-04 8.910250e-05
Al 1.584427e+00 8.803820e-01 -2.731179e+00 2.300252e-06 7.614853e-05 1.067897e-05
Al -3.067917e-02 3.652394e+00 2.413772e+00 1.607616e-04 5.990070e-05 1.838371e-04
Al -2.084734e-02 3.654406e+00 7.661854e+00 2.619205e-05 5.518194e-05 6.866260e-05
Ga -3.153179e-02 3.661180e+00 -2.739709e+00 9.313996e-05 2.644525e-05 3.121566e-04
Al 3.172268e+00 -1.894536e+00 2.440371e+00 5.212216e-05 1.585136e-04 6.305662e-05
Ga 3.172498e+00 -1.887367e+00 7.650447e+00 1.443950e-04 4.260659e-05 4.207734e-04
Al 3.174498e+00 -1.893153e+00 -2.757428e+00 5.316904e-05 -3.413836e-05 4.795385e-05
Ga -4.853187e+00 8.793566e-01 2.429539e+00 1.027385e-04 3.926720e-05 2.092047e-04
Ga -4.846457e+00 8.807260e-01 7.668115e+00 9.628586e-05 -2.568757e-05 1.380035e-04
Ga -4.859346e+00 8.746214e-01 -2.750992e+00 6.069282e-05 4.844352e-05 1.500971e-04
Ga -6.446288e+00 3.641476e+00 2.436566e+00 -4.422368e-05 2.412579e-05 1.571041e-04
Ga -6.451262e+00 3.644710e+00 7.664131e+00 -1.262361e-06 -3.212598e-05 1.698285e-04
Ga -6.440290e+00 3.646040e+00 -2.756481e+00 1.180401e-05 -5.253035e-05 1.571649e-04
Ga -3.240739e+00 -1.899335e+00 2.443586e+00 -1.793338e-05 -7.179780e-05 1.461905e-04
Ga -3.238416e+00 -1.900562e+00 7.666692e+00 -1.468832e-05 4.071756e-05 1.019280e-04
Ga -3.233265e+00 -1.893686e+00 -2.762878e+00 3.277909e-05 -6.231528e-05 8.441864e-05
Ga -1.601740e+00 8.977730e-01 2.435606e+00 7.416335e-06 -7.008657e-05 3.210791e-04
Ga -1.609537e+00 8.953258e-01 7.646126e+00 -5.679956e-06 -1.093147e-04 1.845873e-04
Ga -1.599861e+00 8.822056e-01 -2.729295e+00 1.021659e-04 -8.420759e-05 1.492519e-04
Ga -3.207672e+00 3.672249e+00 2.432366e+00 -3.079553e-05 -1.667178e-04 2.572297e-04
Ga -3.212300e+00 3.662337e+00 7.657903e+00 1.657158e-05 -1.494560e-04 1.584144e-04
Ga -3.210426e+00 3.686008e+00 -2.736821e+00 6.230392e-06 -6.675583e-05 1.695335e-04
Ga -4.317428e-04 -1.877658e+00 2.455485e+00 2.611477e-05 -8.099390e-05 1.777459e-04
Ga -4.791453e-03 -1.873554e+00 7.635344e+00 -5.541362e-05 -6.865915e-05 1.866645e-04
Al -4.827273e-03 -1.878145e+00 -2.739770e+00 -8.829921e-05 -4.884645e-05 1.342986e-04
Ga -3.540487e-03 1.811031e+00 5.041513e+00 3.707981e-06 5.245780e-05 2.236454e-04
Ga 3.334911e-03 1.827272e+00 -5.341077e+00 -1.963322e-05 7.191709e-05 2.736296e-04
Al -3.440840e-03 1.818496e+00 -1.474200e-01 -4.144920e-05 6.179719e-05 -5.696147e-05
Ga 3.190134e+00 -3.730800e+00 5.032446e+00 3.216929e-06 3.676683e-05 2.792095e-04
Al 3.204072e+00 -3.725905e+00 -5.335947e+00 3.213282e-05 1.219353e-04 1.187450e-04
Al 3.193374e+00 -3.731874e+00 -1.427164e-01 -1.132994e-05 -3.137911e-05 -1.262589e-04
Al 1.588583e+00 -9.529778e-01 5.024517e+00 -3.275187e-05 3.505776e-06 -3.659348e-05
Ga 1.602529e+00 -9.519301e-01 -5.303646e+00 -8.013118e-05 5.718119e-05 3.810623e-04
Ga 1.594711e+00 -9.548435e-01 -1.719882e-01 -5.395133e-05 -6.887227e-05 1.047813e-04
Ga 3.161646e+00 1.793355e+00 5.044980e+00 9.311933e-06 -1.055475e-04 1.996718e-04
Al 3.165820e+00 1.800761e+00 -5.335139e+00 -1.073596e-04 -9.859299e-05 1.004407e-04
Al 3.157740e+00 1.803899e+00 -1.536949e-01 -2.590886e-05 1.769459e-05 -1.004083e-04
Ga 6.367914e+00 -3.748824e+00 5.045240e+00 -3.714443e-06 5.216785e-06 1.523203e-04
Al 6.367249e+00 -3.742555e+00 -5.339303e+00 -3.981386e-05 7.943867e-06 1.929984e-04
Ga 6.371194e+00 -3.756675e+00 -1.498602e-01 -4.586505e-05 -9.431444e-05 3.517306e-04
Ga 4.762735e+00 -9.691318e-01 5.035647e+00 -2.597399e-05 -2.470822e-05 1.720174e-04
Al 4.770909e+00 -9.732824e-01 -5.321654e+00 -1.156062e-04 -1.450499e-04 1.885269e-04
Ga 4.760227e+00 -9.745385e-01 -1.557519e-01 -1.497033e-04 -1.779987e-04 9.459060e-05
Ga -3.231433e+00 1.809319e+00 5.045881e+00 1.807790e-05 -2.046653e-05 -4.711285e-05
Ga -3.235857e+00 1.811700e+00 -5.320184e+00 7.582816e-05 -3.976404e-05 1.552692e-04
Ga -3.223020e+00 1.816236e+00 -1.615743e-01 -8.455939e-06 -4.691370e-06 3.225611e-04
Ga -2.044183e-02 -3.734013e+00 5.048741e+00 7.939698e-05 2.020431e-05 3.147498e-05
Ga -2.500795e-02 -3.739642e+00 -5.319513e+00 4.650502e-05 8.997891e-05 2.486408e-04
Ga -1.979644e-02 -3.737487e+00 -1.646489e-01 -6.406249e-06 -2.533441e-05 3.070187e-05
Ga -1.618350e+00 -9.662266e-01 5.048356e+00 -2.998193e-05 -2.463664e-05 3.242250e-05
Ga -1.629988e+00 -9.719275e-01 -5.319917e+00 -5.119910e-06 -9.554251e-06 9.579879e-05
Ga -1.612423e+00 -9.620060e-01 -1.587288e-01 -6.411041e-05 -1.378810e-04 9.889116e-05
N 1.574895e+00 8.387800e-01 4.352867e+00 9.294315e-05 1.857752e-04 1.725716e-05
N 1.620903e+00 8.991287e-01 -6.009087e+00 1.780781e-05 -3.243458e-05 1.135320e-05
N 1.578091e+00 9.362834e-01 -8.038416e-01 1.720381e-04 -8.617554e-05 -6.475252e-05
N -2.859257e-02 3.652114e+00 4.336399e+00 2.711691e-05 -2.786690e-05 -1.059532e-05
N -2.484295e-02 3.707703e+00 -5.981039e+00 4.558169e-05 -1.844395e-04 -2.614639e-05
N -7.102124e-02 3.634579e+00 -7.503254e-01 1.906010e-04 8.612587e-05 -3.644288e-04
N 3.133709e+00 -1.870268e+00 4.368716e+00 2.101640e-04 -8.671985e-05 5.460558e-06
N 3.216466e+00 -1.907204e+00 -5.929698e+00 -4.537746e-05 9.182476e-06 -3.711369e-04
N 3.181394e+00 -1.945470e+00 -8.337478e-01 1.314364e-04 1.848743e-04 3.613702e-05
N -4.835645e+00 8.862222e-01 4.404820e+00 -4.225998e-05 6.497646e-05 -1.325497e-04
N -4.872817e+00 8.585480e-01 -5.910512e+00 1.559639e-04 1.917394e-04 -2.885275e-04
N -4.878592e+00 9.061533e-01 -7.654423e-01 1.297814e-04 8.965082e-06 -2.520698e-04
N -6.433404e+00 3.652308e+00 4.415468e+00 -8.949421e-05 -1.243873e-06 -1.788371e-04
N -6.472758e+00 3.632874e+00 -5.913700e+00 1.273230e-04 1.028077e-04 -3.691189e-04
N -6.433514e+00 3.606941e+00 -7.716420e-01 -7.421385e-05 9.791529e-05 -2.214247e-04
N -3.228732e+00 -1.892414e+00 4.417500e+00 -6.224800e-06 1.396579e-05 -1.522782e-04
N -3.269860e+00 -1.910687e+00 -5.912228e+00 1.894240e-04 7.313391e-05 -2.413703e-04
N -3.228877e+00 -1.892166e+00 -7.862328e-01 -1.340150e-05 -3.949304e-05 -1.059755e-04
N -1.618273e+00 8.899772e-01 4.416073e+00 3.310092e-05 1.326266e-05 -1.240027e-04
N -1.619866e+00 8.896440e-01 -5.950045e+00 3.177032e-05 4.050227e-06 -1.549109e-04
N -1.572858e+00 9.135979e-01 -7.517378e-01 -1.431691e-04 -8.136006e-05 -1.692607e-04
N -3.223724e+00 3.661536e+00 4.408955e+00 -1.259957e-06 -2.805456e-05 -1.163323e-04
N -3.180057e+00 3.687768e+00 -5.930474e+00 -1.596631e-04 -1.055469e-04 -2.190177e-04
N -3.175157e+00 3.690812e+00 -7.582914e-01 -1.676292e-04 -1.399168e-04 -1.064703e-04
N 2.275881e-02 -1.863829e+00 4.438430e+00 -8.478280e-05 -5.680274e-05 -1.460023e-04
N -8.185822e-03 -1.879992e+00 -5.958620e+00 5.861667e-06 -1.341620e-04 -1.788544e-04
N -1.509317e-02 -1.885014e+00 -8.297844e-01 2.038653e-05 -9.933915e-05 -3.661809e-05
N 2.707398e-02 1.831804e+00 1.785597e+00 -1.794565e-04 -5.689879e-06 5.763309e-05
N 2.644138e-02 1.839143e+00 7.044410e+00 -9.644757e-05 2.587932e-05 -3.767425e-04
N 2.934792e-02 1.788844e+00 -3.360522e+00 -1.009684e-04 1.489180e-04 -2.896958e-04
N 3.225711e+00 -3.705978e+00 1.790015e+00 -1.433154e-04 -5.962624e-05 5.607523e-05
N 3.229770e+00 -3.760777e+00 7.020973e+00 -7.497626e-05 1.910691e-04 -3.459564e-04
N 3.189448e+00 -3.690207e+00 -3.418676e+00 -3.852588e-05 -7.440211e-05 -3.835237e-05
N 1.625633e+00 -9.400914e-01 1.824451e+00 -1.267947e-04 -1.775597e-05 -2.303006e-04
N 1.588243e+00 -9.110523e-01 6.959414e+00 -5.385178e-05 -9.590190e-05 -5.762901e-05
N 1.584300e+00 -9.559974e-01 -3.305127e+00 -1.443686e-05 -2.886077e-06 -4.340949e-04
N 3.130524e+00 1.783243e+00 1.767332e+00 2.222584e-05 1.705226e-05 1.340774e-04
N 3.135550e+00 1.782587e+00 7.026749e+00 -6.406572e-05 5.310531e-05 -1.381525e-04
N 3.127214e+00 1.779894e+00 -3.416807e+00 6.734819e-05 9.403776e-05 4.025908e-05
N 6.341410e+00 -3.764287e+00 1.827269e+00 6.957148e-05 1.390441e-04 -3.623010e-04
N 6.336970e+00 -3.765289e+00 7.032360e+00 4.999545e-05 1.150138e-05 -1.765747e-04
N 6.376170e+00 -3.744998e+00 -3.424914e+00 -6.959607e-05 -1.058590e-05 6.832786e-05
N 4.732910e+00 -9.947997e-01 1.826848e+00 6.163873e-05 7.152572e-05 -1.652599e-04
N 4.777708e+00 -9.660414e-01 7.012214e+00 -1.811910e-04 -1.496386e-04 -1.414992e-04
N 4.735685e+00 -9.897597e-01 -3.402390e+00 3.541404e-05 3.802175e-05 -4.689205e-05
N -3.229049e+00 1.807344e+00 1.814766e+00 2.027242e-05 1.426656e-04 -4.042961e-04
N -3.234411e+00 1.806797e+00 7.025434e+00 -3.266655e-05 1.350633e-04 -2.292840e-05
N -3.226984e+00 1.809792e+00 -3.344438e+00 -1.047188e-04 1.026429e-04 -2.050857e-04
N -2.696550e-02 -3.734693e+00 1.814346e+00 5.467487e-05 1.586769e-04 -9.802746e-05
N -2.724383e-02 -3.743718e+00 7.028796e+00 -1.723829e-05 9.067916e-05 -1.363453e-04
N -2.368472e-02 -3.689649e+00 -3.340386e+00 1.789895e-06 -1.019755e-04 -2.554639e-04
N -1.620883e+00 -9.695104e-01 1.818989e+00 -3.245802e-05 9.318985e-05 -1.743168e-04
N -1.630835e+00 -9.672745e-01 7.023604e+00 -1.892004e-05 -4.777173e-05 -9.167900e-05
N -1.579428e+00 -9.879974e-01 -3.344627e+00 -1.610436e-04 4.146071e-05 -1.512546e-04
