108
Energy=-8.028681e+05 Lattice="9.440571e+00 0.000000e+00 0.000000e+00 -4.723220e+00 8.171374e+00 0.000000e+00 3.041217e-03 5.705959e-05 1.517715e+01" Stress="4.142050e-04 -1.409478e-04 2.587326e-04 -1.317455e-04 -2.396758e-04 -1.500404e-06 2.456746e-04 -9.425563e-06 1.203764e-03" Properties=species:S:1:pos:R:3:forces:R:3 Config_type=AlGaN_super3_8_1_21.xyz
Al 1.558580e+00 8.785679e-01 2.373408e+00 -4.749275e-04 -2.161821e-04 2.094075e-04
Al 1.557471e+00 8.778204e-01 7.444292e+00 -6.334643e-05 -2.600684e-04 8.240528e-05
Al 1.549335e+00 8.716459e-01 -2.686177e+00 2.899564e-04 4.903714e-05 2.057164e-04
Al -4.535235e-03 3.583618e+00 2.386172e+00 -7.872204e-04 2.137627e-05 -7.335773e-05
Al -1.376831e-02 3.585813e+00 7.447979e+00 -7.507309e-05 -5.266453e-05 -2.411671e-04
Al -1.273559e-02 3.588958e+00 -2.693585e+00 1.137629e-04 2.077888e-04 -2.515529e-04
Al 3.131230e+00 -1.844513e+00 2.394293e+00 6.090364e-05 -1.556277e-03 1.042174e-03
Al 3.132942e+00 -1.850992e+00 7.444041e+00 -1.808800e-04 1.344107e-04 -1.700204e-04
Al 3.121754e+00 -1.850540e+00 -2.689766e+00 -1.568558e-04 -9.485526e-04 2.880008e-04
Al -4.739756e+00 8.751844e-01 2.394333e+00 -3.732002e-04 4.085740e-05 -3.245930e-04
Al -4.745022e+00 8.727879e-01 7.424985e+00 2.752484e-04 2.353578e-04 -1.423124e-04
Al -4.751491e+00 8.761110e-01 -2.679350e+00 1.285859e-04 1.084644e-04 4.563406e-05
Al -6.318676e+00 3.586886e+00 2.379692e+00 -5.117977e-04 2.276416e-04 -9.903318e-05
Al -6.322157e+00 3.583801e+00 7.440485e+00 7.256462e-05 6.563456e-05 2.210587e-04
Al -6.331053e+00 3.590341e+00 -2.681802e+00 1.044585e-04 5.155337e-05 -2.570722e-05
Al -3.174482e+00 -1.863719e+00 2.381352e+00 3.742923e-04 4.146673e-04 -6.008831e-04
Al -3.178822e+00 -1.863565e+00 7.446438e+00 8.922584e-04 7.432262e-04 -1.681312e-04
Al -3.160246e+00 -1.862760e+00 -2.680667e+00 1.033885e-05 -8.492518e-06 -1.257923e-04
Al -1.595214e+00 8.837496e-01 2.368589e+00 -1.279725e-04 1.003360e-05 -1.078542e-04
Al -1.598087e+00 8.865997e-01 7.452519e+00 -3.731948e-05 -1.570974e-04 2.195311e-04
Al -1.599014e+00 8.648165e-01 -2.684112e+00 5.448756e-04 -1.037575e-04 -8.017358e-05
Al -3.174475e+00 3.576991e+00 2.380165e+00 -1.379269e-03 3.576481e-05 2.684406e-04
Al -3.172820e+00 3.580873e+00 7.455985e+00 1.630136e-04 -3.787207e-05 4.571516e-05
Ga -3.174892e+00 3.589276e+00 -2.686253e+00 5.202642e-04 8.057026e-05 -4.930572e-04
Ga -1.248324e-02 -1.856103e+00 2.377346e+00 -2.786335e-04 8.983608e-05 -1.936180e-04
Ga -1.259020e-02 -1.855265e+00 7.456882e+00 2.812005e-04 5.037245e-05 -3.262133e-04
Al -2.873650e-02 -1.844934e+00 -2.683273e+00 3.128839e-04 -3.646145e-04 -1.103182e-04
Al -1.150887e-02 1.772728e+00 4.912320e+00 6.425353e-05 1.451466e-04 4.734601e-04
Al -2.507838e-02 1.774155e+00 -5.208474e+00 -7.808645e-05 3.167175e-04 1.687262e-04
Al -2.148021e-02 1.768806e+00 -1.614945e-01 7.853711e-05 4.582405e-04 2.842073e-04
Ga 3.127218e+00 -3.676909e+00 4.915337e+00 -3.617792e-04 2.174576e-04 -6.154891e-04
Al 3.125231e+00 -3.678938e+00 -5.223155e+00 3.606884e-05 3.047196e-04 -1.305142e-04
Ga 3.129216e+00 -3.677456e+00 -1.296812e-01 -3.424829e-04 -3.302575e-05 8.118626e-04
Al 1.568528e+00 -9.295012e-01 4.914622e+00 -5.128648e-04 -3.418147e-04 1.188939e-03
Al 1.548451e+00 -9.422041e-01 -5.194893e+00 -2.997108e-04 3.959155e-04 -1.904214e-04
Al 1.541680e+00 -9.350421e-01 -1.635911e-01 -2.905706e-04 -2.494521e-05 4.614507e-04
Al 3.121541e+00 1.778954e+00 4.906602e+00 -1.080887e-04 7.720562e-05 1.307014e-05
Al 3.115864e+00 1.785231e+00 -5.213831e+00 5.279868e-05 -1.193206e-04 2.049214e-04
Al 3.113367e+00 1.788033e+00 -1.496856e-01 9.158283e-04 -2.285192e-04 1.612879e-04
Al 6.280839e+00 -3.680116e+00 4.914134e+00 2.519447e-04 8.077969e-05 3.336773e-05
Al 6.276301e+00 -3.681208e+00 -5.208597e+00 1.095546e-04 -6.004963e-05 7.746968e-05
Al 6.283742e+00 -3.680276e+00 -1.538147e-01 1.893576e-04 2.217940e-04 3.016652e-04
Al 4.698333e+00 -9.412326e-01 4.913788e+00 1.778099e-04 -1.898406e-04 -2.323812e-04
Ga 4.698524e+00 -9.452221e-01 -5.201538e+00 -2.637430e-04 5.392862e-04 3.231379e-05
Ga 4.700468e+00 -9.372038e-01 -1.488474e-01 1.028955e-04 1.866755e-04 -1.819018e-05
Al -3.175453e+00 1.776875e+00 4.914642e+00 1.573822e-04 1.158482e-04 -4.043919e-05
Al -3.172020e+00 1.778025e+00 -5.219670e+00 9.262262e-05 1.110325e-04 2.576794e-04
Al -3.173833e+00 1.770641e+00 -1.409761e-01 -2.770663e-04 -5.115885e-05 3.121547e-04
Al -2.507962e-02 -3.691840e+00 4.916838e+00 -1.056399e-05 -2.380083e-05 4.783896e-04
Al -3.153777e-02 -3.674513e+00 -5.203421e+00 1.320666e-04 9.576749e-05 -2.291624e-04
Al -4.046523e-02 -3.670298e+00 -1.557319e-01 2.865181e-04 1.078681e-04 -1.295069e-04
Ga -1.599469e+00 -9.389530e-01 4.914867e+00 -5.473357e-04 5.210597e-04 2.156349e-04
Al -1.594031e+00 -9.411689e-01 -5.198788e+00 -2.945555e-04 2.142159e-04 -6.910005e-05
Al -1.593553e+00 -9.435335e-01 -1.593004e-01 -1.256620e-05 1.944330e-04 3.174580e-04
N 1.551466e+00 8.719017e-01 4.297709e+00 1.052382e-04 -9.107935e-05 -1.276982e-04
N 1.547383e+00 8.692102e-01 -5.809701e+00 2.725048e-04 -3.120607e-05 -8.592300e-05
N 1.549053e+00 8.741160e-01 -7.639918e-01 3.601190e-04 -1.953528e-04 3.061690e-04
N 2.431568e-02 3.564480e+00 4.298035e+00 5.259286e-04 -1.091502e-04 -3.406262e-05
N -1.893102e-02 3.587857e+00 -5.811622e+00 -6.809055e-05 -2.805670e-04 1.697374e-04
N 1.607988e-02 3.570293e+00 -7.768542e-01 1.925174e-04 -5.040468e-04 5.087837e-04
N 3.127068e+00 -1.808851e+00 4.302194e+00 5.922921e-05 4.710509e-04 3.971031e-05
N 3.082726e+00 -1.872559e+00 -5.824103e+00 -3.370709e-04 -3.295145e-04 2.696094e-04
N 3.082214e+00 -1.836728e+00 -7.864845e-01 -3.870472e-05 3.698750e-05 -2.279980e-04
N -4.743446e+00 8.715394e-01 4.317325e+00 4.048083e-04 6.541362e-05 2.455943e-04
N -4.750773e+00 9.160986e-01 -5.838595e+00 1.305815e-04 1.846872e-04 -3.459676e-04
N -4.750030e+00 9.238694e-01 -7.694819e-01 1.543069e-04 3.671506e-04 4.385601e-04
N -6.317973e+00 3.593222e+00 4.301821e+00 9.749300e-05 -4.203318e-04 4.221034e-05
N -6.321376e+00 3.591836e+00 -5.818204e+00 -3.964760e-05 -4.222020e-05 -1.372842e-04
N -6.322737e+00 3.592183e+00 -7.630443e-01 -1.814336e-05 -4.832265e-04 4.521350e-05
N -3.204725e+00 -1.883291e+00 4.292520e+00 -1.036206e-03 -4.633431e-05 5.165431e-04
N -3.130834e+00 -1.881335e+00 -5.819674e+00 3.863049e-04 -1.084456e-04 -9.953305e-05
N -3.129487e+00 -1.881840e+00 -7.694177e-01 5.331800e-04 -2.115241e-04 2.615635e-04
N -1.593662e+00 9.240685e-01 4.283761e+00 1.187610e-04 -4.235878e-04 2.231041e-05
N -1.598860e+00 8.735566e-01 -5.807954e+00 5.007087e-04 -2.408780e-04 -1.181614e-05
N -1.602722e+00 8.727938e-01 -7.594775e-01 4.049889e-04 -8.793328e-06 2.300741e-04
N -3.213143e+00 3.565357e+00 4.291458e+00 -2.951904e-04 -1.808360e-04 -1.947570e-04
N -3.178887e+00 3.592989e+00 -5.802436e+00 -1.068353e-05 -3.026284e-04 1.342099e-04
N -3.211545e+00 3.570537e+00 -7.194137e-01 -9.784453e-05 -3.078670e-04 6.079238e-04
N 2.327198e-02 -1.880995e+00 4.352418e+00 9.439636e-04 5.509305e-04 -1.090466e-04
N -2.119086e-02 -1.851748e+00 -5.748231e+00 1.490628e-04 -5.401405e-04 4.042220e-04
N -2.552144e-02 -1.851821e+00 -7.549050e-01 4.376541e-04 -1.357670e-04 1.201845e-04
N -1.686372e-02 1.776820e+00 1.762789e+00 1.130233e-05 -5.043749e-04 -4.919715e-04
N -1.975164e-02 1.773206e+00 6.838453e+00 -2.806293e-05 2.896932e-04 -9.477916e-05
N -2.569631e-02 1.772849e+00 -3.287302e+00 -2.526340e-04 1.240417e-05 1.458979e-04
N 3.129620e+00 -3.677181e+00 1.855725e+00 1.448776e-03 2.107944e-03 -1.631056e-03
N 3.126990e+00 -3.676905e+00 6.896167e+00 1.711860e-04 1.980937e-04 5.357567e-04
N 3.168744e+00 -3.652331e+00 -3.308580e+00 -2.982673e-04 8.336226e-04 7.108951e-05
N 1.600016e+00 -9.216015e-01 1.753490e+00 -8.289461e-04 8.732796e-04 -1.542688e-03
N 1.597950e+00 -9.185480e-01 6.827008e+00 -8.045161e-05 3.565114e-04 -9.237754e-04
N 1.551563e+00 -9.436279e-01 -3.279470e+00 -4.205965e-04 2.480459e-04 -1.338849e-04
N 3.128549e+00 1.778797e+00 1.777325e+00 -3.348413e-06 -3.794673e-04 -2.555241e-04
N 3.121060e+00 1.779029e+00 6.828600e+00 -6.995000e-05 -2.773607e-04 -1.873791e-04
N 3.119867e+00 1.778862e+00 -3.291562e+00 -1.041666e-04 -2.372934e-04 -9.115050e-05
N 6.278370e+00 -3.673311e+00 1.769082e+00 -4.832479e-04 -7.524135e-05 -4.742385e-04
N 6.274956e+00 -3.673902e+00 6.835412e+00 -7.709488e-06 7.935178e-05 -1.401220e-05
N 6.273076e+00 -3.672827e+00 -3.292421e+00 -7.792394e-05 8.481573e-05 -7.265282e-06
N 4.699175e+00 -9.438911e-01 1.830073e+00 7.273496e-04 2.661003e-04 -7.408554e-04
N 4.701823e+00 -9.485445e-01 6.839197e+00 -1.172015e-05 -1.318392e-04 -1.541568e-04
N 4.701193e+00 -9.448190e-01 -3.225259e+00 4.251996e-05 5.007154e-06 3.055813e-05
N -3.170289e+00 1.771139e+00 1.775471e+00 -4.948768e-04 -3.233624e-04 -3.962594e-04
N -3.166774e+00 1.778019e+00 6.835769e+00 9.156828e-05 -8.537681e-05 -6.290764e-05
N -3.173101e+00 1.727415e+00 -3.310845e+00 -1.054304e-04 -5.875036e-04 -9.471017e-05
N -2.493900e-02 -3.715931e+00 1.753851e+00 5.738394e-04 -1.024760e-03 3.320460e-04
N -2.020148e-02 -3.721150e+00 6.830913e+00 -8.315606e-05 -3.874838e-04 -3.733883e-04
N -6.801417e-02 -3.648986e+00 -3.294835e+00 -5.285759e-04 3.777128e-04 3.294628e-04
N -1.634220e+00 -9.223847e-01 1.762205e+00 -4.190169e-04 9.154679e-05 -3.684786e-04
N -1.634193e+00 -9.171073e-01 6.881209e+00 -1.133351e-03 -7.219325e-04 2.723747e-04
N -1.598228e+00 -9.434356e-01 -3.280216e+00 -4.172150e-04 1.364410e-04 9.961022e-05
