108
Energy=-1.764153e+06 Lattice="9.559509e+00 0.000000e+00 0.000000e+00 -4.786721e+00 8.275075e+00 0.000000e+00 -2.718531e-03 -2.891557e-03 1.546162e+01" Stress="5.456025e-04 -1.204949e-04 -2.048923e-06 -1.242815e-04 2.773640e-04 -1.103411e-04 -2.736633e-06 -1.141250e-04 1.336846e-03" Properties=species:S:1:pos:R:3:forces:R:3 Config_type=AlGaN_super3_29_2_14.xyz
Al 1.580864e+00 8.791288e-01 2.432328e+00 -1.562866e-03 -4.674839e-04 4.433638e-04
Al 1.574414e+00 8.893911e-01 7.566249e+00 7.774243e-04 -4.394802e-04 5.702207e-04
Al 1.563519e+00 8.855525e-01 -2.729724e+00 4.601391e-04 -1.754640e-04 7.816106e-04
Al -2.585952e-02 3.631090e+00 2.450925e+00 -5.299314e-05 -1.851013e-04 7.969157e-05
Al -6.821029e-03 3.634234e+00 7.577232e+00 -3.500117e-04 -1.526810e-04 2.204435e-04
Al -2.258523e-02 3.623023e+00 -2.750970e+00 -6.718295e-05 -1.137103e-04 4.803411e-04
Al 3.146682e+00 -1.882784e+00 2.429197e+00 -3.587028e-05 -1.155441e-04 2.069001e-04
Al 3.161556e+00 -1.875751e+00 7.582206e+00 1.360445e-04 -4.586718e-05 9.171447e-04
Ga 3.156853e+00 -1.886988e+00 -2.724856e+00 9.835286e-05 -1.539317e-04 4.790563e-04
Ga -4.821445e+00 9.007509e-01 2.452006e+00 7.149941e-04 -2.611488e-04 -4.692177e-04
Ga -4.833922e+00 8.894032e-01 7.572341e+00 8.560002e-04 -2.387415e-04 5.870932e-05
Ga -4.827381e+00 8.873765e-01 -2.730542e+00 1.865398e-04 -2.352330e-04 4.402841e-04
Al -6.409680e+00 3.623690e+00 2.452092e+00 9.934608e-04 -4.196320e-04 -5.182547e-04
Al -6.420458e+00 3.629027e+00 7.568520e+00 1.439343e-04 -2.630602e-04 6.965039e-06
Ga -6.407225e+00 3.627475e+00 -2.736991e+00 -1.001310e-04 -2.099948e-04 -3.130265e-05
Ga -3.211517e+00 -1.897325e+00 2.458471e+00 5.817972e-05 1.305365e-04 -5.527712e-04
Ga -3.221272e+00 -1.906206e+00 7.588963e+00 1.605586e-04 1.568759e-04 -2.691824e-06
Ga -3.208414e+00 -1.893577e+00 -2.744577e+00 -1.064846e-04 2.533611e-06 -3.443730e-04
Al -1.612825e+00 8.997364e-01 2.445765e+00 7.569964e-04 9.407801e-05 -3.262868e-04
Ga -1.607468e+00 9.017899e-01 7.588196e+00 4.374930e-04 -3.502765e-04 5.751195e-04
Ga -1.598849e+00 8.983998e-01 -2.732141e+00 1.035699e-03 -4.356692e-04 -1.013832e-03
Al -3.206057e+00 3.636621e+00 2.460732e+00 -3.176370e-04 5.773722e-05 -5.937530e-06
Ga -3.219724e+00 3.646182e+00 7.553092e+00 4.001745e-04 -1.435610e-04 9.258242e-04
Al -3.208774e+00 3.651180e+00 -2.723481e+00 2.607313e-04 -1.338524e-04 -1.216671e-04
Ga 3.352257e-03 -1.876363e+00 2.449401e+00 8.042333e-04 -1.088713e-04 3.056352e-04
Ga -1.173293e-03 -1.883496e+00 7.551291e+00 1.124207e-04 -3.320358e-05 6.820777e-04
Al -4.980435e-03 -1.875711e+00 -2.708846e+00 5.212797e-04 -2.837682e-06 2.113006e-04
Ga -6.432923e-03 1.796724e+00 4.989100e+00 -8.463544e-04 3.711171e-04 7.275031e-04
Al 8.364740e-03 1.813032e+00 -5.314966e+00 -2.284710e-04 3.451313e-05 8.036978e-04
Ga -2.047451e-03 1.794388e+00 -1.269039e-01 1.485323e-04 1.834957e-04 8.035250e-04
Ga 3.165155e+00 -3.712175e+00 4.999429e+00 -5.949838e-05 -1.131748e-04 3.320060e-04
Ga 3.194298e+00 -3.722575e+00 -5.315420e+00 -3.921712e-04 4.400477e-04 7.350788e-04
Ga 3.166921e+00 -3.725276e+00 -1.280802e-01 -1.192347e-06 6.521027e-04 -2.919429e-04
Al 1.590570e+00 -9.516592e-01 5.006262e+00 -4.525893e-04 2.465281e-04 5.303364e-04
Ga 1.589256e+00 -9.344093e-01 -5.306795e+00 -1.245293e-03 4.342325e-04 1.296381e-03
Al 1.578802e+00 -9.457896e-01 -1.506560e-01 -7.971301e-04 6.837718e-04 4.587595e-04
Al 3.151821e+00 1.815179e+00 5.007487e+00 -7.087768e-05 -2.166119e-04 1.420770e-05
Al 3.143895e+00 1.799701e+00 -5.329463e+00 -1.798544e-03 1.023860e-03 1.397419e-03
Al 3.142072e+00 1.791834e+00 -1.350967e-01 -2.695381e-04 -2.353503e-04 1.881120e-03
Al 6.367410e+00 -3.740470e+00 5.011624e+00 -4.159164e-04 -4.320397e-05 6.230572e-04
Al 6.347641e+00 -3.736452e+00 -5.322598e+00 5.814505e-04 -1.395001e-05 6.926115e-04
Ga 6.349357e+00 -3.738167e+00 -1.360554e-01 6.077994e-04 -8.764322e-05 1.652605e-03
Ga 4.741146e+00 -9.556370e-01 5.008750e+00 -1.037490e-04 1.141776e-04 1.624673e-04
Al 4.752771e+00 -9.594798e-01 -5.319319e+00 3.118141e-05 -5.105063e-05 3.194121e-04
Ga 4.745522e+00 -9.546376e-01 -1.227203e-01 -5.211490e-04 1.735709e-04 9.936228e-05
Al -3.222212e+00 1.809635e+00 4.991502e+00 3.541324e-04 1.499487e-04 2.780569e-04
Ga -3.223087e+00 1.800584e+00 -5.295187e+00 -1.623131e-04 -1.902281e-04 7.912299e-04
Ga -3.221124e+00 1.811470e+00 -1.299932e-01 -3.675412e-04 -2.699609e-04 -1.048926e-04
Al -3.555172e-02 -3.734594e+00 4.993516e+00 8.259579e-04 -6.266287e-04 -9.070886e-04
Ga -3.580356e-02 -3.720960e+00 -5.298184e+00 -2.976719e-04 -6.540849e-05 8.225044e-04
Ga -1.615325e-02 -3.721317e+00 -1.346216e-01 -5.540821e-04 3.402982e-04 1.278875e-04
Ga -1.608666e+00 -9.584288e-01 5.006140e+00 -5.628979e-04 1.000229e-03 1.793095e-04
Ga -1.612735e+00 -9.601706e-01 -5.296959e+00 -5.234356e-04 1.360308e-04 -4.265971e-06
Ga -1.599535e+00 -9.585475e-01 -1.344126e-01 -2.950068e-04 -4.884528e-05 1.419264e-04
N 1.617637e+00 8.524549e-01 4.360048e+00 5.139370e-04 -4.224929e-04 -6.391641e-04
N 1.570330e+00 9.260490e-01 -5.971022e+00 2.603385e-04 1.181805e-04 -3.108214e-04
N 1.606240e+00 8.604282e-01 -7.909620e-01 1.184789e-03 -4.039569e-04 -9.603675e-04
N 1.544244e-02 3.662989e+00 4.358962e+00 3.574588e-04 1.145197e-04 -2.627244e-04
N 1.999797e-02 3.613491e+00 -5.960260e+00 1.275533e-04 -4.272734e-04 -6.987046e-04
N -2.672253e-02 3.630133e+00 -8.297749e-01 -3.513194e-04 -6.810128e-06 6.962792e-04
N 3.120853e+00 -1.855966e+00 4.341572e+00 -5.928606e-04 1.179943e-04 -4.954175e-04
N 3.201422e+00 -1.856363e+00 -5.958574e+00 4.379123e-04 -3.092495e-05 -1.094162e-03
N 3.127984e+00 -1.862342e+00 -7.470308e-01 -2.667674e-04 -1.028011e-04 7.876841e-05
N -4.815836e+00 9.331231e-01 4.429907e+00 2.049662e-05 2.159681e-04 4.852678e-04
N -4.853120e+00 8.642079e-01 -5.900740e+00 1.391524e-03 -8.584895e-04 -7.215946e-04
N -4.853959e+00 9.041194e-01 -7.433631e-01 2.486603e-04 4.084137e-04 1.072809e-04
N -6.404620e+00 3.633825e+00 4.380573e+00 -4.733286e-05 -4.910510e-05 -5.126492e-04
N -6.437858e+00 3.616177e+00 -5.958002e+00 -1.599254e-04 -2.034692e-05 -7.817969e-05
N -6.400880e+00 3.586434e+00 -7.567687e-01 2.960312e-04 -2.922076e-04 -2.486525e-04
N -3.209867e+00 -1.930945e+00 4.425618e+00 4.274794e-05 -5.905464e-04 1.391046e-04
N -3.245261e+00 -1.907146e+00 -5.887947e+00 -4.039024e-04 3.838364e-05 2.641081e-05
N -3.209924e+00 -1.884107e+00 -7.666680e-01 -9.635583e-06 3.341325e-04 1.034443e-03
N -1.659484e+00 9.084068e-01 4.357070e+00 4.747612e-04 -1.504990e-04 -9.856848e-05
N -1.576599e+00 9.151918e-01 -5.894108e+00 1.079077e-03 -2.059193e-04 -1.432519e-04
N -1.615673e+00 8.894686e-01 -7.636512e-01 4.777660e-04 -3.601505e-04 9.176367e-04
N -3.252519e+00 3.619393e+00 4.378361e+00 -7.052006e-04 1.703565e-04 7.926577e-04
N -3.216846e+00 3.644734e+00 -5.939134e+00 3.479399e-04 -1.966401e-04 -7.116293e-04
N -3.212301e+00 3.643446e+00 -8.156867e-01 3.480959e-04 -3.025590e-04 5.583687e-04
N 3.042407e-02 -1.900034e+00 4.435003e+00 5.593393e-04 -2.483670e-04 -2.368219e-04
N -1.059059e-02 -1.875945e+00 -5.940257e+00 4.711057e-04 -2.467339e-04 -7.143185e-04
N 2.299152e-02 -1.855771e+00 -7.849603e-01 8.749753e-04 -3.211879e-04 2.493121e-04
N -1.602905e-02 1.798595e+00 1.872398e+00 -3.277027e-04 -1.934543e-04 -2.451258e-04
N 2.044080e-02 1.821713e+00 6.974285e+00 -5.354908e-04 3.368488e-04 -3.209435e-04
N 2.861096e-02 1.820755e+00 -3.381260e+00 -2.780718e-04 2.248097e-04 -9.038756e-04
N 3.167867e+00 -3.726147e+00 1.871273e+00 -8.201628e-05 6.928076e-05 3.198631e-06
N 3.213976e+00 -3.694220e+00 6.990189e+00 2.166638e-04 4.182843e-04 -5.373345e-04
N 3.172809e+00 -3.768129e+00 -3.326965e+00 -1.993424e-04 6.382492e-05 -6.122980e-04
N 1.611586e+00 -9.317228e-01 1.778355e+00 2.928672e-04 6.525065e-04 -3.756714e-04
N 1.625183e+00 -9.305033e-01 6.935042e+00 -2.280558e-04 5.581370e-04 -3.965882e-04
N 1.537474e+00 -9.321555e-01 -3.318163e+00 -1.175818e-03 5.154048e-04 -8.263199e-04
N 3.113987e+00 1.824578e+00 1.797231e+00 1.418429e-04 4.724869e-04 -1.729201e-03
N 3.111657e+00 1.829340e+00 6.930449e+00 -3.122976e-04 -1.952874e-04 -2.820088e-04
N 3.110961e+00 1.774039e+00 -3.404314e+00 -1.415026e-04 6.118221e-05 -1.552187e-03
N 6.351600e+00 -3.773262e+00 1.850633e+00 -5.227659e-05 1.676848e-04 -1.994927e-03
N 6.352735e+00 -3.770125e+00 6.936602e+00 1.382523e-04 -3.542832e-04 -6.520373e-04
N 6.313278e+00 -3.749070e+00 -3.400603e+00 -9.276230e-05 -1.512382e-04 -9.159614e-04
N 4.718871e+00 -9.804846e-01 1.852076e+00 -2.864784e-04 2.508959e-04 -2.486444e-04
N 4.716450e+00 -9.829050e-01 6.979351e+00 -6.789757e-04 3.007832e-05 -2.059230e-04
N 4.755002e+00 -9.594599e-01 -3.403604e+00 -4.127647e-04 1.700102e-04 -7.644496e-04
N -3.173840e+00 1.826954e+00 1.852042e+00 1.816284e-04 3.025459e-04 1.967983e-05
N -3.214032e+00 1.796547e+00 6.905211e+00 -2.526928e-04 -1.979105e-04 -1.057736e-03
N -3.218591e+00 1.848364e+00 -3.323044e+00 -6.304487e-05 2.467173e-04 -8.868150e-05
N -1.803835e-02 -3.768369e+00 1.856632e+00 -8.841321e-04 -2.656466e-04 2.935308e-04
N -7.416316e-02 -3.748877e+00 6.910896e+00 -1.590633e-04 4.522290e-05 -4.356561e-04
N 1.548995e-02 -3.691816e+00 -3.309274e+00 4.114213e-04 3.978078e-04 -3.372085e-04
N -1.609565e+00 -9.150206e-01 1.848984e+00 -4.400953e-04 3.063477e-04 -4.204847e-04
N -1.618675e+00 -9.536703e-01 6.972160e+00 -4.656079e-04 1.762212e-06 -2.151251e-04
N -1.566271e+00 -9.829581e-01 -3.322108e+00 -1.971594e-04 6.760604e-06 8.284870e-05
