108
Energy=-2130357.306068 Lattice="9.601694 0.000000 0.000000 -4.802244 8.315273 0.000000 -0.003298 -0.003912 15.560335" Stress="0.000000 0.000000 0.000000 -0.000000 0.000000 0.000000 0.000000 -0.000000 0.000000" Properties=species:S:1:pos:R:3:forces:R:3
Al 1.584780 0.895648 2.429231 0.000042 0.000019 -0.000036
Al 1.585233 0.900044 7.626245 -0.000003 -0.000006 0.000040
Ga 1.579300 0.889880 -2.722238 -0.000029 -0.000054 0.000003
Al -0.006923 3.639789 2.432708 -0.000008 0.000004 0.000011
Al -0.017639 3.645681 7.632178 0.000001 0.000025 -0.000009
Ga -0.005076 3.655782 -2.723076 0.000000 -0.000012 -0.000011
Ga 3.170663 -1.877176 2.437721 -0.000011 0.000019 0.000034
Ga 3.179593 -1.886456 7.642701 0.000017 -0.000009 -0.000000
Ga 3.181567 -1.877124 -2.735767 0.000011 -0.000004 -0.000006
Al -4.839634 0.899229 2.467333 0.000006 -0.000013 -0.000006
Ga -4.847549 0.887825 7.633162 0.000030 0.000014 -0.000006
Ga -4.833425 0.882278 -2.759166 -0.000002 -0.000002 0.000023
Al -6.436431 3.633898 2.457653 0.000009 -0.000012 -0.000014
Ga -6.437520 3.631906 7.639926 0.000003 -0.000001 0.000041
Al -6.419451 3.666166 -2.765229 -0.000000 0.000004 -0.000011
Ga -3.221629 -1.898950 2.455099 -0.000003 0.000002 0.000036
Ga -3.226200 -1.892775 7.633920 0.000017 0.000002 -0.000003
Al -3.218664 -1.892901 -2.747381 -0.000009 -0.000006 -0.000021
Ga -1.617745 0.889753 2.459026 -0.000034 0.000025 0.000039
Ga -1.617585 0.884267 7.606077 -0.000004 -0.000004 0.000011
Ga -1.612837 0.878188 -2.724411 0.000019 -0.000004 -0.000038
Ga -3.229740 3.645040 2.457604 -0.000030 -0.000012 -0.000050
Ga -3.224805 3.650189 7.631860 -0.000000 0.000005 -0.000012
Ga -3.243110 3.669015 -2.742452 0.000000 -0.000015 -0.000004
Ga -0.021324 -1.881533 2.446400 0.000002 0.000037 -0.000027
Ga -0.029177 -1.884106 7.638275 -0.000005 0.000002 -0.000014
Al -0.028432 -1.900005 -2.740993 -0.000006 0.000021 -0.000033
Ga -0.012604 1.803744 5.032531 -0.000043 -0.000014 0.000009
Ga -0.003752 1.811556 -5.358633 -0.000006 -0.000006 0.000034
Al -0.012293 1.800696 -0.115484 -0.000012 0.000006 -0.000007
Ga 3.184403 -3.751100 5.039116 0.000010 -0.000002 0.000012
Ga 3.183102 -3.729967 -5.336190 -0.000030 -0.000013 0.000017
Ga 3.182996 -3.736608 -0.137399 0.000012 0.000033 -0.000017
Ga 1.569993 -0.942851 5.045806 -0.000018 0.000045 0.000005
Ga 1.583970 -0.950872 -5.335619 -0.000010 -0.000006 -0.000008
Al 1.565062 -0.953959 -0.149883 -0.000016 -0.000010 -0.000017
Al 3.178450 1.803681 5.009570 0.000010 -0.000005 -0.000008
Al 3.179277 1.810415 -5.332173 -0.000002 -0.000002 0.000011
Ga 3.167451 1.809205 -0.127514 0.000004 0.000055 0.000019
Ga 6.383534 -3.748192 5.034083 -0.000001 0.000032 -0.000016
Ga 6.388090 -3.734573 -5.324544 -0.000077 0.000029 -0.000027
Ga 6.387082 -3.745562 -0.149018 0.000002 0.000005 0.000032
Ga 4.785423 -0.941065 5.026165 0.000009 0.000020 0.000007
Al 4.779449 -0.954744 -5.325745 0.000008 -0.000008 0.000007
Ga 4.776364 -0.959123 -0.134130 0.000043 0.000019 -0.000035
Al -3.238402 1.794870 5.031189 -0.000006 -0.000000 -0.000002
Ga -3.239367 1.808282 -5.336832 0.000016 -0.000011 -0.000015
Ga -3.220778 1.803275 -0.132504 0.000002 -0.000000 -0.000039
Ga -0.035585 -3.746474 5.027070 -0.000022 -0.000013 -0.000008
Al -0.031158 -3.738459 -5.316906 -0.000001 0.000008 -0.000020
Ga -0.031266 -3.727615 -0.147937 0.000004 -0.000013 0.000009
Al -1.626877 -0.958359 5.039572 0.000011 -0.000014 -0.000000
Ga -1.625802 -0.972028 -5.304823 0.000015 -0.000009 0.000015
Ga -1.609533 -0.963252 -0.169934 -0.000003 0.000011 0.000009
N 1.616488 0.905247 4.352902 -0.000001 -0.000035 0.000006
N 1.630524 0.913929 -6.010415 0.000013 0.000014 -0.000033
N 1.537748 0.866302 -0.732469 0.000011 -0.000006 -0.000035
N -0.021140 3.649517 4.345489 -0.000005 -0.000011 -0.000009
N -0.016839 3.662264 -6.016328 0.000029 0.000002 0.000033
N -0.019735 3.600975 -0.745233 -0.000005 0.000011 -0.000022
N 3.170275 -1.887708 4.412982 -0.000005 -0.000024 0.000001
N 3.222108 -1.858391 -5.938800 -0.000005 -0.000007 -0.000012
N 3.137393 -1.859196 -0.748862 0.000007 -0.000053 0.000048
N -4.828023 0.935877 4.389783 -0.000020 0.000022 -0.000011
N -4.871465 0.863203 -5.932373 -0.000003 0.000010 -0.000006
N -4.830681 0.886501 -0.785614 -0.000003 0.000002 -0.000038
N -6.429354 3.604582 4.373272 0.000022 0.000011 -0.000004
N -6.380989 3.629264 -5.928033 0.000028 -0.000017 -0.000014
N -6.420745 3.648819 -0.843324 -0.000003 -0.000039 0.000018
N -3.180872 -1.869748 4.430355 -0.000013 -0.000033 0.000013
N -3.260948 -1.860162 -5.944275 -0.000005 -0.000042 0.000006
N -3.230293 -1.889960 -0.826529 -0.000020 0.000029 0.000047
N -1.661810 0.861959 4.451409 0.000006 -0.000005 -0.000041
N -1.623667 0.879273 -5.974271 -0.000004 -0.000011 0.000029
N -1.575284 0.916085 -0.745069 -0.000008 0.000006 0.000007
N -3.224470 3.605573 4.433724 0.000009 -0.000020 -0.000001
N -3.268057 3.683442 -5.943844 0.000041 0.000023 0.000031
N -3.227693 3.657352 -0.768910 -0.000012 -0.000002 0.000075
N -0.061939 -1.860880 4.425721 -0.000005 0.000013 0.000010
N -0.025241 -1.932928 -5.940477 -0.000002 0.000010 0.000013
N 0.023828 -1.869799 -0.817319 -0.000007 0.000008 0.000021
N 0.017677 1.825614 1.811099 0.000032 -0.000026 0.000022
N 0.023851 1.831574 7.026171 0.000005 -0.000001 -0.000032
N -0.016860 1.809732 -3.386081 0.000011 -0.000001 -0.000046
N 3.219610 -3.761831 1.841068 0.000002 0.000018 -0.000013
N 3.221104 -3.762826 7.024017 0.000010 -0.000003 0.000024
N 3.185817 -3.735908 -3.361410 -0.000005 0.000004 0.000012
N 1.570516 -0.914815 1.774605 0.000002 0.000044 0.000029
N 1.573974 -0.911814 7.030734 0.000008 0.000025 -0.000018
N 1.534870 -0.979482 -3.353290 -0.000012 0.000049 0.000071
N 3.179674 1.809371 1.864570 -0.000054 -0.000044 -0.000038
N 3.132777 1.782249 6.939507 0.000023 0.000002 -0.000010
N 3.168880 1.854752 -3.408786 0.000019 0.000016 0.000011
N 6.386641 -3.785338 1.843521 0.000004 0.000008 -0.000018
N 6.339057 -3.764727 7.018536 0.000001 0.000001 0.000015
N 6.419002 -3.711500 -3.336878 0.000013 -0.000004 0.000019
N 4.782579 -0.910773 1.847681 -0.000019 -0.000053 -0.000046
N 4.776444 -0.960582 6.994627 -0.000005 -0.000010 -0.000007
N 4.821621 -0.988278 -3.403966 0.000008 0.000001 0.000037
N -3.267726 1.778337 1.843434 0.000018 -0.000013 -0.000010
N -3.236355 1.802388 6.951955 -0.000027 -0.000034 0.000014
N -3.218427 1.808465 -3.366979 -0.000014 0.000008 0.000007
N -0.072059 -3.760365 1.838653 0.000017 -0.000021 -0.000051
N -0.032967 -3.740014 6.998361 0.000009 -0.000006 -0.000010
N -0.064811 -3.707878 -3.389086 -0.000012 -0.000014 0.000023
N -1.625339 -0.964246 1.801704 0.000013 0.000008 -0.000027
N -1.625623 -0.970002 6.951226 0.000005 0.000018 0.000009
N -1.621123 -1.009526 -3.316768 -0.000001 0.000009 -0.000005
