108
Energy=-5.282153e+05 Lattice="9.407463e+00 0.000000e+00 0.000000e+00 -4.704007e+00 8.147590e+00 0.000000e+00 -1.271234e-04 9.064173e-04 1.507999e+01" Stress="1.054127e-04 -2.507592e-05 -1.667454e-06 -2.511620e-05 1.218096e-04 3.799438e-05 -1.715563e-06 3.539326e-05 2.810173e-04" Properties=species:S:1:pos:R:3:forces:R:3 Config_type=AlGaN_super3_2_1_27.xyz
Al 1.545621e+00 8.664317e-01 2.366179e+00 -1.461932e-06 9.790505e-06 5.459469e-06
Al 1.543505e+00 8.677749e-01 7.390656e+00 4.824831e-06 1.402725e-05 3.189958e-05
Al 1.546571e+00 8.654048e-01 -2.668728e+00 1.548497e-05 1.041764e-05 4.995518e-05
Al -2.253065e-02 3.582745e+00 2.366148e+00 4.160132e-06 -5.980526e-06 -7.419826e-06
Al -2.262151e-02 3.580562e+00 7.390727e+00 -2.139546e-06 -8.277369e-06 1.925208e-05
Al -2.248576e-02 3.583285e+00 -2.668754e+00 -3.575540e-06 1.048288e-05 5.918940e-05
Al 3.106051e+00 -1.853642e+00 2.380470e+00 -3.138225e-05 -1.118201e-05 2.892198e-05
Al 3.114700e+00 -1.848403e+00 7.389845e+00 -7.641892e-06 3.574820e-06 2.683475e-05
Al 3.108255e+00 -1.852861e+00 -2.679270e+00 -9.134116e-06 -1.483861e-06 6.256335e-05
Al -4.726331e+00 8.750683e-01 2.380381e+00 -1.840628e-05 -3.218123e-05 1.993602e-05
Al -4.726384e+00 8.654196e-01 7.389855e+00 1.061532e-05 1.394367e-05 2.829941e-05
Al -4.726305e+00 8.723297e-01 -2.679121e+00 2.458651e-05 -6.580787e-06 4.371334e-05
Al -6.301233e+00 3.578449e+00 2.380646e+00 -6.241361e-05 -2.363171e-05 -3.010225e-06
Al -6.293517e+00 3.583156e+00 7.389926e+00 3.333454e-06 -4.281869e-07 2.179395e-05
Al -6.299683e+00 3.578866e+00 -2.679112e+00 2.401967e-05 7.300926e-06 8.178373e-05
Al -3.150798e+00 -1.853584e+00 2.380523e+00 -5.534886e-05 8.983185e-06 -6.241718e-06
Al -3.159433e+00 -1.848304e+00 7.389876e+00 4.032033e-06 3.064839e-06 2.223211e-05
Al -3.152790e+00 -1.852785e+00 -2.679346e+00 1.493755e-05 3.541433e-06 8.444230e-05
Al -1.590766e+00 8.665431e-01 2.366040e+00 1.586353e-05 -5.167357e-06 2.829753e-05
Al -1.588821e+00 8.679508e-01 7.390662e+00 8.134046e-06 -1.748234e-07 3.420573e-05
Al -1.591634e+00 8.655676e-01 -2.668728e+00 -4.347076e-06 -6.415453e-06 5.617895e-05
Al -3.151438e+00 3.578467e+00 2.380551e+00 6.827579e-06 1.813734e-06 -3.570513e-07
Al -3.159287e+00 3.583243e+00 7.389871e+00 -7.710175e-06 -1.559210e-05 3.243813e-05
Al -3.152866e+00 3.578955e+00 -2.678978e+00 -3.323050e-05 -1.646296e-05 2.087824e-05
Al -2.243044e-02 -1.841165e+00 2.380490e+00 -7.389731e-08 8.761021e-05 5.461515e-05
Al -2.241896e-02 -1.849824e+00 7.389853e+00 -6.664460e-06 -1.387613e-05 3.127197e-05
Al -2.227460e-02 -1.843252e+00 -2.678765e+00 -1.966040e-05 -3.654602e-05 -3.875390e-05
Al -2.266731e-02 1.771913e+00 4.877061e+00 1.278218e-05 1.767535e-05 1.320563e-05
Al -2.254634e-02 1.771195e+00 -5.176656e+00 4.041927e-06 1.281693e-05 3.406415e-05
Al -2.245859e-02 1.771515e+00 -1.538198e-01 6.420215e-08 3.021262e-05 -8.868197e-05
Al 3.114776e+00 -3.661193e+00 4.885880e+00 2.047568e-05 2.872688e-05 1.560040e-05
Al 3.114894e+00 -3.661244e+00 -5.185040e+00 3.700456e-06 1.892496e-05 4.339907e-05
Al 3.117626e+00 -3.667177e+00 -1.489747e-01 -2.860914e-05 -1.508674e-05 -1.281280e-04
Al 1.545024e+00 -9.421130e-01 4.885822e+00 -2.645940e-06 7.351029e-06 2.167605e-05
Al 1.545676e+00 -9.431246e-01 -5.185033e+00 -7.656248e-06 7.281294e-07 5.259545e-05
Al 1.541658e+00 -9.372255e-01 -1.488779e-01 -4.961368e-05 -2.277411e-05 -1.131958e-04
Al 3.111381e+00 1.771526e+00 4.885898e+00 -2.445451e-05 -9.072676e-06 1.218479e-05
Al 3.111981e+00 1.770459e+00 -5.185039e+00 -5.361689e-06 -1.835686e-06 4.030000e-05
Al 3.105302e+00 1.771495e+00 -1.489264e-01 -3.092051e-05 4.006249e-05 -1.054763e-04
Al 6.247920e+00 -3.661082e+00 4.885988e+00 -1.220646e-05 -3.708153e-07 3.318573e-06
Al 6.247994e+00 -3.661149e+00 -5.185053e+00 -4.347498e-06 2.615462e-06 3.848690e-05
Al 6.245374e+00 -3.667178e+00 -1.490419e-01 1.026979e-06 1.673260e-05 -9.720091e-05
Al 4.681311e+00 -9.438188e-01 4.877649e+00 -1.648702e-05 -2.542867e-05 1.666396e-05
Al 4.681425e+00 -9.445466e-01 -5.178450e+00 -1.425859e-05 -1.098239e-05 2.799446e-05
Ga 4.681424e+00 -9.446338e-01 -1.460523e-01 4.876269e-06 2.059141e-05 -3.228993e-05
Al -3.156726e+00 1.771606e+00 4.885801e+00 1.290125e-05 -1.733794e-05 2.268019e-05
Al -3.157173e+00 1.770561e+00 -5.185020e+00 3.438516e-06 -2.608244e-06 4.842083e-05
Al -3.150332e+00 1.771561e+00 -1.489117e-01 2.259718e-05 1.226388e-05 -1.243187e-04
Al -2.241345e-02 -3.659667e+00 4.878059e+00 -8.811829e-06 1.133978e-05 3.722678e-05
Al -2.233438e-02 -3.660350e+00 -5.179504e+00 3.507294e-07 7.657399e-06 6.562093e-05
Ga -2.234847e-02 -3.660081e+00 -1.464463e-01 4.287463e-06 -3.862073e-06 -8.509057e-05
Al -1.589878e+00 -9.419231e-01 4.885819e+00 -7.151478e-06 -1.242935e-05 2.250042e-05
Al -1.590295e+00 -9.429481e-01 -5.185026e+00 -9.008625e-06 -1.299920e-05 5.764715e-05
Al -1.586199e+00 -9.371362e-01 -1.489003e-01 -2.305243e-05 -1.992960e-05 -1.148663e-04
N 1.545781e+00 8.662908e-01 4.283847e+00 1.533632e-05 3.102260e-06 -8.599912e-05
N 1.543211e+00 8.670759e-01 -5.776306e+00 1.141046e-05 9.393160e-06 -2.653552e-05
N 1.545974e+00 8.658902e-01 -7.477089e-01 -1.584189e-05 1.051351e-05 3.852762e-05
N -2.261291e-02 3.583019e+00 4.283803e+00 -2.541382e-06 -6.501363e-06 -7.737350e-05
N -2.254359e-02 3.579234e+00 -5.776290e+00 7.460375e-07 -5.089416e-06 -1.955071e-05
N -2.249633e-02 3.582595e+00 -7.477491e-01 -7.913341e-06 -1.388484e-05 4.121778e-05
N 3.109252e+00 -1.851728e+00 4.293867e+00 1.146317e-06 2.814859e-07 -5.983782e-05
N 3.114650e+00 -1.849380e+00 -5.775032e+00 2.594588e-07 4.376214e-06 -1.763188e-05
N 3.070557e+00 -1.874467e+00 -7.660786e-01 -2.014184e-05 -1.183874e-05 1.436465e-05
N -4.726431e+00 8.714396e-01 4.293793e+00 2.521800e-05 4.063231e-06 -7.384994e-05
N -4.726319e+00 8.646287e-01 -5.775021e+00 1.709262e-05 1.004331e-05 -2.671707e-05
N -4.726238e+00 9.154620e-01 -7.659810e-01 3.035085e-06 5.860033e-05 7.534722e-06
N -6.298477e+00 3.580134e+00 4.293889e+00 3.136523e-05 2.702875e-07 -1.009447e-04
N -6.293419e+00 3.582250e+00 -5.775205e+00 7.160088e-06 -3.741692e-06 -2.330965e-05
N -6.336119e+00 3.557929e+00 -7.679434e-01 -8.162883e-06 -5.683517e-05 5.147665e-05
N -3.154091e+00 -1.851669e+00 4.293947e+00 5.096582e-06 1.145649e-05 -8.708930e-05
N -3.159247e+00 -1.849296e+00 -5.775012e+00 4.512046e-06 5.673632e-06 -1.921971e-05
N -3.115096e+00 -1.874449e+00 -7.661277e-01 -6.530348e-06 7.677314e-06 2.689168e-05
N -1.591121e+00 8.664368e-01 4.283745e+00 2.042403e-06 -9.284537e-06 -8.519294e-05
N -1.588394e+00 8.672494e-01 -5.776281e+00 1.112554e-05 -2.685978e-06 -3.724556e-05
N -1.590926e+00 8.660145e-01 -7.476720e-01 9.510700e-06 3.109949e-06 3.603910e-05
N -3.154371e+00 3.580218e+00 4.293781e+00 -2.435563e-05 -1.594186e-05 -9.500252e-05
N -3.159251e+00 3.582351e+00 -5.775227e+00 3.983611e-06 -2.013742e-05 -3.009682e-05
N -3.116524e+00 3.557870e+00 -7.680788e-01 3.810892e-05 8.020321e-06 1.479391e-04
N -2.246456e-02 -1.844381e+00 4.293801e+00 -2.029031e-06 -2.704912e-05 -1.008899e-04
N -2.236054e-02 -1.850778e+00 -5.775228e+00 1.624051e-06 -7.277927e-06 -3.461861e-05
N -2.242227e-02 -1.801087e+00 -7.680772e-01 5.523909e-05 1.348797e-05 1.688515e-04
N -2.254461e-02 1.771932e+00 1.767645e+00 6.152112e-06 -4.663905e-06 4.624048e-05
N -2.262546e-02 1.772118e+00 6.792136e+00 2.873828e-06 7.679207e-06 -3.905583e-05
N -2.249988e-02 1.771417e+00 -3.258850e+00 5.105054e-06 8.788590e-06 7.757198e-06
N 3.113021e+00 -3.659709e+00 1.770739e+00 -3.759681e-05 -5.116391e-06 5.967370e-05
N 3.114307e+00 -3.660121e+00 6.799546e+00 -4.423711e-07 1.697629e-05 -4.102032e-05
N 3.116326e+00 -3.661656e+00 -3.272563e+00 1.707701e-05 2.028742e-05 -1.704464e-05
N 1.545463e+00 -9.444385e-01 1.770854e+00 -3.235579e-05 -2.058718e-05 3.295723e-05
N 1.545580e+00 -9.428124e-01 6.799536e+00 -9.135532e-06 5.092463e-06 -4.913461e-05
N 1.545869e+00 -9.414098e-01 -3.272502e+00 2.528245e-06 2.090993e-05 -2.869009e-05
N 3.113641e+00 1.772363e+00 1.770751e+00 1.548751e-05 -1.221302e-06 7.427247e-05
N 3.112379e+00 1.771714e+00 6.799546e+00 -4.038995e-06 -6.248619e-06 -3.446720e-05
N 3.110768e+00 1.769834e+00 -3.272580e+00 -8.663490e-06 -1.898644e-05 -3.080028e-06
N 6.249898e+00 -3.659631e+00 1.770699e+00 -1.083573e-06 -1.910849e-06 7.848318e-05
N 6.248439e+00 -3.660017e+00 6.799611e+00 -4.957192e-06 2.927813e-06 -3.637847e-05
N 6.246652e+00 -3.661559e+00 -3.272609e+00 -2.084341e-05 6.345132e-07 -1.284936e-05
N 4.681013e+00 -9.442263e-01 1.832141e+00 1.309731e-04 5.243589e-05 5.840996e-05
N 4.681356e+00 -9.436437e-01 6.794041e+00 -1.510352e-05 -9.746765e-06 -3.998800e-05
N 4.681438e+00 -9.443406e-01 -3.259811e+00 -1.056412e-05 -6.049281e-06 -1.596062e-05
N -3.158864e+00 1.772353e+00 1.770750e+00 -6.628716e-06 7.744461e-06 6.354802e-05
N -3.157712e+00 1.771779e+00 6.799473e+00 4.536783e-06 -1.973307e-06 -2.998913e-05
N -3.155896e+00 1.769920e+00 -3.272538e+00 1.095405e-05 -2.455935e-05 -1.084796e-05
N -2.253709e-02 -3.659620e+00 1.832260e+00 8.129798e-05 -8.233514e-05 3.357863e-05
N -2.242889e-02 -3.659476e+00 6.794504e+00 5.365584e-06 4.373579e-06 -3.355357e-05
N -2.228617e-02 -3.660141e+00 -3.260667e+00 1.658849e-06 4.518465e-06 -3.743215e-05
N -1.590280e+00 -9.443668e-01 1.770819e+00 1.467589e-05 -5.745124e-06 4.424131e-05
N -1.590354e+00 -9.426347e-01 6.799518e+00 -6.904936e-06 -7.594692e-06 -3.998373e-05
N -1.590402e+00 -9.412569e-01 -3.272495e+00 -1.645006e-05 1.101633e-05 -3.414076e-05
