108
Energy=-1260622.870984 Lattice="9.492865 0.000000 0.000000 -4.748515 8.218245 0.000000 -0.002724 0.005966 15.309645" Stress="-0.000003 -0.000001 -0.000000 -0.000001 -0.000005 0.000001 -0.000000 0.000001 0.000000" Properties=species:S:1:pos:R:3:forces:R:3
Al 1.561746 0.872392 2.417031 -0.000867 0.000586 0.000592
Al 1.558724 0.885175 7.513460 -0.000279 -0.000222 0.000340
Al 1.551822 0.867265 -2.731738 -0.000074 0.000344 0.000092
Al -0.021689 3.608565 2.425973 -0.000743 -0.001260 0.000720
Al -0.024291 3.607173 7.496181 0.000420 -0.000067 0.000551
Al -0.014708 3.598694 -2.718195 0.000733 0.000185 0.000324
Al 3.140052 -1.859199 2.390004 -0.000238 -0.000845 0.000479
Al 3.138555 -1.863928 7.531685 -0.000449 0.000506 0.000079
Ga 3.137631 -1.853865 -2.715626 -0.000089 0.000063 0.000843
Al -4.774473 0.877015 2.418027 -0.001381 0.000887 0.000245
Al -4.787635 0.883315 7.501316 0.000232 -0.000361 0.000032
Al -4.781966 0.865870 -2.704620 0.000126 0.000110 0.000455
Ga -6.363795 3.596898 2.436628 0.000185 0.000198 -0.000603
Al -6.357070 3.605990 7.502421 0.000262 -0.000190 0.000488
Ga -6.361381 3.603588 -2.726585 0.000027 0.000055 -0.000068
Ga -3.199773 -1.869128 2.409134 0.000667 0.000172 0.000598
Ga -3.188147 -1.866514 7.508918 -0.000131 0.000055 0.000374
Ga -3.195155 -1.872326 -2.700431 -0.000259 0.000017 0.000328
Ga -1.603643 0.891629 2.407882 0.000437 0.000114 0.000225
Al -1.591899 0.883754 7.484757 -0.000207 0.000182 0.000241
Ga -1.591811 0.885813 -2.679229 0.000717 -0.000132 0.000446
Al -3.177318 3.606997 2.440762 -0.000122 -0.000257 -0.000090
Ga -3.186385 3.627374 7.496657 0.000104 -0.000317 0.000108
Ga -3.186762 3.616764 -2.717700 0.000170 -0.000149 -0.000323
Ga -0.005747 -1.857678 2.425323 -0.000300 0.000052 0.000276
Al -0.018883 -1.860862 7.501234 -0.000348 0.000630 0.000617
Al -0.006768 -1.856373 -2.704746 0.000485 0.000171 -0.000285
Al -0.021043 1.798917 4.968778 -0.000041 -0.000133 0.000011
Al -0.007945 1.798170 -5.275624 -0.000425 -0.000088 -0.000015
Al -0.012291 1.785593 -0.146678 0.000096 0.000114 0.000088
Al 3.150878 -3.697986 4.944835 -0.000134 0.000197 0.000228
Al 3.163728 -3.687452 -5.267060 -0.000353 -0.000173 0.000622
Ga 3.161319 -3.703758 -0.126180 0.000068 0.000622 -0.000387
Ga 1.564498 -0.947656 4.980159 -0.000914 0.000599 0.000898
Al 1.563542 -0.952660 -5.280999 -0.000374 -0.000113 0.000178
Al 1.553952 -0.937510 -0.149148 -0.000246 -0.000029 -0.000194
Al 3.136331 1.795699 4.972564 0.000217 0.000195 0.000188
Al 3.132379 1.778486 -5.273308 0.000266 0.000112 0.000513
Ga 3.132184 1.762356 -0.148066 0.000026 0.000060 -0.000397
Al 6.305257 -3.708104 4.979733 -0.000171 0.000240 0.000587
Al 6.298840 -3.711586 -5.280016 -0.000036 0.000010 0.000435
Al 6.290396 -3.694357 -0.144867 0.000042 -0.000047 -0.000419
Ga 4.720084 -0.946812 4.960961 -0.000110 0.000462 0.000835
Al 4.707743 -0.950815 -5.268177 0.000116 -0.000442 -0.000178
Al 4.730055 -0.944040 -0.131573 -0.000039 -0.000176 -0.001039
Al -3.189162 1.794187 4.965478 -0.000442 -0.000144 0.000130
Ga -3.197076 1.781511 -5.273496 0.000330 -0.000168 0.000639
Al -3.191964 1.773420 -0.131698 -0.000200 -0.000199 -0.000260
Al -0.028415 -3.698470 4.972184 0.000370 0.000188 0.000146
Al -0.027363 -3.683544 -5.272501 -0.000249 0.000615 -0.000126
Ga -0.022539 -3.681708 -0.140564 0.000077 0.000162 0.001413
Al -1.601378 -0.946641 4.986528 0.000190 0.000724 0.000116
Ga -1.587588 -0.956641 -5.261760 -0.000125 -0.000072 0.000622
Al -1.600468 -0.948878 -0.158915 -0.000443 -0.000212 -0.000768
N 1.555759 0.922119 4.340341 0.000098 -0.000171 -0.000689
N 1.557204 0.876133 -5.874816 0.000310 0.000095 -0.000412
N 1.514333 0.846878 -0.805867 -0.000368 0.000274 0.000086
N -0.018629 3.611112 4.349698 0.000230 0.000065 0.000068
N -0.024486 3.609421 -5.894733 -0.000267 -0.000181 0.000039
N 0.017489 3.584514 -0.795617 -0.000055 -0.000287 0.000033
N 3.138013 -1.905010 4.299488 0.000279 -0.000507 0.000136
N 3.142903 -1.871142 -5.858578 -0.000038 -0.000161 -0.000610
N 3.142485 -1.820770 -0.724379 0.000199 -0.000128 -0.000080
N -4.772576 0.926945 4.336931 0.000270 -0.000019 -0.000906
N -4.815688 0.849463 -5.900036 -0.000177 0.000741 -0.000647
N -4.730475 0.845884 -0.783604 0.000414 0.000326 0.000259
N -6.356518 3.614075 4.413229 -0.000280 -0.000336 0.000091
N -6.348808 3.606879 -5.874152 -0.000267 -0.000165 -0.000212
N -6.393750 3.630523 -0.751094 -0.000412 0.000313 0.000371
N -3.142647 -1.889892 4.395213 -0.000422 -0.000729 -0.000628
N -3.225011 -1.890709 -5.829459 -0.000043 0.000085 -0.000283
N -3.191697 -1.870204 -0.707470 -0.000110 0.000348 0.000223
N -1.605342 0.878542 4.401295 0.000453 -0.000237 -0.000368
N -1.561788 0.899342 -5.912576 0.000532 0.000233 -0.000537
N -1.602999 0.883782 -0.691811 0.000301 -0.000088 -0.000113
N -3.188127 3.613991 4.369159 0.000085 -0.000059 0.000043
N -3.185403 3.663274 -5.837397 0.000937 0.000092 -0.000300
N -3.184651 3.567560 -0.747691 0.000084 -0.000485 0.000341
N -0.061146 -1.882076 4.397201 0.000248 -0.000303 -0.000712
N 0.019417 -1.889556 -5.901717 0.000074 -0.000500 0.000046
N -0.014483 -1.819475 -0.784321 0.000221 0.000008 0.000442
N 0.025516 1.813669 1.778942 -0.000027 0.000062 0.000001
N -0.015832 1.792193 6.889012 -0.000169 0.000179 -0.000347
N 0.014401 1.809665 -3.353176 0.000265 -0.000296 -0.000068
N 3.150236 -3.699876 1.861236 -0.001342 0.000037 -0.000161
N 3.189668 -3.658122 6.869788 -0.000447 -0.000129 -0.000879
N 3.193291 -3.715326 -3.350188 -0.000367 0.000411 -0.000959
N 1.597345 -0.922479 1.775051 -0.000492 0.000089 -0.000316
N 1.564142 -0.947305 6.960902 0.001266 0.000406 -0.000401
N 1.520024 -0.931048 -3.358603 -0.000563 -0.000183 -0.000056
N 3.132579 1.736018 1.827172 0.002390 -0.000544 0.000208
N 3.134911 1.788069 6.896555 0.000093 -0.000039 -0.000413
N 3.140686 1.732295 -3.345508 0.000082 0.000014 -0.000159
N 6.259628 -3.721094 1.766977 0.001065 0.000258 -0.000107
N 6.304217 -3.742077 6.892342 -0.000155 0.000253 -0.001094
N 6.263466 -3.717823 -3.369452 -0.000150 -0.000120 -0.000189
N 4.683777 -0.921892 1.786628 0.000789 0.000556 0.000291
N 4.674761 -0.926343 6.931196 0.000000 0.000178 -0.000264
N 4.725085 -0.904297 -3.358890 -0.000220 -0.000469 -0.000235
N -3.235011 1.813004 1.790710 0.000118 0.000133 0.000023
N -3.193654 1.745668 6.882201 -0.000036 -0.000235 0.000118
N -3.227915 1.755163 -3.305681 -0.000204 0.000169 -0.000176
N 0.017567 -3.717458 1.835255 0.000457 0.000098 -0.001222
N -0.066258 -3.664523 6.883764 -0.000296 -0.001052 -0.000359
N -0.025689 -3.639326 -3.358441 -0.000088 -0.000042 0.000326
N -1.600118 -0.952542 1.745579 -0.000368 -0.000171 0.000074
N -1.564486 -0.924258 6.894676 -0.000082 -0.000487 -0.000339
N -1.561764 -0.969944 -3.289113 -0.000395 -0.000132 0.000077
