108
Energy=-1764153.185694 Lattice="9.557211 0.000000 0.000000 -4.782289 8.274540 0.000000 -0.002707 -0.002096 15.459056" Stress="0.000003 -0.000001 -0.000000 -0.000001 -0.000000 -0.000000 -0.000000 -0.000000 0.000001" Properties=species:S:1:pos:R:3:forces:R:3
Al 1.577255 0.879730 2.434631 -0.000522 0.000066 -0.000048
Al 1.577084 0.889576 7.567545 -0.000093 -0.000107 -0.000161
Al 1.566757 0.887571 -2.727723 0.000069 0.000066 -0.000111
Al -0.024856 3.632797 2.449603 -0.000072 -0.000068 -0.000032
Al -0.006683 3.634207 7.576134 0.000006 -0.000031 0.000007
Al -0.021405 3.623686 -2.746043 0.000004 0.000026 -0.000057
Al 3.143235 -1.880313 2.429819 -0.000059 -0.000004 -0.000060
Al 3.157327 -1.874179 7.583558 -0.000036 0.000025 -0.000058
Ga 3.151917 -1.885179 -2.722771 -0.000099 0.000035 -0.000048
Ga -4.816238 0.901020 2.449884 0.000137 0.000021 -0.000048
Ga -4.826557 0.888111 7.569592 0.000011 -0.000100 -0.000006
Ga -4.823952 0.886937 -2.728193 -0.000040 0.000041 -0.000063
Al -6.405757 3.621218 2.448813 0.000258 0.000282 0.000059
Al -6.414601 3.625965 7.564698 -0.000437 0.000138 0.000300
Ga -6.403256 3.626359 -2.737097 -0.000020 -0.000021 -0.000087
Ga -3.211611 -1.896958 2.454827 0.000014 0.000013 -0.000002
Ga -3.223411 -1.908040 7.585661 -0.000093 -0.000039 0.000033
Ga -3.211488 -1.894130 -2.743538 -0.000053 -0.000021 -0.000000
Al -1.609383 0.900432 2.443098 0.000114 0.000017 -0.000006
Ga -1.603822 0.898686 7.590267 0.000005 -0.000025 0.000023
Ga -1.591053 0.894896 -2.733711 0.000044 -0.000045 0.000042
Al -3.204941 3.637610 2.460454 -0.000045 0.000042 0.000012
Ga -3.215239 3.644311 7.553359 0.000136 -0.000081 0.000053
Al -3.203878 3.649502 -2.720760 0.000000 -0.000007 0.000011
Ga 0.004902 -1.875489 2.450404 -0.000085 -0.000053 0.000033
Ga -0.003338 -1.886282 7.550136 -0.000037 0.000126 0.000041
Al -0.005206 -1.876661 -2.705874 -0.000011 -0.000006 -0.000008
Ga -0.008366 1.799440 4.991989 0.000044 0.000027 -0.000117
Al 0.009583 1.814606 -5.311818 0.000036 0.000036 -0.000029
Ga 0.002314 1.795907 -0.124353 0.000027 0.000005 0.000076
Ga 3.161489 -3.709674 4.998756 -0.000011 -0.000032 -0.000083
Ga 3.190929 -3.719727 -5.312660 0.000015 0.000001 0.000004
Ga 3.164097 -3.720523 -0.127216 -0.000005 -0.000006 0.000069
Al 1.584898 -0.949996 5.008687 0.000005 0.000092 -0.000206
Ga 1.581241 -0.932241 -5.302033 -0.000058 0.000007 -0.000104
Al 1.574723 -0.941050 -0.148647 0.000010 0.000001 -0.000004
Al 3.152798 1.813863 5.005080 -0.000641 -0.000088 0.000073
Al 3.141288 1.801277 -5.327861 0.000053 0.000010 0.000081
Al 3.143812 1.791545 -0.128929 0.000033 -0.000002 -0.000218
Al 6.363507 -3.741461 5.011857 0.000041 0.000001 -0.000333
Al 6.345101 -3.737202 -5.321194 0.000034 -0.000057 -0.000023
Ga 6.349872 -3.737780 -0.132567 -0.000002 -0.000004 -0.000116
Ga 4.736436 -0.955490 5.006497 0.000002 -0.000115 -0.000038
Al 4.748703 -0.959377 -5.318993 0.000003 -0.000049 -0.000026
Ga 4.740343 -0.952639 -0.122365 -0.000023 0.000015 0.000018
Al -3.218179 1.809680 4.989785 0.000088 0.000058 -0.000082
Ga -3.219483 1.797333 -5.290567 0.000071 0.000019 0.000019
Ga -3.216359 1.809731 -0.130663 0.000111 0.000004 0.000002
Al -0.036342 -3.736867 4.990207 0.000040 -0.000046 -0.000878
Ga -0.036559 -3.723685 -5.294676 -0.000017 -0.000022 0.000016
Ga -0.017936 -3.721392 -0.133855 0.000052 -0.000042 0.000098
Ga -1.612544 -0.955803 5.004496 0.000038 -0.000019 -0.000090
Ga -1.616034 -0.963516 -5.296548 0.000026 -0.000101 0.000016
Ga -1.599776 -0.959632 -0.133917 0.000015 0.000002 0.000024
N 1.615790 0.851672 4.358185 0.000492 0.000296 0.000140
N 1.570388 0.926879 -5.969910 0.000112 0.000006 0.000074
N 1.612330 0.861349 -0.793980 -0.000007 0.000054 0.000128
N 0.016663 3.664251 4.356482 -0.000026 -0.000021 0.000024
N 0.021190 3.612741 -5.960975 -0.000063 0.000056 -0.000033
N -0.025280 3.631739 -0.825181 0.000036 0.000072 -0.000024
N 3.113794 -1.853680 4.339486 0.000044 0.000025 0.000048
N 3.196828 -1.854392 -5.958807 -0.000046 0.000014 0.000047
N 3.122863 -1.859491 -0.746497 0.000003 0.000045 -0.000006
N -4.812678 0.933921 4.428790 0.000086 -0.000113 0.000014
N -4.847000 0.862553 -5.902137 0.000026 -0.000043 -0.000054
N -4.850132 0.906269 -0.742379 0.000024 -0.000027 0.000081
N -6.402429 3.632004 4.375903 0.000021 -0.000061 0.000056
N -6.434599 3.615597 -5.957985 0.000002 0.000030 -0.000102
N -6.395661 3.584362 -0.758022 -0.000045 0.000031 0.000067
N -3.211806 -1.932875 4.423293 -0.000006 0.000010 -0.000033
N -3.248702 -1.908750 -5.887754 -0.000034 0.000042 -0.000059
N -3.211497 -1.882662 -0.762948 -0.000020 -0.000020 -0.000047
N -1.656193 0.908951 4.354036 -0.000004 -0.000070 0.000003
N -1.570571 0.911809 -5.890982 -0.000021 -0.000035 0.000040
N -1.608683 0.887493 -0.761359 0.000052 -0.000007 -0.000097
N -3.251035 3.619036 4.378300 -0.000052 0.000009 0.000191
N -3.212343 3.641312 -5.938640 0.000031 -0.000053 -0.000024
N -3.207590 3.642216 -0.812568 0.000037 -0.000005 -0.000007
N 0.029155 -1.900786 4.433732 -0.000107 -0.000052 0.000143
N -0.011738 -1.879848 -5.941188 -0.000065 -0.000017 -0.000005
N 0.025055 -1.857202 -0.782851 -0.000043 0.000048 -0.000033
N -0.016155 1.800179 1.870985 0.000230 -0.000005 0.000064
N 0.020107 1.822079 6.973693 0.000009 0.000084 0.000112
N 0.031154 1.823136 -3.382049 -0.000032 0.000041 0.000096
N 3.163879 -3.723022 1.871760 0.000053 0.000075 -0.000040
N 3.211946 -3.691285 6.987237 -0.000071 0.000046 0.000059
N 3.170166 -3.766285 -3.326473 0.000005 0.000041 0.000039
N 1.609724 -0.927119 1.776784 0.000127 0.000018 0.000020
N 1.620703 -0.928222 6.933898 0.000042 0.000017 0.000244
N 1.530542 -0.928481 -3.318709 0.000011 -0.000004 0.000086
N 3.113769 1.824716 1.793688 -0.000008 -0.000230 0.000069
N 3.112797 1.827475 6.928356 0.000142 -0.000366 -0.000243
N 3.112736 1.774252 -3.408558 0.000011 -0.000037 0.000006
N 6.349011 -3.773059 1.844375 -0.000068 0.000068 0.000111
N 6.350535 -3.773317 6.932530 -0.000029 0.000030 0.000315
N 6.309649 -3.749930 -3.401694 0.000033 0.000030 0.000063
N 4.715241 -0.978811 1.850737 -0.000010 -0.000019 0.000033
N 4.711233 -0.983791 6.976210 -0.000033 0.000026 0.000054
N 4.749507 -0.958801 -3.404761 0.000009 0.000009 0.000041
N -3.169889 1.828899 1.851367 -0.000101 -0.000033 -0.000060
N -3.208956 1.794854 6.900582 0.000002 0.000012 0.000024
N -3.213874 1.847007 -3.319936 0.000050 -0.000022 0.000012
N -0.022043 -3.767999 1.857078 -0.000120 -0.000006 -0.000002
N -0.075282 -3.750897 6.905989 0.000291 0.000075 0.000391
N 0.016981 -3.691472 -3.308141 0.000037 -0.000034 0.000030
N -1.609985 -0.913898 1.847553 -0.000036 -0.000026 -0.000016
N -1.621702 -0.955179 6.970115 0.000009 -0.000002 0.000027
N -1.567810 -0.986224 -3.320850 -0.000062 0.000008 -0.000040
