108
Energy=-1581051.226342 Lattice="9.534114 0.000000 0.000000 -4.777268 8.256705 0.000000 0.003525 0.001420 15.373651" Stress="-0.000005 -0.000004 0.000001 -0.000004 -0.000004 0.000000 0.000001 0.000000 -0.000021" Properties=species:S:1:pos:R:3:forces:R:3
Al 1.559156 0.869241 2.400309 -0.000466 0.000567 0.000663
Al 1.551460 0.868734 7.535678 0.000210 -0.000028 0.000570
Al 1.549057 0.870059 -2.702991 -0.000129 0.000415 0.000527
Al -0.044729 3.621145 2.394427 0.000061 0.000821 -0.000694
Al -0.032175 3.611429 7.533563 -0.000038 -0.000115 0.000307
Al -0.038674 3.619602 -2.689814 -0.000868 0.000063 -0.000266
Al 3.147945 -1.883134 2.375575 0.000920 0.000636 -0.000583
Al 3.146534 -1.877252 7.542976 -0.000035 -0.000027 0.000612
Ga 3.145731 -1.874753 -2.687955 -0.000022 -0.000564 0.000862
Ga -4.792710 0.877903 2.396043 -0.000027 0.000045 0.000153
Ga -4.784232 0.884896 7.542025 0.000615 -0.000010 0.000066
Al -4.783042 0.880118 -2.690443 -0.000190 0.000248 0.000293
Ga -6.396684 3.619117 2.380612 0.000033 -0.000113 0.000056
Ga -6.385424 3.624100 7.556424 0.000135 0.000183 -0.000163
Ga -6.391876 3.626824 -2.679886 0.000067 -0.000103 -0.000300
Ga -3.201393 -1.869022 2.379227 -0.000115 -0.000370 0.000463
Ga -3.200318 -1.877760 7.535393 0.000185 0.000067 0.000374
Al -3.195574 -1.865599 -2.666098 -0.000259 -0.000346 -0.000049
Al -1.600851 0.885620 2.419801 -0.000030 0.000403 0.000133
Ga -1.602666 0.906759 7.533097 0.000453 -0.000482 0.001021
Al -1.613826 0.885358 -2.719789 0.000250 -0.000129 0.000308
Al -3.177006 3.629339 2.403000 -0.000306 -0.000030 0.000272
Al -3.188295 3.623952 7.538734 -0.000025 -0.000334 0.000565
Al -3.196066 3.621228 -2.698548 0.000456 -0.000018 0.000184
Ga -0.004002 -1.847661 2.406084 -0.000312 -0.000511 0.000642
Ga 0.007447 -1.860736 7.527077 0.000058 -0.000295 0.000536
Al -0.017876 -1.853103 -2.689713 0.000144 -0.000376 0.000243
Al -0.023783 1.778555 4.946941 -0.000254 0.000192 -0.000147
Al -0.023616 1.790221 -5.255087 -0.000383 -0.000455 0.000305
Ga -0.020759 1.793760 -0.151079 -0.000137 -0.000171 0.001091
Ga 3.161264 -3.716052 4.968833 -0.000212 0.000418 0.000802
Ga 3.156880 -3.727243 -5.281644 -0.000066 0.000473 0.000714
Al 3.163625 -3.700441 -0.139976 0.000688 -0.000234 -0.000679
Al 1.573884 -0.943724 4.962238 -0.000175 0.000143 0.000084
Al 1.563578 -0.944159 -5.261314 -0.000243 0.000198 0.000126
Al 1.573602 -0.945920 -0.146002 0.000124 -0.000588 -0.001160
Ga 3.137455 1.778474 4.979152 -0.000133 -0.000130 0.000186
Ga 3.136450 1.771286 -5.251818 0.000012 0.000027 -0.000108
Al 3.138188 1.774915 -0.160797 0.000590 -0.000302 -0.000527
Ga 6.329265 -3.714872 4.968510 -0.000156 0.000092 0.000131
Ga 6.317828 -3.718432 -5.240401 -0.000152 0.000146 0.000422
Al 6.315895 -3.700276 -0.158975 -0.000004 -0.000163 -0.000595
Ga 4.740947 -0.959255 4.965551 -0.000495 0.000098 0.000292
Ga 4.741508 -0.952476 -5.245444 -0.000473 -0.000033 0.000519
Al 4.739312 -0.961038 -0.162830 -0.000027 -0.000229 0.000136
Al -3.180563 1.796353 4.950182 -0.000031 -0.000105 0.000412
Al -3.196938 1.802518 -5.239725 -0.000093 -0.000001 0.000545
Ga -3.200459 1.790034 -0.156613 0.000073 0.000084 0.000343
Ga -0.000292 -3.705705 4.966346 -0.000090 -0.000149 -0.000061
Ga 0.002852 -3.708353 -5.243710 -0.000165 0.000082 0.000150
Ga -0.010796 -3.694362 -0.155531 0.000056 -0.000016 -0.000346
Al -1.597664 -0.932121 4.961093 -0.000358 0.000177 0.000380
Ga -1.599146 -0.941997 -5.233155 -0.000440 -0.000021 0.000263
Al -1.611183 -0.950632 -0.172649 -0.000064 -0.000029 -0.000494
N 1.526686 0.849080 4.321972 -0.000250 0.000085 -0.000718
N 1.510093 0.850091 -5.907074 -0.000028 -0.000121 -0.000193
N 1.593605 0.851974 -0.789286 0.000155 -0.000293 -0.000463
N -0.029750 3.581372 4.308838 -0.000264 -0.000162 -0.000100
N -0.026458 3.570614 -5.922140 0.000022 -0.000156 -0.000480
N -0.039566 3.671623 -0.778474 -0.000003 0.000547 0.001182
N 3.114866 -1.856776 4.297735 0.000041 -0.000187 0.000143
N 3.112131 -1.850311 -5.905645 -0.000105 0.000074 -0.000350
N 3.149080 -1.876640 -0.707072 -0.000286 0.000213 0.000235
N -4.752908 0.902175 4.369055 0.000628 0.000111 -0.000227
N -4.746803 0.904300 -5.856247 0.000518 -0.000038 -0.000356
N -4.830177 0.856694 -0.773179 -0.000292 0.000391 -0.000244
N -6.382676 3.625494 4.348476 0.000090 0.000031 -0.000354
N -6.384678 3.628633 -5.849398 0.000070 0.000036 -0.000078
N -6.429043 3.605875 -0.708726 -0.000094 0.000239 0.000302
N -3.153381 -1.850092 4.358565 0.000559 0.000213 -0.000514
N -3.192813 -1.873587 -5.872522 0.000078 0.000108 -0.000402
N -3.199139 -1.871205 -0.747124 0.000090 -0.000047 -0.000079
N -1.609930 0.878396 4.348995 0.000369 -0.000253 -0.000573
N -1.617466 0.929611 -5.842215 0.000569 0.000126 -0.000103
N -1.613081 0.841251 -0.812706 0.000558 -0.000284 -0.000610
N -3.196634 3.586837 4.311060 0.000344 -0.000336 -0.000416
N -3.210350 3.573956 -5.918597 0.000237 -0.000428 -0.000551
N -3.160511 3.652817 -0.793856 0.000293 0.000072 -0.000056
N -0.014627 -1.819781 4.389470 -0.000053 -0.000043 -0.000204
N 0.018407 -1.848161 -5.867111 0.000187 -0.000061 -0.000376
N -0.014389 -1.817317 -0.774482 0.000158 0.000224 0.000426
N -0.024076 1.793005 1.838868 0.000095 -0.001018 -0.000654
N 0.023209 1.814382 6.877905 -0.000143 0.000429 -0.000389
N -0.020821 1.799299 -3.320337 -0.000067 0.000032 -0.000245
N 3.159595 -3.711005 1.783997 0.000801 -0.000613 0.000502
N 3.166051 -3.710380 6.971534 -0.000003 0.000533 -0.000353
N 3.159449 -3.755701 -3.300836 0.000362 -0.000111 -0.000260
N 1.610783 -0.928966 1.763709 -0.000656 0.000580 0.000139
N 1.623549 -0.929306 6.886515 -0.000171 0.000231 -0.000567
N 1.527458 -0.930739 -3.340976 -0.000031 -0.000218 -0.000558
N 3.108048 1.762099 1.748892 -0.000061 -0.000333 0.000089
N 3.109403 1.767138 6.951688 -0.000376 -0.000194 -0.000289
N 3.146507 1.741911 -3.275627 0.000459 -0.000268 0.000076
N 6.286131 -3.731918 1.748738 -0.000529 0.000060 0.000493
N 6.296905 -3.736880 6.938649 -0.000412 -0.000074 -0.000525
N 6.286153 -3.682983 -3.263139 0.000414 0.000521 -0.000029
N 4.706246 -0.977090 1.747875 -0.000808 -0.000458 0.000264
N 4.703975 -0.982292 6.940091 -0.000721 -0.000099 -0.000521
N 4.784403 -0.936194 -3.264846 0.000075 -0.000109 -0.000062
N -3.153196 1.816195 1.819833 -0.000147 0.000128 -0.000098
N -3.195796 1.844323 6.867575 -0.000150 0.000331 -0.000705
N -3.207341 1.799715 -3.311176 -0.000112 0.000005 -0.000164
N 0.030069 -3.725453 1.815377 0.000325 0.000083 -0.000145
N 0.029596 -3.733842 6.942565 0.000181 0.000084 -0.000183
N 0.024128 -3.682017 -3.261568 0.000115 0.000318 0.000265
N -1.604729 -0.901346 1.744376 0.000211 0.000554 -0.000025
N -1.603020 -0.945618 6.872949 -0.000501 0.000217 -0.000453
N -1.613513 -0.959170 -3.251665 0.000102 0.000228 -0.000025
