108
Energy=-2.130357e+06 Lattice="9.601156e+00 0.000000e+00 0.000000e+00 -4.800653e+00 8.315496e+00 0.000000e+00 -1.260123e-04 -2.339322e-04 1.556029e+01" Stress="1.198274e-05 -3.476396e-05 -3.117890e-05 -3.620088e-05 -2.128950e-05 -9.427522e-06 -1.621907e-05 1.930331e-07 -5.454419e-05" Properties=species:S:1:pos:R:3:forces:R:3 Config_type=AlGaN_super3_37_0_12.xyz
Al 1.578680e+00 8.858681e-01 2.452494e+00 2.765404e-05 -6.392186e-06 6.744306e-05
Al 1.586348e+00 8.945324e-01 7.638673e+00 -1.650940e-06 -8.824484e-06 2.230267e-05
Al 1.572937e+00 8.883765e-01 -2.750699e+00 1.194638e-05 6.006252e-06 4.761091e-05
Al -1.869976e-02 3.662047e+00 2.443583e+00 5.135854e-05 -1.369478e-05 7.279500e-05
Ga -1.225605e-02 3.649145e+00 7.663320e+00 -1.305949e-05 1.294905e-05 4.273998e-05
Ga -2.380655e-02 3.646824e+00 -2.770580e+00 -1.838588e-05 -1.017148e-05 9.816707e-05
Al 3.197242e+00 -1.880107e+00 2.441445e+00 2.282881e-05 3.810099e-05 9.053604e-05
Ga 3.182860e+00 -1.875268e+00 7.631808e+00 2.015702e-06 2.529266e-05 5.121384e-05
Ga 3.174377e+00 -1.891066e+00 -2.734822e+00 -1.159591e-05 2.068000e-05 7.246594e-05
Ga -4.822692e+00 8.651570e-01 2.445635e+00 3.087516e-05 1.429702e-05 5.883473e-05
Al -4.832031e+00 8.871400e-01 7.604763e+00 1.808929e-05 -7.694344e-06 4.368146e-05
Ga -4.826105e+00 8.871486e-01 -2.715287e+00 1.519807e-05 1.522445e-05 4.419844e-05
Ga -6.435081e+00 3.656596e+00 2.436469e+00 2.322604e-05 1.899446e-05 8.846683e-05
Al -6.430944e+00 3.640665e+00 7.643068e+00 4.734674e-06 1.570877e-05 2.243360e-05
Ga -6.422861e+00 3.651372e+00 -2.737958e+00 -2.383395e-06 -5.424717e-06 3.240612e-05
Al -3.251961e+00 -1.890456e+00 2.450663e+00 2.846533e-05 -1.916763e-05 2.906622e-05
Ga -3.232251e+00 -1.890176e+00 7.626432e+00 -1.404299e-05 1.492118e-05 3.528701e-05
Ga -3.229033e+00 -1.893802e+00 -2.735067e+00 -1.637209e-05 8.329484e-07 5.801402e-05
Ga -1.624816e+00 8.961055e-01 2.444729e+00 8.795080e-06 -1.852561e-05 5.656154e-05
Ga -1.625323e+00 8.919008e-01 7.632439e+00 -1.211418e-05 1.915499e-05 6.660720e-05
Ga -1.611644e+00 8.986848e-01 -2.736065e+00 -5.236485e-06 5.456156e-06 9.103644e-05
Ga -3.219138e+00 3.653115e+00 2.443207e+00 -2.537924e-05 -3.932520e-05 8.522464e-05
Ga -3.229609e+00 3.644005e+00 7.631212e+00 2.749578e-06 -2.208669e-05 5.607118e-05
Al -3.220084e+00 3.657182e+00 -2.729217e+00 -7.800482e-06 -9.870511e-06 5.370419e-05
Ga -1.509719e-02 -1.889079e+00 2.433700e+00 1.462170e-06 -3.079781e-05 1.023986e-04
Ga -2.084550e-02 -1.886379e+00 7.633032e+00 7.097942e-06 -1.220088e-05 3.606864e-05
Ga -1.063498e-02 -1.891576e+00 -2.723282e+00 -2.288275e-05 -1.351516e-05 5.341204e-05
Ga -2.356884e-02 1.813243e+00 5.034347e+00 1.318764e-05 2.491571e-05 6.544838e-05
Al -1.280192e-02 1.815543e+00 -5.337089e+00 -8.798534e-06 1.781289e-06 3.332885e-05
Ga -1.884354e-02 1.808921e+00 -1.352674e-01 2.799476e-05 -9.868439e-06 -1.013481e-04
Ga 3.184416e+00 -3.731961e+00 5.012230e+00 7.316886e-07 2.616232e-05 8.710933e-05
Al 3.183680e+00 -3.746462e+00 -5.320454e+00 -1.798040e-05 2.241794e-05 4.500747e-05
Ga 3.166867e+00 -3.736736e+00 -1.343519e-01 3.803945e-05 -2.377659e-06 -1.568683e-04
Ga 1.595260e+00 -9.555564e-01 5.028308e+00 1.832425e-06 -1.034864e-05 8.514062e-05
Ga 1.579604e+00 -9.525789e-01 -5.329662e+00 1.432427e-05 1.570442e-05 7.081256e-05
Ga 1.589521e+00 -9.575157e-01 -1.342295e-01 1.291258e-05 -8.113455e-06 -9.398357e-05
Ga 3.184812e+00 1.797878e+00 5.056971e+00 2.335094e-05 1.348091e-05 5.421162e-05
Ga 3.164800e+00 1.809878e+00 -5.354820e+00 1.403774e-05 -7.693067e-06 4.881074e-05
Ga 3.184174e+00 1.801374e+00 -1.427671e-01 1.662079e-06 -1.982880e-05 -2.919373e-05
Ga 6.367318e+00 -3.728190e+00 5.030503e+00 1.144843e-05 -8.347648e-06 3.781421e-05
Al 6.371691e+00 -3.746141e+00 -5.345273e+00 1.382659e-05 1.373974e-05 3.118000e-05
Ga 6.375352e+00 -3.723803e+00 -1.246489e-01 -1.824697e-06 1.371262e-05 -1.773874e-05
Al 4.780150e+00 -9.569491e-01 5.027098e+00 -9.729150e-06 -1.233374e-07 2.752399e-05
Ga 4.778459e+00 -9.691332e-01 -5.346260e+00 -1.428794e-05 4.896409e-06 4.138398e-05
Al 4.782906e+00 -9.612137e-01 -1.231547e-01 2.120472e-05 -2.917176e-05 -9.174680e-07
Al -3.234020e+00 1.798223e+00 5.049474e+00 -1.670713e-05 1.778767e-05 1.500489e-05
Ga -3.219277e+00 1.815817e+00 -5.329200e+00 1.844512e-06 8.905762e-06 4.178624e-05
Al -3.232876e+00 1.817031e+00 -1.594272e-01 5.733100e-05 -6.561403e-06 -7.898283e-06
Ga -2.308375e-02 -3.748091e+00 5.055920e+00 5.085272e-06 -5.271966e-06 5.002299e-05
Ga -2.216384e-02 -3.744363e+00 -5.332107e+00 1.385340e-06 -4.122502e-06 3.787917e-05
Al -1.045682e-02 -3.748499e+00 -1.568880e-01 3.164325e-05 -2.357525e-06 -7.143767e-06
Ga -1.646012e+00 -9.573139e-01 5.022125e+00 1.499629e-05 -3.335176e-05 4.657074e-05
Ga -1.626395e+00 -9.626108e-01 -5.329864e+00 -1.163196e-05 -1.949293e-05 3.889183e-05
Ga -1.638249e+00 -9.637029e-01 -1.314817e-01 1.802008e-06 -1.654112e-05 -6.689785e-05
N 1.580052e+00 8.901467e-01 4.361778e+00 1.331611e-05 9.565191e-06 -8.915091e-05
N 1.533956e+00 9.072898e-01 -6.005674e+00 2.218649e-05 -5.857797e-07 -5.947713e-05
N 1.574791e+00 8.867094e-01 -8.349250e-01 -2.465467e-05 2.628413e-05 -8.244812e-05
N -2.147674e-02 3.653611e+00 4.352171e+00 1.335524e-05 -6.932987e-06 -6.296275e-05
N -2.624376e-02 3.655331e+00 -5.898107e+00 1.691425e-05 -1.744908e-05 -3.148936e-05
N -2.310245e-02 3.658066e+00 -7.889760e-01 -1.744522e-05 8.536214e-06 -9.922029e-05
N 3.224418e+00 -1.858565e+00 4.367414e+00 1.862904e-05 -6.315716e-06 -6.614462e-05
N 3.176401e+00 -1.939512e+00 -5.945251e+00 9.184866e-06 -6.551730e-06 -3.693635e-05
N 3.223232e+00 -1.865393e+00 -7.523975e-01 -3.724789e-05 6.389121e-06 -9.800246e-05
N -4.782604e+00 8.610922e-01 4.439150e+00 -5.838228e-06 2.899600e-06 -1.216803e-05
N -4.819559e+00 8.847515e-01 -6.031545e+00 8.111903e-06 6.482546e-07 -5.091238e-05
N -4.783362e+00 8.548791e-01 -7.289792e-01 -2.172612e-05 6.366995e-06 -3.052080e-05
N -6.423901e+00 3.652081e+00 4.408327e+00 -1.399176e-05 -7.071689e-06 -6.334681e-05
N -6.464798e+00 3.678830e+00 -5.995276e+00 -1.436295e-07 -5.943416e-06 -3.937546e-05
N -6.389693e+00 3.680714e+00 -7.528741e-01 -3.457595e-05 2.554864e-06 -5.421634e-05
N -3.274814e+00 -1.863996e+00 4.372440e+00 2.528978e-06 -1.871613e-05 -1.440995e-05
N -3.224715e+00 -1.936883e+00 -5.955727e+00 1.131406e-05 -1.158978e-05 -3.439617e-05
N -3.268942e+00 -1.865639e+00 -7.589518e-01 1.147022e-05 -8.629050e-06 -5.950970e-05
N -1.668781e+00 9.174095e-01 4.425715e+00 5.952493e-07 -6.611383e-06 -5.357753e-05
N -1.583021e+00 9.120888e-01 -5.943766e+00 1.777490e-05 1.777087e-06 -4.126849e-05
N -1.658698e+00 9.119218e-01 -7.518372e-01 -6.822639e-06 6.999990e-06 -8.940098e-05
N -3.228028e+00 3.602788e+00 4.426160e+00 5.818435e-06 -1.282632e-05 -4.414228e-05
N -3.178566e+00 3.678015e+00 -5.954110e+00 3.912137e-07 -1.162593e-05 -5.673156e-05
N -3.258692e+00 3.634958e+00 -7.967090e-01 -1.602907e-05 4.889746e-06 -7.127164e-05
N -2.065827e-02 -1.892314e+00 4.411811e+00 -3.122434e-06 -1.385646e-05 -6.250060e-05
N -2.067762e-02 -1.888326e+00 -5.957093e+00 -1.940902e-05 -1.212042e-05 -3.634718e-05
N -2.009309e-02 -1.931104e+00 -7.385822e-01 -5.557900e-06 7.758210e-06 -7.863601e-05
N 2.304106e-02 1.832155e+00 1.851065e+00 -1.797496e-05 3.954797e-05 1.003557e-04
N 2.104244e-02 1.789301e+00 7.015844e+00 -3.308309e-06 3.124218e-05 -5.232930e-05
N 2.270863e-02 1.779242e+00 -3.415598e+00 -1.717167e-05 3.174163e-05 -5.830812e-05
N 3.215632e+00 -3.711417e+00 1.856055e+00 -1.867698e-05 1.514055e-05 1.652051e-04
N 3.184615e+00 -3.736707e+00 6.991928e+00 1.562931e-05 3.203468e-06 -7.630136e-05
N 3.131496e+00 -3.759459e+00 -3.395240e+00 7.630711e-07 1.335329e-06 -6.578289e-05
N 1.625174e+00 -9.349153e-01 1.854121e+00 -1.576590e-05 1.510148e-05 1.032743e-04
N 1.581604e+00 -9.108795e-01 7.013806e+00 -3.944300e-07 5.186238e-06 -3.752723e-05
N 1.579538e+00 -9.148989e-01 -3.348363e+00 4.855810e-06 -2.923260e-06 -4.877490e-05
N 3.137297e+00 1.779513e+00 1.834212e+00 6.089563e-07 -2.274304e-06 5.070668e-05
N 3.173498e+00 1.807661e+00 7.057173e+00 -2.674452e-06 -7.109843e-06 -3.738661e-05
N 3.140827e+00 1.781786e+00 -3.362613e+00 -1.973440e-07 1.201745e-05 -3.298654e-05
N 6.333956e+00 -3.708228e+00 1.856618e+00 -2.419150e-06 -1.468603e-05 2.034301e-07
N 6.414250e+00 -3.763129e+00 7.014338e+00 -1.853850e-05 -4.065414e-06 -5.318043e-05
N 6.384584e+00 -3.735769e+00 -3.428416e+00 1.930101e-06 1.265109e-05 -5.001478e-05
N 4.778076e+00 -1.010143e+00 1.798029e+00 -4.973292e-05 7.787231e-06 -2.504285e-05
N 4.776094e+00 -9.189179e-01 6.954954e+00 -2.456136e-06 -1.481882e-05 -4.086134e-05
N 4.776857e+00 -9.574949e-01 -3.377219e+00 4.244612e-06 -2.262825e-05 -5.035420e-05
N -3.227521e+00 1.810768e+00 1.753140e+00 -4.238389e-05 1.173691e-05 -2.519007e-05
N -3.265176e+00 1.783486e+00 6.968910e+00 1.067004e-05 -5.872870e-07 -3.487986e-05
N -3.227686e+00 1.855073e+00 -3.345414e+00 -3.857045e-06 -8.441701e-06 -4.532413e-05
N -1.877905e-02 -3.741239e+00 1.756996e+00 -3.693415e-05 7.927339e-08 2.242589e-07
N -6.847959e-02 -3.763533e+00 7.033030e+00 -8.433882e-06 2.395472e-06 -4.490011e-05
N 1.956540e-02 -3.762804e+00 -3.349783e+00 -2.556340e-05 8.702573e-06 -3.545564e-05
N -1.671585e+00 -9.877468e-01 1.849969e+00 -2.103396e-05 2.847665e-06 5.300388e-05
N -1.627631e+00 -9.626277e-01 6.996299e+00 -1.960360e-05 -1.561272e-05 -3.559431e-05
N -1.620991e+00 -9.634215e-01 -3.354062e+00 -9.881741e-06 -1.527262e-05 -5.890004e-05
