108
Energy=-1947255.314267 Lattice="9.577168 0.000000 0.000000 -4.787925 8.294957 0.000000 0.001496 -0.001299 15.508131" Stress="-0.000000 0.000000 0.000000 0.000000 -0.000000 0.000000 0.000000 0.000000 -0.000000" Properties=species:S:1:pos:R:3:forces:R:3
Al 1.573435 0.875109 2.414273 -0.000029 0.000054 0.000022
Al 1.571643 0.881708 7.617019 -0.000020 -0.000026 -0.000007
Al 1.571882 0.869053 -2.722856 -0.000050 -0.000037 -0.000015
Al -0.013046 3.645151 2.425169 0.000089 -0.000006 0.000163
Al -0.010685 3.647718 7.614396 -0.000040 0.000026 0.000108
Ga -0.011646 3.643696 -2.729429 -0.000012 -0.000012 0.000205
Al 3.162349 -1.875896 2.413988 -0.000011 0.000052 0.000047
Ga 3.174779 -1.876303 7.626606 0.000020 0.000033 0.000145
Al 3.175116 -1.859838 -2.734231 -0.000002 0.000008 -0.000058
Ga -4.829676 0.873628 2.427913 -0.000041 0.000061 0.000066
Ga -4.807698 0.876173 7.629829 0.000072 -0.000014 0.000121
Ga -4.810512 0.862803 -2.741790 0.000017 -0.000007 0.000116
Al -6.413445 3.648789 2.424840 -0.000081 -0.000020 -0.000009
Ga -6.427944 3.645131 7.606438 -0.000022 0.000004 0.000176
Al -6.412529 3.652299 -2.718616 0.000046 0.000056 0.000071
Ga -3.218768 -1.892360 2.430053 -0.000025 -0.000064 0.000056
Al -3.215934 -1.887990 7.604702 -0.000102 0.000049 -0.000004
Al -3.227338 -1.879546 -2.724656 -0.000013 -0.000024 0.000007
Ga -1.602182 0.875650 2.465561 -0.000043 -0.000001 0.000139
Ga -1.618415 0.878065 7.594227 -0.000018 -0.000007 0.000087
Al -1.616481 0.878438 -2.743265 -0.000017 -0.000026 0.000086
Ga -3.219571 3.662578 2.430629 -0.000083 -0.000127 0.000156
Ga -3.205708 3.636116 7.609678 0.000030 -0.000090 0.000048
Ga -3.218733 3.644920 -2.716245 -0.000066 -0.000030 0.000145
Al -0.014639 -1.882170 2.410029 -0.000084 0.000049 0.000080
Ga -0.025875 -1.867041 7.617219 -0.000025 -0.000026 0.000132
Ga -0.011598 -1.872383 -2.717180 -0.000032 -0.000094 0.000190
Ga -0.018738 1.802138 5.023977 -0.000030 -0.000023 0.000027
Ga -0.020644 1.790972 -5.316672 -0.000068 -0.000056 0.000058
Ga -0.018812 1.787072 -0.143681 -0.000084 -0.000059 -0.000131
Ga 3.176105 -3.728004 5.011131 -0.000054 -0.000069 0.000092
Ga 3.167666 -3.715024 -5.303813 -0.000057 0.000026 0.000152
Ga 3.163503 -3.695791 -0.143844 -0.000060 0.000027 -0.000298
Ga 1.565394 -0.957948 4.994115 -0.000089 0.000054 -0.000002
Al 1.587278 -0.949965 -5.297767 0.000026 0.000032 -0.000017
Al 1.585585 -0.966119 -0.142910 0.000000 -0.000042 -0.000062
Ga 3.169968 1.800494 5.011144 -0.000054 -0.000034 0.000011
Ga 3.165562 1.786882 -5.293069 -0.000078 -0.000046 0.000143
Ga 3.164926 1.801384 -0.159001 -0.000057 -0.000105 0.000249
Ga 6.360649 -3.721668 5.017191 -0.000021 0.000015 0.000012
Ga 6.356523 -3.708801 -5.304673 -0.000028 -0.000012 0.000045
Ga 6.372296 -3.717521 -0.147124 -0.000068 -0.000026 0.000116
Ga 4.774828 -0.958348 5.025685 0.000020 -0.000021 0.000073
Al 4.768525 -0.965240 -5.307097 0.000005 0.000039 0.000008
Al 4.750127 -0.970549 -0.161021 -0.000085 0.000055 0.000021
Al -3.213792 1.795296 5.017072 -0.000006 -0.000038 0.000037
Al -3.215893 1.794809 -5.297245 0.000098 -0.000041 0.000009
Ga -3.215096 1.796903 -0.155378 -0.000031 -0.000038 0.000178
Ga -0.028037 -3.717526 5.000371 -0.000043 -0.000047 0.000037
Ga -0.018181 -3.726630 -5.300307 -0.000042 -0.000088 0.000105
Al -0.030648 -3.717554 -0.136712 0.000082 0.000036 0.000064
Al -1.618108 -0.964524 5.018384 -0.000095 -0.000000 0.000004
Ga -1.636355 -0.956833 -5.296410 -0.000096 0.000052 0.000156
Ga -1.618685 -0.963735 -0.165428 -0.000074 -0.000004 -0.000168
N 1.572995 0.882513 4.324873 0.000105 -0.000056 0.000004
N 1.575133 0.832289 -5.972786 0.000043 0.000028 0.000025
N 1.570510 0.826024 -0.803654 0.000033 0.000085 0.000013
N -0.019570 3.643966 4.337585 0.000022 0.000059 -0.000043
N -0.022082 3.646931 -5.975492 0.000116 0.000019 -0.000040
N -0.024273 3.645335 -0.763651 0.000109 0.000001 -0.000119
N 3.172427 -1.878544 4.333282 0.000080 0.000026 -0.000068
N 3.168393 -1.830929 -5.898771 -0.000004 -0.000046 -0.000152
N 3.165031 -1.827171 -0.803703 0.000049 -0.000057 0.000050
N -4.772687 0.901220 4.404152 0.000013 -0.000027 -0.000045
N -4.770656 0.858316 -5.883947 -0.000027 -0.000005 -0.000097
N -4.812251 0.830898 -0.764080 0.000044 0.000012 -0.000002
N -6.409485 3.646426 4.339919 0.000057 0.000049 0.000088
N -6.411353 3.643285 -5.933974 0.000065 0.000078 -0.000139
N -6.364630 3.673401 -0.802471 -0.000085 -0.000014 -0.000003
N -3.175615 -1.858360 4.402763 -0.000021 0.000038 -0.000100
N -3.255269 -1.857134 -5.980127 0.000157 -0.000036 0.000014
N -3.263641 -1.858282 -0.805598 0.000116 -0.000030 -0.000023
N -1.654033 0.855650 4.449438 0.000018 0.000013 -0.000115
N -1.663784 0.902829 -5.933080 0.000018 -0.000002 -0.000056
N -1.617903 0.884523 -0.834530 0.000066 -0.000003 -0.000068
N -3.215345 3.601492 4.408561 0.000057 0.000067 -0.000113
N -3.214321 3.595335 -5.916699 0.000003 0.000066 -0.000042
N -3.258271 3.673088 -0.739316 0.000051 -0.000027 -0.000117
N -0.064335 -1.856437 4.338757 0.000149 -0.000044 0.000022
N 0.016985 -1.851130 -5.904252 0.000055 -0.000008 -0.000170
N 0.027214 -1.904684 -0.732451 -0.000007 0.000060 -0.000107
N 0.014435 1.821060 1.840829 -0.000030 -0.000015 0.000094
N 0.025342 1.828972 7.017187 -0.000024 -0.000023 -0.000137
N -0.016241 1.752618 -3.330024 -0.000019 0.000060 -0.000064
N 3.211558 -3.698275 1.841005 0.000006 0.000039 0.000351
N 3.214819 -3.744857 6.999164 -0.000036 0.000022 -0.000078
N 3.169616 -3.674966 -3.325100 -0.000001 -0.000031 -0.000145
N 1.576479 -0.962348 1.796847 0.000009 0.000006 -0.000025
N 1.575574 -0.914565 6.978142 -0.000021 0.000016 -0.000087
N 1.617905 -0.933121 -3.373881 0.000024 0.000031 -0.000004
N 3.125108 1.829196 1.829485 0.000064 -0.000035 -0.000240
N 3.130307 1.774805 6.997364 -0.000048 -0.000017 -0.000056
N 3.123014 1.827864 -3.305257 0.000035 -0.000075 -0.000177
N 6.363651 -3.771959 1.834714 0.000019 0.000065 -0.000142
N 6.317719 -3.701956 7.005879 0.000037 -0.000075 -0.000075
N 6.404217 -3.697165 -3.319893 -0.000090 -0.000032 -0.000056
N 4.723689 -0.989994 1.761520 0.000062 0.000009 -0.000072
N 4.804095 -0.984585 7.000513 -0.000032 -0.000019 -0.000078
N 4.769760 -1.016467 -3.383244 -0.000030 0.000046 0.000004
N -3.208989 1.797390 1.813667 0.000064 0.000045 -0.000292
N -3.220987 1.800036 6.926589 -0.000022 0.000042 -0.000083
N -3.173896 1.782633 -3.381142 -0.000045 0.000049 -0.000061
N -0.070017 -3.703037 1.793498 0.000082 -0.000013 -0.000123
N -0.024398 -3.721761 6.978924 -0.000008 0.000051 -0.000101
N -0.063924 -3.745876 -3.331293 0.000029 0.000056 -0.000091
N -1.582630 -0.981083 1.811628 0.000087 0.000052 0.000158
N -1.657296 -0.992336 6.945477 0.000083 0.000053 -0.000035
N -1.662384 -0.944675 -3.309110 0.000056 0.000077 -0.000175
