108
Energy=-1214847.177732 Lattice="9.482654 0.000000 0.000000 -4.749308 8.208551 0.000000 -0.002301 0.009841 15.300947" Stress="-0.000010 -0.000003 -0.000001 -0.000003 -0.000022 -0.000001 -0.000001 -0.000001 0.000004" Properties=species:S:1:pos:R:3:forces:R:3
Al 1.553412 0.888632 2.452342 0.007031 0.003628 -0.004933
Al 1.558738 0.892390 7.505489 -0.000403 0.000022 0.000208
Al 1.562928 0.875464 -2.742174 0.000202 0.000737 0.000579
Al -0.015588 3.597065 2.409905 -0.002905 0.002996 0.003041
Al -0.031463 3.599072 7.508303 -0.000179 0.000311 0.000196
Al -0.008098 3.602625 -2.726227 -0.000923 -0.001158 -0.000602
Al 3.162344 -1.879093 2.410304 -0.005380 0.007674 0.000736
Al 3.149418 -1.869651 7.503949 -0.001252 0.001017 -0.000045
Ga 3.158392 -1.877330 -2.714769 -0.000448 0.000407 0.001308
Al -4.797623 0.876314 2.449679 0.007399 0.004479 -0.001639
Al -4.781326 0.888335 7.489577 0.000813 0.000504 -0.000057
Al -4.782199 0.871726 -2.724620 0.000870 0.000608 0.000203
Al -6.360238 3.623544 2.442436 0.003634 0.011167 0.001763
Al -6.346052 3.596523 7.515809 0.000196 0.000235 -0.000024
Al -6.369320 3.591898 -2.739075 0.001531 0.001043 0.002139
Ga -3.179114 -1.847818 2.404945 -0.000198 0.000931 -0.000813
Ga -3.188007 -1.858122 7.486579 0.000317 0.000157 0.000567
Al -3.181576 -1.885364 -2.697593 0.000001 0.000460 0.002315
Al -1.593635 0.880852 2.436858 -0.003737 -0.003490 0.000725
Al -1.610764 0.902000 7.485003 0.000909 0.000537 0.002764
Ga -1.615224 0.882636 -2.716268 0.000829 -0.000567 0.000752
Ga -3.174574 3.615755 2.442654 -0.002125 -0.000418 0.000421
Al -3.187504 3.609815 7.490985 0.000062 0.000084 -0.000037
Ga -3.192021 3.602179 -2.724492 0.000220 -0.001073 0.000542
Al -0.026829 -1.861460 2.424802 0.001084 0.001484 -0.000816
Ga -0.013020 -1.855404 7.503509 -0.000128 -0.000497 0.000698
Ga -0.020574 -1.867262 -2.719097 -0.000066 -0.000198 0.000871
Al -0.036393 1.788970 4.967831 -0.000930 0.000437 0.000579
Al -0.021030 1.787302 -5.280058 0.001849 0.000716 0.002553
Ga -0.023348 1.793776 -0.132413 -0.000930 -0.001596 -0.001379
Al 3.150388 -3.693512 4.973821 -0.000641 0.000944 0.001291
Al 3.144310 -3.708766 -5.290764 -0.000441 0.000395 0.001048
Al 3.165077 -3.692966 -0.139143 -0.000313 0.001053 -0.000643
Ga 1.570706 -0.950821 4.952859 -0.000089 -0.000371 0.000288
Al 1.575858 -0.952106 -5.276541 -0.000457 0.000213 0.000583
Ga 1.573132 -0.963532 -0.123185 -0.001485 0.000962 0.000517
Al 3.133489 1.792101 4.977464 0.001226 0.000496 -0.000250
Al 3.128382 1.785784 -5.270075 0.000178 -0.000382 0.001044
Ga 3.129670 1.781518 -0.140355 0.001618 0.003496 0.001603
Ga 6.303248 -3.694558 4.963332 -0.000298 -0.000530 0.000934
Al 6.301257 -3.717909 -5.256347 -0.000038 0.001524 -0.000004
Al 6.294609 -3.684619 -0.159112 0.001165 0.000554 -0.000444
Al 4.715151 -0.937458 4.968775 -0.001255 0.000577 0.000410
Ga 4.720034 -0.951712 -5.262540 -0.000639 -0.000035 0.002136
Al 4.731959 -0.958979 -0.154646 -0.000223 -0.000004 -0.000340
Al -3.195110 1.784580 4.974886 0.000464 -0.000111 -0.001288
Al -3.199588 1.795861 -5.292630 0.002316 0.000122 0.001537
Ga -3.199961 1.769724 -0.122723 0.000344 0.000251 -0.000552
Al -0.025787 -3.689290 4.971990 0.000965 -0.000379 -0.000269
Al -0.021697 -3.706537 -5.274907 0.001293 -0.000366 0.001110
Ga -0.037498 -3.688359 -0.133586 -0.000560 -0.000352 -0.000370
Al -1.600270 -0.931839 4.943339 0.001321 0.001778 0.005024
Ga -1.593806 -0.946010 -5.261677 0.000000 0.000115 0.001537
Al -1.609801 -0.955888 -0.138956 -0.000329 -0.000240 -0.000323
N 1.550977 0.927332 4.357216 0.001024 0.000802 -0.000920
N 1.554685 0.870334 -5.874545 0.000927 0.000566 -0.000514
N 1.550653 0.862732 -0.822196 0.000961 0.000889 0.000734
N -0.066364 3.587667 4.337344 -0.000115 -0.000307 -0.003033
N -0.022776 3.599618 -5.877361 0.000285 0.000054 -0.000309
N -0.024675 3.647070 -0.797096 -0.000139 0.000516 0.001305
N 3.191226 -1.893285 4.333463 0.000417 -0.000600 -0.001635
N 3.112948 -1.896370 -5.886959 -0.000579 -0.000211 -0.000405
N 3.183215 -1.897294 -0.733983 0.000414 0.000284 0.001335
N -4.780068 0.876771 4.373259 0.000846 -0.000508 -0.000930
N -4.776154 0.914137 -5.897577 0.000486 0.000481 -0.001393
N -4.776879 0.829287 -0.808515 0.000461 -0.000799 0.001066
N -6.308914 3.588025 4.348378 -0.001099 0.001486 -0.000154
N -6.350028 3.600784 -5.866808 -0.000417 -0.000379 0.000022
N -6.392691 3.624127 -0.812706 -0.001097 0.000577 -0.002425
N -3.182452 -1.809407 4.389112 -0.000763 -0.000969 -0.001901
N -3.176224 -1.917570 -5.857306 -0.000437 -0.001172 -0.000127
N -3.176968 -1.869589 -0.756387 -0.000444 0.000161 0.001825
N -1.611951 0.884968 4.360677 0.000694 -0.000537 -0.000733
N -1.597099 0.924170 -5.888469 -0.004535 -0.000381 -0.003342
N -1.610899 0.834633 -0.745069 0.000920 -0.000429 -0.000566
N -3.185090 3.618033 4.424094 0.000231 -0.000749 0.000191
N -3.190550 3.610578 -5.886435 -0.000057 -0.001075 -0.000944
N -3.151115 3.630651 -0.742321 0.001196 -0.000274 0.000534
N -0.060512 -1.884122 4.342744 -0.001206 -0.000140 0.000159
N 0.024100 -1.891029 -5.830948 -0.000228 -0.000330 -0.000540
N -0.053063 -1.841548 -0.748192 -0.000727 0.000208 0.000355
N -0.034433 1.774146 1.859359 0.007273 0.005353 -0.001687
N -0.024976 1.788141 6.894478 0.000288 0.000754 -0.001840
N 0.013269 1.797158 -3.354525 0.000463 0.002320 0.000255
N 3.186945 -3.659652 1.783523 0.002956 -0.005996 -0.001414
N 3.148154 -3.687774 6.900882 0.000402 0.000316 -0.000828
N 3.184259 -3.725639 -3.376927 0.001252 0.000467 -0.000277
N 1.551864 -0.940471 1.863955 0.007693 0.000112 0.004921
N 1.607204 -0.918703 6.925321 0.000903 -0.000634 -0.000868
N 1.574425 -0.917610 -3.362741 -0.000297 0.000646 -0.000864
N 3.178123 1.886713 1.865965 -0.015603 -0.037113 -0.006502
N 3.128827 1.794138 6.898774 -0.000041 -0.000201 -0.001727
N 3.132962 1.777593 -3.342115 0.000210 0.000002 -0.000480
N 6.304900 -3.728074 1.779005 -0.002048 0.000632 -0.000232
N 6.305347 -3.738865 6.929290 -0.000997 -0.000436 -0.000350
N 6.300132 -3.693939 -3.330123 -0.000145 0.000298 -0.000205
N 4.676916 -0.913167 1.776809 -0.000312 0.001468 -0.001052
N 4.676887 -0.919869 6.882774 -0.001079 -0.000395 -0.001707
N 4.769544 -0.933833 -3.288711 -0.000394 -0.000575 -0.000049
N -3.181808 1.742798 1.852305 -0.004010 -0.002867 0.003767
N -3.195891 1.789638 6.894488 0.000304 -0.000198 -0.000529
N -3.236422 1.759829 -3.375068 -0.000209 -0.000284 -0.001118
N -0.057968 -3.673017 1.842473 0.000681 0.005810 0.001677
N -0.027176 -3.725166 6.887011 -0.000013 -0.000922 -0.001076
N -0.060616 -3.716900 -3.364213 -0.001710 -0.001044 -0.000061
N -1.550549 -0.912528 1.783650 -0.003095 -0.002833 0.001203
N -1.597107 -0.888489 6.866100 -0.000035 -0.001512 -0.004039
N -1.644349 -0.974044 -3.303723 -0.000920 -0.000678 0.000228
