108
Energy=-5.739907e+05 Lattice="9.412495e+00 0.000000e+00 0.000000e+00 -4.706468e+00 8.151745e+00 0.000000e+00 2.600387e-04 6.860353e-05 1.509536e+01" Stress="-4.090072e-05 -1.216398e-04 4.625587e-06 -1.254038e-04 -2.291666e-04 -3.547986e-04 4.734287e-06 -3.556574e-04 4.871552e-04" Properties=species:S:1:pos:R:3:forces:R:3 Config_type=AlGaN_super3_3_1_24.xyz
Al 1.546766e+00 8.660362e-01 2.370682e+00 -4.853516e-05 -2.367870e-04 -3.212819e-04
Al 1.546303e+00 8.731717e-01 7.378407e+00 -4.989648e-05 6.978332e-05 -1.156012e-04
Al 1.550003e+00 8.815080e-01 -2.649856e+00 2.575370e-04 1.357049e-03 7.942147e-04
Al -2.168303e-02 3.583323e+00 2.366286e+00 -1.553592e-05 -1.346432e-04 -1.761913e-04
Al -2.781300e-02 3.579773e+00 7.383096e+00 -6.739808e-05 8.349917e-05 -1.153173e-03
Al -2.955286e-02 3.578728e+00 -2.651514e+00 2.406530e-04 2.507922e-04 -1.568835e-04
Al 3.115855e+00 -1.851554e+00 2.370664e+00 -2.339425e-04 2.012018e-04 -1.809923e-04
Al 3.121693e+00 -1.855437e+00 7.378355e+00 1.210544e-04 -4.490197e-05 -1.394629e-04
Al 3.130904e+00 -1.856532e+00 -2.649747e+00 6.586951e-04 -9.201899e-05 4.708041e-04
Al -4.727099e+00 8.665834e-01 2.367304e+00 1.523302e-05 -4.906085e-06 -1.737433e-04
Al -4.729859e+00 8.650058e-01 7.392012e+00 1.805682e-05 -9.728569e-05 -1.277452e-04
Al -4.729324e+00 8.653373e-01 -2.666356e+00 1.072886e-04 -1.455944e-05 1.580469e-04
Al -6.299667e+00 3.581996e+00 2.370865e+00 -8.456422e-05 -1.070490e-04 -1.550573e-04
Al -6.293430e+00 3.578966e+00 7.377972e+00 -4.481999e-05 -2.999285e-05 -5.053039e-04
Al -6.294530e+00 3.571706e+00 -2.649375e+00 -2.526934e-03 8.858843e-04 5.218405e-04
Al -3.161668e+00 -1.853166e+00 2.370829e+00 1.760783e-04 1.837547e-04 -1.421534e-04
Al -3.161163e+00 -1.846214e+00 7.378010e+00 1.054398e-04 1.947135e-04 -2.038098e-03
Al -3.168111e+00 -1.843650e+00 -2.649464e+00 1.894418e-03 3.197574e-03 1.100345e-05
Al -1.593690e+00 8.684953e-01 2.371427e+00 6.394753e-05 -1.665240e-04 -3.645577e-04
Al -1.590089e+00 8.666066e-01 7.388409e+00 4.752744e-05 -1.132065e-05 -2.791669e-05
Al -1.595759e+00 8.723563e-01 -2.663938e+00 9.551388e-05 6.531260e-03 2.609167e-03
Al -3.158811e+00 3.579491e+00 2.371481e+00 1.178708e-04 -1.067695e-04 -1.451615e-04
Al -3.158694e+00 3.583577e+00 7.388377e+00 8.049017e-05 -1.129958e-05 -4.340955e-04
Al -3.156489e+00 3.575970e+00 -2.663889e+00 -2.562520e-03 1.671029e-03 -5.222203e-05
Al -2.114923e-02 -1.850971e+00 2.367312e+00 6.643959e-05 4.033569e-04 -5.211564e-04
Al -2.768381e-02 -1.854669e+00 7.380326e+00 -1.025202e-04 1.361164e-04 8.386345e-04
Ga -3.069957e-02 -1.834898e+00 -2.633679e+00 7.430700e-05 -1.455716e-03 -7.987843e-04
Al -2.377342e-02 1.771796e+00 4.874232e+00 -8.905218e-06 -1.743396e-05 -8.829640e-05
Al -3.076106e-02 1.771243e+00 -5.183984e+00 -1.087364e-04 8.569828e-04 -2.696811e-04
Al -2.431424e-02 1.770465e+00 -1.407720e-01 -1.853297e-04 -5.752367e-04 1.618660e-04
Al 3.114984e+00 -3.664567e+00 4.874246e+00 5.481935e-06 4.387018e-05 -4.303075e-05
Al 3.110673e+00 -3.669936e+00 -5.184054e+00 1.393222e-04 2.712826e-04 -1.309801e-04
Al 3.113682e+00 -3.664557e+00 -1.407489e-01 1.006931e-04 5.758862e-05 3.465366e-04
Al 1.546403e+00 -9.460557e-01 4.880032e+00 -2.003420e-05 1.375565e-05 -2.947887e-04
Ga 1.552508e+00 -9.422060e-01 -5.188822e+00 -1.430280e-04 6.891227e-05 3.551923e-06
Al 1.553845e+00 -9.418564e-01 -1.347374e-01 3.186087e-03 3.062393e-03 2.131567e-03
Al 3.116906e+00 1.770135e+00 4.874181e+00 -2.976986e-05 -4.063338e-05 -1.050526e-04
Al 3.122426e+00 1.772432e+00 -5.183808e+00 -1.135463e-04 3.885888e-05 -4.763751e-05
Al 3.116905e+00 1.770999e+00 -1.405867e-01 -3.081504e-04 -2.854808e-04 2.994115e-04
Al 6.251567e+00 -3.663840e+00 4.879740e+00 -3.336290e-05 4.499589e-05 -3.186244e-05
Ga 6.252868e+00 -3.658411e+00 -5.186787e+00 -1.043681e-04 -5.333989e-04 4.132237e-04
Al 6.253066e+00 -3.663070e+00 -1.483992e-01 -1.909637e-04 -9.967234e-05 5.312649e-04
Al 4.683814e+00 -9.436562e-01 4.874180e+00 -1.547317e-05 -2.091024e-05 -5.013974e-05
Al 4.688291e+00 -9.399739e-01 -5.183814e+00 1.782390e-04 1.609721e-04 -2.918922e-04
Al 4.684643e+00 -9.441819e-01 -1.405913e-01 -1.213631e-04 1.023178e-04 3.505233e-04
Al -3.160862e+00 1.771027e+00 4.882421e+00 3.215841e-05 -3.643964e-05 -1.129883e-04
Al -3.159691e+00 1.771808e+00 -5.188613e+00 1.673547e-04 -4.158217e-04 1.152125e-04
Al -3.160212e+00 1.771320e+00 -1.493528e-01 4.772451e-04 -3.405363e-04 2.226450e-04
Al -2.103320e-02 -3.663702e+00 4.873455e+00 4.765881e-06 5.947320e-05 -1.520835e-04
Al -1.864228e-02 -3.675592e+00 -5.194443e+00 -6.304162e-04 7.032282e-04 3.594773e-03
Al -2.089033e-02 -3.672367e+00 -1.265029e-01 2.429298e-04 3.989548e-03 -9.251384e-04
Al -1.590956e+00 -9.444566e-01 4.873404e+00 6.575586e-06 2.390035e-05 -1.525588e-04
Al -1.599986e+00 -9.360007e-01 -5.194281e+00 8.798099e-05 1.682842e-03 1.806726e-03
Al -1.598266e+00 -9.402026e-01 -1.267209e-01 -1.423207e-03 2.606139e-03 1.493225e-03
N 1.546284e+00 8.652947e-01 4.284986e+00 -1.289817e-05 -2.792896e-05 1.904988e-04
N 1.546082e+00 9.187257e-01 -5.805272e+00 -5.238774e-05 3.497041e-05 -4.574545e-05
N 1.546518e+00 8.700209e-01 -7.344056e-01 6.430371e-04 8.193627e-04 1.023418e-04
N -2.164512e-02 3.583260e+00 4.281003e+00 -3.332135e-05 3.487823e-06 6.864071e-05
N -6.468550e-02 3.563627e+00 -5.806308e+00 9.488599e-05 -1.701995e-03 2.083137e-03
N -2.641477e-02 3.580388e+00 -7.359152e-01 1.417965e-04 1.879943e-04 -9.877296e-05
N 3.114975e+00 -1.851691e+00 4.285008e+00 -1.765482e-06 -2.474677e-05 1.440661e-04
N 3.160535e+00 -1.878052e+00 -5.805105e+00 -3.176603e-05 5.445695e-06 6.865869e-05
N 3.119268e+00 -1.854020e+00 -7.343523e-01 4.978373e-05 -2.468345e-04 4.417051e-05
N -4.726741e+00 8.668323e-01 4.280277e+00 1.796001e-05 -3.022946e-05 8.721735e-05
N -4.729485e+00 8.652980e-01 -5.781151e+00 -4.657947e-05 9.414704e-05 6.509927e-05
N -4.729344e+00 8.652414e-01 -7.456789e-01 -1.882035e-05 -2.133216e-05 5.185341e-05
N -6.299212e+00 3.582814e+00 4.284950e+00 7.290681e-05 8.605907e-06 5.994770e-05
N -6.259139e+00 3.558784e+00 -5.809263e+00 3.893781e-04 -3.507431e-04 6.840995e-04
N -6.292795e+00 3.580746e+00 -7.343104e-01 -1.497911e-04 7.014898e-04 4.038844e-04
N -3.160675e+00 -1.853221e+00 4.284940e+00 -3.764138e-05 -9.406817e-06 1.228612e-04
N -3.160294e+00 -1.802304e+00 -5.817572e+00 -4.144867e-04 2.102219e-04 3.811806e-03
N -3.159184e+00 -1.846858e+00 -7.343763e-01 4.387364e-04 -3.876926e-04 -6.222906e-05
N -1.593611e+00 8.678523e-01 4.283739e+00 4.228012e-05 1.016606e-05 1.402607e-04
N -1.590899e+00 8.685237e-01 -5.787609e+00 7.204387e-05 3.100149e-04 -4.309572e-04
N -1.591092e+00 8.646929e-01 -7.442842e-01 -5.905552e-04 1.126746e-03 6.800658e-04
N -3.159378e+00 3.579911e+00 4.283800e+00 -4.238675e-06 2.481555e-05 5.057694e-05
N -3.157664e+00 3.582070e+00 -5.787656e+00 -4.586124e-04 2.630065e-04 9.119473e-04
N -3.160744e+00 3.583480e+00 -7.442951e-01 -1.448234e-04 6.200245e-04 2.698015e-04
N -2.131317e-02 -1.851167e+00 4.283520e+00 4.687800e-05 -3.168940e-05 1.619685e-04
N -6.606921e-02 -1.875800e+00 -5.792101e+00 6.001925e-04 -3.176547e-05 -2.118024e-03
N -1.947098e-02 -1.822176e+00 -6.605728e-01 -2.489977e-03 -1.153136e-02 -1.902645e-03
N -2.326916e-02 1.770775e+00 1.775486e+00 3.486014e-06 9.307554e-05 -9.442220e-05
N -2.485832e-02 1.771257e+00 6.785735e+00 1.915423e-06 -9.976770e-05 5.988864e-05
N -2.252110e-02 1.771216e+00 -3.260696e+00 5.487455e-04 1.121600e-03 -3.454352e-04
N 3.114206e+00 -3.663502e+00 1.775487e+00 -5.058844e-05 -4.218094e-05 -2.731054e-04
N 3.113869e+00 -3.665065e+00 6.785793e+00 -2.514590e-04 1.378872e-05 9.891427e-06
N 3.115079e+00 -3.663071e+00 -3.260706e+00 -6.789422e-04 -4.551051e-05 -3.285678e-04
N 1.550444e+00 -9.437187e-01 1.779860e+00 5.041502e-04 3.359258e-05 4.085643e-04
N 1.546636e+00 -9.458788e-01 6.799467e+00 -1.573491e-04 -6.052812e-05 3.128676e-04
N 1.595051e+00 -9.165205e-01 -3.217341e+00 -1.135778e-03 -1.086344e-03 -7.581039e-04
N 3.115540e+00 1.771180e+00 1.775470e+00 1.036377e-04 7.157395e-05 -2.200259e-04
N 3.118471e+00 1.769171e+00 6.785367e+00 2.132490e-05 8.706744e-07 1.436513e-04
N 3.114534e+00 1.771832e+00 -3.262330e+00 2.604780e-04 7.773760e-04 -2.927613e-04
N 6.252990e+00 -3.663030e+00 1.770593e+00 1.029729e-07 2.854578e-05 -2.662520e-04
N 6.251541e+00 -3.663845e+00 6.797378e+00 1.036218e-04 -1.267235e-05 -3.444931e-05
N 6.249574e+00 -3.654341e+00 -3.205076e+00 1.252437e-03 -2.402434e-03 6.570632e-04
N 4.683953e+00 -9.453616e-01 1.775445e+00 3.194738e-05 1.875273e-05 -3.129758e-04
N 4.683663e+00 -9.418048e-01 6.785431e+00 -1.195310e-04 7.401951e-05 2.700487e-05
N 4.684002e+00 -9.464484e-01 -3.262307e+00 4.115513e-04 3.603476e-05 -4.104370e-04
N -3.160034e+00 1.771602e+00 1.768047e+00 -9.527730e-05 1.031825e-04 -1.482001e-04
N -3.160985e+00 1.771001e+00 6.798930e+00 -2.217714e-05 9.610006e-05 1.652565e-04
N -3.160631e+00 1.771344e+00 -3.265400e+00 -8.682711e-04 1.385899e-03 -3.311466e-04
N -2.163984e-02 -3.668058e+00 1.785475e+00 -2.192463e-05 7.011695e-05 -5.841370e-04
N -1.963516e-02 -3.664461e+00 6.786750e+00 8.151988e-05 1.337788e-04 3.536852e-04
N -3.999557e-02 -3.693229e+00 -3.260798e+00 6.259574e-03 -2.300597e-03 -5.274409e-03
N -1.595078e+00 -9.429007e-01 1.785475e+00 -4.432257e-04 -5.235738e-05 1.986983e-04
N -1.591010e+00 -9.428504e-01 6.786726e+00 2.702897e-04 2.848370e-05 3.239848e-05
N -1.627262e+00 -8.898396e-01 -3.269561e+00 -3.728535e-03 -1.208291e-02 -4.687597e-03
