108
Energy=-1.535276e+06 Lattice="9.527661e+00 0.000000e+00 0.000000e+00 -4.766065e+00 8.250320e+00 0.000000e+00 -3.547394e-03 8.051831e-03 1.538845e+01" Stress="-4.273689e-05 -3.321196e-05 -2.252287e-05 -3.343929e-05 1.446211e-05 5.102655e-04 -2.394984e-05 4.969532e-04 -1.982120e-04" Properties=species:S:1:pos:R:3:forces:R:3 Config_type=AlGaN_super3_24_1_46.xyz
Al 1.553224e+00 8.827458e-01 2.391197e+00 -2.832347e-05 5.549396e-05 2.998009e-04
Al 1.552881e+00 8.769974e-01 7.542059e+00 -2.273428e-05 8.008603e-06 1.734057e-04
Al 1.545162e+00 8.582821e-01 -2.689739e+00 1.414619e-04 3.458538e-05 2.896542e-04
Al -2.372312e-02 3.610259e+00 2.408707e+00 3.273137e-05 1.111783e-04 1.583335e-04
Al -1.797444e-02 3.629942e+00 7.537221e+00 -2.153821e-04 -1.255006e-04 9.418812e-05
Al -3.378438e-02 3.622867e+00 -2.704598e+00 1.161108e-04 -2.126133e-05 9.269294e-05
Al 3.160395e+00 -1.861486e+00 2.386227e+00 6.046171e-05 -3.304166e-05 2.182921e-04
Al 3.150190e+00 -1.868313e+00 7.556712e+00 2.381206e-05 8.707435e-06 7.702219e-05
Al 3.138446e+00 -1.880830e+00 -2.697835e+00 1.190295e-04 1.214982e-04 4.577274e-05
Al -4.798025e+00 8.627378e-01 2.411944e+00 5.220465e-06 1.152913e-04 2.435124e-05
Ga -4.805289e+00 8.662066e-01 7.534320e+00 1.442012e-04 5.474099e-06 3.147833e-05
Ga -4.795019e+00 8.657136e-01 -2.684960e+00 1.504581e-05 3.696934e-05 -3.070962e-05
Al -6.377480e+00 3.624805e+00 2.424893e+00 -1.812999e-04 -6.357524e-05 -1.343437e-04
Ga -6.394147e+00 3.634505e+00 7.547400e+00 3.135863e-05 2.121317e-05 8.871651e-05
Ga -6.385295e+00 3.632497e+00 -2.712942e+00 -1.289537e-05 -7.723867e-06 -4.378812e-06
Ga -3.209774e+00 -1.861661e+00 2.417918e+00 1.948921e-04 8.224166e-05 7.820259e-05
Ga -3.208151e+00 -1.881098e+00 7.531433e+00 3.134504e-05 1.438744e-04 1.938513e-04
Ga -3.193134e+00 -1.875323e+00 -2.697621e+00 -2.624166e-05 8.485390e-06 1.156242e-04
Al -1.587565e+00 8.815545e-01 2.409598e+00 5.621802e-07 -1.258082e-04 3.156226e-04
Ga -1.590760e+00 8.811554e-01 7.540103e+00 2.010183e-04 3.869247e-05 6.659679e-05
Al -1.584895e+00 8.678122e-01 -2.692328e+00 4.702221e-05 2.074507e-04 -5.780837e-05
Ga -3.196580e+00 3.636188e+00 2.399806e+00 9.178327e-05 2.035071e-04 3.242824e-05
Ga -3.192303e+00 3.648568e+00 7.559129e+00 9.322101e-05 -3.107549e-06 7.345112e-05
Ga -3.181078e+00 3.648882e+00 -2.696287e+00 -4.864923e-05 -3.764450e-05 6.950801e-05
Ga -1.918261e-02 -1.864174e+00 2.401561e+00 8.216606e-05 8.340046e-05 2.431025e-04
Ga -1.526345e-02 -1.860423e+00 7.559723e+00 8.971708e-05 1.666992e-05 2.685373e-04
Al -1.098586e-02 -1.857653e+00 -2.706918e+00 4.886565e-05 1.229999e-04 1.203543e-04
Al -1.869208e-02 1.797382e+00 4.964298e+00 4.709784e-05 -1.663918e-05 1.768191e-04
Ga -1.413820e-02 1.795558e+00 -5.259471e+00 -9.076745e-05 1.122959e-04 1.639356e-04
Al -2.895112e-02 1.788351e+00 -1.566411e-01 -1.153185e-04 -3.212595e-04 3.628179e-05
Ga 3.174921e+00 -3.696267e+00 4.974164e+00 -3.535079e-05 1.159188e-04 1.412715e-04
Al 3.164455e+00 -3.693930e+00 -5.275592e+00 1.160654e-04 -1.269027e-04 -1.630861e-04
Al 3.164496e+00 -3.691548e+00 -1.442868e-01 -4.555942e-05 -1.751670e-04 5.265838e-05
Ga 1.566265e+00 -9.519902e-01 4.969416e+00 -8.796506e-05 1.181307e-04 6.865224e-05
Al 1.563091e+00 -9.724914e-01 -5.261288e+00 7.363778e-05 5.339328e-04 1.129107e-04
Al 1.564419e+00 -9.650334e-01 -1.609397e-01 -6.088800e-05 1.064396e-04 -5.391958e-06
Ga 3.137199e+00 1.801242e+00 4.949460e+00 1.215073e-04 5.687505e-05 1.427383e-04
Ga 3.134729e+00 1.791872e+00 -5.269135e+00 -3.328112e-05 -8.983968e-06 2.005502e-05
Ga 3.139726e+00 1.787697e+00 -1.173381e-01 -2.868046e-05 2.698236e-05 9.749477e-05
Al 6.327425e+00 -3.705500e+00 4.953800e+00 -2.828985e-05 -2.745041e-05 -3.283701e-05
Al 6.323128e+00 -3.706188e+00 -5.271441e+00 -4.178584e-05 -3.349287e-05 1.410931e-04
Ga 6.317937e+00 -3.706773e+00 -1.279267e-01 -1.396644e-05 -1.597040e-05 -3.183804e-05
Al 4.740116e+00 -9.660942e-01 4.967461e+00 -8.388198e-05 4.066649e-05 1.285765e-04
Ga 4.734609e+00 -9.859209e-01 -5.266390e+00 -1.157834e-04 1.070884e-04 1.195102e-04
Al 4.726343e+00 -9.676712e-01 -1.395558e-01 2.501629e-04 -4.461796e-04 4.052726e-05
Ga -3.191856e+00 1.783532e+00 4.948064e+00 4.425013e-05 8.213937e-05 1.037244e-04
Ga -3.187539e+00 1.797144e+00 -5.253435e+00 -4.659061e-05 4.589566e-05 6.716326e-05
Ga -3.178442e+00 1.785536e+00 -1.268487e-01 2.796955e-05 -5.922764e-05 -1.070488e-04
Al -4.100739e-02 -3.694831e+00 4.971368e+00 4.407251e-05 7.334819e-05 2.661615e-04
Al -2.055277e-02 -3.685897e+00 -5.257175e+00 -2.149238e-05 -5.196055e-05 1.087019e-04
Al -1.880392e-02 -3.683346e+00 -1.500364e-01 2.647926e-06 2.522863e-05 1.274162e-04
Al -1.613010e+00 -9.554975e-01 4.959903e+00 -6.754454e-05 1.276164e-04 1.128367e-04
Al -1.594408e+00 -9.736761e-01 -5.249640e+00 -1.344421e-04 9.764498e-05 1.590489e-04
Al -1.593703e+00 -9.503566e-01 -1.547690e-01 6.369780e-05 9.221889e-05 6.527554e-05
N 1.513732e+00 8.968379e-01 4.303497e+00 -3.224517e-05 6.522671e-05 -1.907688e-04
N 1.557273e+00 8.206694e-01 -5.928123e+00 2.038540e-05 -2.342833e-04 -5.400213e-05
N 1.522626e+00 8.503504e-01 -7.688921e-01 -2.629171e-05 -1.627027e-05 -1.528538e-04
N 1.270788e-02 3.598608e+00 4.329104e+00 -2.996364e-05 -6.306051e-05 -2.273035e-04
N -2.070045e-02 3.668111e+00 -5.920488e+00 7.731014e-06 1.322575e-04 -4.551352e-05
N -6.715479e-02 3.603731e+00 -7.822693e-01 -8.816695e-05 3.289942e-04 -1.163078e-04
N 3.191518e+00 -1.847947e+00 4.300635e+00 4.947604e-05 3.739698e-05 -2.464031e-04
N 3.108057e+00 -1.896997e+00 -5.910796e+00 6.810879e-05 -2.004466e-04 -1.072988e-04
N 3.149987e+00 -1.875925e+00 -7.687825e-01 7.999898e-05 -1.456901e-04 -1.088106e-04
N -4.792239e+00 8.242144e-01 4.324614e+00 5.401720e-05 -1.163290e-04 -1.314210e-04
N -4.785914e+00 8.703077e-01 -5.886350e+00 1.149447e-04 -5.934152e-05 -6.958279e-05
N -4.788654e+00 8.325914e-01 -7.215883e-01 2.113790e-05 2.028795e-04 -2.511601e-05
N -6.374335e+00 3.681344e+00 4.339503e+00 3.444791e-05 2.551848e-05 -1.964738e-05
N -6.374077e+00 3.677241e+00 -5.853232e+00 3.244250e-05 7.770148e-05 -5.579088e-05
N -6.338415e+00 3.651214e+00 -7.455869e-01 6.249665e-05 -4.117716e-05 -2.853956e-05
N -3.201192e+00 -1.867528e+00 4.405543e+00 -2.115246e-06 -5.568263e-05 -8.724282e-05
N -3.149855e+00 -1.898688e+00 -5.863051e+00 1.029754e-04 -3.631075e-05 -1.764081e-04
N -3.196065e+00 -1.826719e+00 -7.169429e-01 -2.232913e-04 2.089123e-05 -5.396063e-05
N -1.557982e+00 8.541464e-01 4.332673e+00 6.407164e-05 -1.858351e-05 -2.520686e-04
N -1.603279e+00 8.228710e-01 -5.873455e+00 1.854771e-04 -2.028746e-04 -1.359271e-04
N -1.565950e+00 8.509758e-01 -7.805312e-01 4.362028e-05 2.516480e-05 1.119897e-04
N -3.238497e+00 3.664471e+00 4.372772e+00 -6.004228e-05 -1.496787e-04 -1.589070e-04
N -3.199208e+00 3.677502e+00 -5.842325e+00 -6.662844e-06 -5.622113e-06 -2.532192e-05
N -3.194388e+00 3.678656e+00 -7.116855e-01 8.199311e-05 5.803981e-05 4.948502e-05
N -6.104315e-02 -1.891199e+00 4.379051e+00 1.933166e-05 -1.815212e-04 -2.528583e-04
N -1.990919e-02 -1.871699e+00 -5.838497e+00 -1.449074e-04 -1.947026e-04 -2.414810e-04
N -1.991169e-02 -1.870200e+00 -7.725934e-01 5.594959e-05 -8.866351e-05 -1.508252e-04
N -2.512080e-02 1.797606e+00 1.771525e+00 -4.941772e-05 -2.703792e-05 -6.099742e-05
N 1.905612e-02 1.823772e+00 6.898118e+00 4.070308e-05 1.063373e-05 -1.907850e-04
N -1.814182e-02 1.795744e+00 -3.271844e+00 -1.107482e-04 -1.750813e-04 -1.029339e-04
N 3.206075e+00 -3.679137e+00 1.776746e+00 -1.304685e-04 2.683472e-05 -1.629096e-04
N 3.200270e+00 -3.675718e+00 6.958326e+00 -2.360712e-04 4.350140e-05 2.885179e-06
N 3.203236e+00 -3.678963e+00 -3.348779e+00 -1.468471e-04 1.204021e-04 1.807967e-05
N 1.606375e+00 -9.322853e-01 1.762560e+00 3.203232e-05 -4.444905e-05 -9.248040e-05
N 1.608291e+00 -9.305676e-01 6.952614e+00 -1.057839e-04 -9.874386e-06 -1.898461e-04
N 1.569817e+00 -9.578640e-01 -3.320794e+00 -5.662059e-06 -1.082243e-05 -1.294512e-04
N 3.149230e+00 1.797144e+00 1.865943e+00 4.363260e-05 4.200400e-05 -9.887592e-05
N 3.102404e+00 1.776699e+00 6.930249e+00 -1.004844e-04 -8.178635e-05 -1.167222e-04
N 3.101085e+00 1.762855e+00 -3.297396e+00 -6.113100e-05 -7.024205e-05 -4.375783e-05
N 6.326397e+00 -3.753014e+00 1.844397e+00 2.503105e-04 2.267844e-05 1.136950e-04
N 6.284906e+00 -3.730609e+00 6.872650e+00 1.275943e-04 4.942420e-05 -7.438207e-05
N 6.279694e+00 -3.731186e+00 -3.355777e+00 -2.858087e-05 -3.546197e-05 -3.013043e-05
N 4.700645e+00 -9.341932e-01 1.769713e+00 -2.754150e-04 -1.476594e-04 2.464555e-05
N 4.692607e+00 -9.839212e-01 6.886907e+00 -1.426086e-04 -2.712972e-05 -1.020027e-04
N 4.696053e+00 -9.879755e-01 -3.300313e+00 -1.774012e-04 -1.153287e-04 -2.864887e-05
N -3.193023e+00 1.742785e+00 1.851299e+00 -5.745730e-05 7.888354e-05 9.300828e-05
N -3.198329e+00 1.799260e+00 6.921783e+00 -7.448143e-05 -4.883551e-05 -1.218380e-04
N -3.153691e+00 1.770507e+00 -3.278800e+00 2.971908e-05 -4.922854e-05 -9.545851e-06
N -6.782954e-02 -3.723729e+00 1.756134e+00 4.884258e-05 -1.105452e-05 -1.328909e-04
N -2.682526e-02 -3.699815e+00 6.881533e+00 -5.361824e-05 1.198480e-05 -2.070185e-04
N -1.962381e-02 -3.655043e+00 -3.346301e+00 3.066402e-05 -7.427682e-05 -1.065427e-04
N -1.609524e+00 -9.057271e-01 1.757467e+00 1.415142e-05 2.867451e-05 -1.178897e-04
N -1.609089e+00 -9.537508e-01 6.867929e+00 -1.372651e-04 -2.418262e-05 -1.772480e-04
N -1.566254e+00 -9.345928e-01 -3.328893e+00 1.685116e-05 -1.336700e-04 -5.892850e-05
