108
Energy=-8.486435e+05 Lattice="9.447549e+00 0.000000e+00 0.000000e+00 -4.726905e+00 8.177373e+00 0.000000e+00 -1.221475e-02 -7.361499e-03 1.519471e+01" Stress="1.141641e-03 -2.169486e-04 -5.541668e-04 -2.196686e-04 3.259681e-04 -3.139293e-04 -5.685364e-04 -3.183066e-04 1.737464e-03" Properties=species:S:1:pos:R:3:forces:R:3 Config_type=AlGaN_super3_9_1_57.xyz
Al 1.550311e+00 8.687057e-01 2.422682e+00 -2.256956e-04 -1.027329e-04 2.419445e-04
Al 1.550732e+00 8.734759e-01 7.445987e+00 -3.493959e-05 4.014272e-05 -1.967541e-05
Al 1.553080e+00 8.726630e-01 -2.719992e+00 1.108860e-04 2.101359e-05 -1.998619e-04
Al -9.687708e-03 3.597800e+00 2.419425e+00 -9.956723e-05 5.717111e-05 -5.331822e-05
Al -3.037717e-02 3.590541e+00 7.444857e+00 -1.428972e-05 -2.823398e-05 -2.705886e-05
Al -2.012425e-02 3.590620e+00 -2.715225e+00 9.365419e-06 -4.305934e-05 -1.011075e-04
Al 3.134927e+00 -1.845990e+00 2.414729e+00 8.276035e-05 -2.003868e-04 -5.698154e-05
Al 3.130131e+00 -1.860780e+00 7.447141e+00 -2.028635e-05 3.776962e-05 -1.504993e-05
Al 3.128535e+00 -1.849896e+00 -2.710787e+00 6.062249e-05 1.152448e-05 -9.490403e-05
Al -4.746207e+00 8.601814e-01 2.403202e+00 9.943474e-07 -2.466801e-04 2.028228e-04
Al -4.758991e+00 8.637513e-01 7.435040e+00 5.320066e-05 1.743473e-05 -1.212720e-04
Al -4.751849e+00 8.694825e-01 -2.689471e+00 -1.337450e-05 7.486853e-05 -8.730148e-05
Al -6.338093e+00 3.597921e+00 2.390869e+00 -2.538947e-04 -1.633164e-04 1.642415e-04
Al -6.339470e+00 3.579037e+00 7.461547e+00 1.076958e-05 -2.847924e-05 -6.414834e-05
Al -6.318755e+00 3.593856e+00 -2.700722e+00 4.873312e-05 -2.200251e-05 3.790717e-06
Al -3.173883e+00 -1.859226e+00 2.380863e+00 -3.275263e-05 -5.106873e-05 -5.723400e-05
Al -3.183916e+00 -1.858885e+00 7.446220e+00 -9.865860e-05 -1.213461e-05 3.474327e-05
Ga -3.172465e+00 -1.854032e+00 -2.679176e+00 -7.894020e-05 -1.571645e-05 2.067610e-05
Al -1.602266e+00 8.606742e-01 2.400338e+00 1.053494e-04 -2.082725e-04 1.770208e-04
Al -1.603107e+00 8.686668e-01 7.437554e+00 2.438484e-05 3.452848e-05 -1.588052e-04
Al -1.587642e+00 8.742136e-01 -2.685230e+00 1.090375e-04 -1.588231e-04 -6.645556e-05
Ga -3.175359e+00 3.586154e+00 2.389898e+00 -4.727369e-06 3.925688e-05 -4.917311e-05
Al -3.167730e+00 3.585756e+00 7.452901e+00 6.246992e-05 -4.796760e-05 -1.032665e-05
Al -3.175308e+00 3.601274e+00 -2.685803e+00 1.545560e-05 -8.892031e-05 -1.103724e-04
Al -3.230710e-02 -1.848229e+00 2.393308e+00 -3.009644e-05 -1.041578e-04 -6.174857e-05
Ga -2.926522e-02 -1.850206e+00 7.466933e+00 -1.781890e-05 -9.691832e-06 -3.674034e-05
Al -1.580863e-02 -1.855485e+00 -2.703561e+00 1.078624e-04 -1.396758e-04 -9.066375e-05
Al -2.867274e-02 1.775499e+00 4.922400e+00 4.268646e-05 -1.538300e-05 -2.240932e-05
Al -1.345783e-02 1.779413e+00 -5.228711e+00 6.356548e-05 3.063136e-05 -3.344093e-05
Ga -2.880961e-02 1.781198e+00 -1.389894e-01 -4.147365e-07 8.288740e-05 3.664649e-05
Al 3.138850e+00 -3.671544e+00 4.934499e+00 1.495601e-05 -2.560744e-05 -2.037951e-05
Al 3.136631e+00 -3.664471e+00 -5.221088e+00 -3.170053e-05 4.270339e-05 -3.487948e-05
Ga 3.139498e+00 -3.667962e+00 -1.564837e-01 -4.003281e-05 8.887411e-06 7.747702e-06
Al 1.556257e+00 -9.418090e-01 4.918728e+00 -1.302306e-05 8.452678e-05 -9.220871e-05
Al 1.563641e+00 -9.427034e-01 -5.213006e+00 1.876854e-04 7.162673e-05 5.838771e-05
Ga 1.551466e+00 -9.546794e-01 -1.478183e-01 -7.829291e-05 -3.409961e-05 -1.197277e-05
Al 3.117476e+00 1.771314e+00 4.920966e+00 -1.653015e-05 -8.287656e-05 6.328414e-05
Al 3.123567e+00 1.779683e+00 -5.220986e+00 1.494738e-05 -2.874965e-05 -2.900666e-05
Ga 3.138975e+00 1.784828e+00 -1.453950e-01 -3.423563e-05 2.532453e-05 -3.032073e-05
Al 6.266760e+00 -3.672856e+00 4.927927e+00 4.902075e-05 -1.439860e-05 1.862252e-06
Al 6.281296e+00 -3.673264e+00 -5.235721e+00 -5.019680e-05 2.435806e-05 -8.522016e-05
Al 6.285156e+00 -3.666398e+00 -1.404645e-01 -2.726391e-04 -1.246428e-04 4.763795e-05
Al 4.701513e+00 -9.523086e-01 4.921663e+00 -5.078793e-05 3.143735e-05 -1.325730e-05
Al 4.699836e+00 -9.498685e-01 -5.237800e+00 2.797634e-05 1.675976e-05 -1.823865e-04
Al 4.711756e+00 -9.431627e-01 -1.318575e-01 -1.388093e-04 -7.233417e-05 1.835600e-04
Al -3.172690e+00 1.761114e+00 4.939512e+00 -1.633306e-05 -1.432385e-04 9.585463e-05
Ga -3.167794e+00 1.777412e+00 -5.217620e+00 -2.235595e-06 -6.844000e-06 -1.395633e-05
Al -3.176643e+00 1.763741e+00 -1.634696e-01 1.024866e-04 5.288653e-05 -1.417361e-04
Ga -3.385280e-02 -3.676956e+00 4.931807e+00 -4.815396e-05 -5.213116e-06 -1.970412e-05
Al -2.111850e-02 -3.672387e+00 -5.211746e+00 7.056822e-05 -6.239039e-05 8.119085e-06
Al -3.604274e-02 -3.668147e+00 -1.587985e-01 9.299362e-05 1.102834e-04 -2.126570e-04
Al -1.612116e+00 -9.428758e-01 4.908895e+00 -1.198423e-04 4.271373e-05 1.695121e-04
Al -1.593171e+00 -9.454996e-01 -5.214461e+00 7.369036e-05 2.089477e-05 -1.305364e-04
Al -1.600640e+00 -9.497477e-01 -1.389301e-01 -2.411337e-04 -2.548683e-04 6.623183e-05
N 1.546442e+00 8.693268e-01 4.332920e+00 4.983429e-05 -1.392788e-05 -1.980001e-05
N 1.556751e+00 8.715040e-01 -5.823735e+00 5.278839e-05 1.200647e-05 1.764368e-05
N 1.552311e+00 8.723713e-01 -8.159562e-01 3.340092e-05 -1.521206e-05 2.557001e-04
N -2.442719e-02 3.595377e+00 4.335273e+00 3.169590e-05 2.089024e-05 4.416685e-05
N -2.241217e-02 3.597056e+00 -5.828407e+00 -1.141338e-05 -6.423431e-06 3.157998e-05
N 2.393638e-02 3.618187e+00 -8.049252e-01 4.860031e-05 4.011726e-05 1.836145e-04
N 3.127455e+00 -1.858024e+00 4.329590e+00 1.802769e-05 -7.677280e-06 1.008005e-05
N 3.129500e+00 -1.855395e+00 -5.828120e+00 1.224823e-05 3.737204e-05 2.384813e-05
N 3.174735e+00 -1.826026e+00 -8.009188e-01 -7.342914e-05 1.329862e-05 5.552009e-05
N -4.747497e+00 8.670494e-01 4.327248e+00 1.104289e-04 5.423022e-06 5.014269e-05
N -4.785469e+00 8.507217e-01 -5.849549e+00 -6.350918e-07 2.980031e-05 9.764068e-05
N -4.711028e+00 8.398160e-01 -7.756334e-01 3.343025e-05 1.073169e-04 3.577852e-05
N -6.372360e+00 3.571737e+00 4.301310e+00 -6.028625e-05 1.774911e-04 -1.581783e-04
N -6.318783e+00 3.593932e+00 -5.818450e+00 -3.371150e-07 2.931555e-05 4.492294e-05
N -6.326870e+00 3.642479e+00 -7.810511e-01 8.428764e-05 5.908175e-05 -3.962899e-05
N -3.177270e+00 -1.861926e+00 4.307283e+00 3.264850e-05 2.327810e-05 1.914037e-05
N -3.164961e+00 -1.851976e+00 -5.826712e+00 3.028430e-05 -5.539060e-06 3.034903e-05
N -3.172635e+00 -1.854333e+00 -6.933161e-01 3.604581e-04 -5.472353e-05 -1.846080e-05
N -1.605862e+00 8.697596e-01 4.319600e+00 9.687378e-05 -4.234426e-05 6.198027e-05
N -1.551690e+00 8.477016e-01 -5.848525e+00 -2.602530e-05 -1.786327e-04 3.974386e-04
N -1.630755e+00 8.436012e-01 -7.707168e-01 4.923316e-06 1.096361e-04 7.988649e-05
N -3.135225e+00 3.565708e+00 4.360779e+00 -5.640060e-06 1.669888e-04 -1.670208e-04
N -3.166104e+00 3.644641e+00 -5.831598e+00 7.094880e-05 -6.265356e-05 1.114274e-05
N -3.214243e+00 3.576434e+00 -7.628079e-01 2.370974e-05 -1.713223e-04 8.951825e-05
N -2.770765e-02 -1.810964e+00 4.306808e+00 1.184477e-05 -8.015137e-05 -1.796935e-05
N -1.560455e-02 -1.850860e+00 -5.756783e+00 -4.416110e-04 -4.932310e-05 -9.781139e-05
N -6.380472e-02 -1.874890e+00 -7.807190e-01 2.479863e-05 -4.748320e-05 1.131434e-04
N -2.418339e-02 1.778493e+00 1.847698e+00 1.572226e-04 1.151408e-04 -5.932658e-05
N -2.723487e-02 1.774102e+00 6.843352e+00 -1.571903e-05 7.836439e-05 -2.084009e-05
N -2.537552e-02 1.778218e+00 -3.309002e+00 -2.839226e-05 -2.989353e-05 -8.831435e-06
N 3.174597e+00 -3.648441e+00 1.819678e+00 -3.161402e-05 1.197332e-04 2.829500e-05
N 3.126385e+00 -3.675488e+00 6.850981e+00 -1.279467e-05 9.734993e-05 1.087365e-05
N 3.128342e+00 -3.673055e+00 -3.296491e+00 -1.362552e-05 6.569713e-05 3.737611e-06
N 1.553720e+00 -9.478695e-01 1.839059e+00 1.112494e-04 -2.006073e-06 -9.587593e-05
N 1.588627e+00 -9.279510e-01 6.831508e+00 1.630689e-05 -2.537792e-05 1.165867e-04
N 1.557063e+00 -9.472515e-01 -3.297790e+00 -6.864288e-05 8.009139e-05 4.727501e-05
N 3.124042e+00 1.773030e+00 1.839614e+00 3.370166e-04 3.339316e-04 -1.754226e-04
N 3.118358e+00 1.776879e+00 6.839957e+00 4.661092e-06 -1.042155e-05 2.073226e-05
N 3.132718e+00 1.780873e+00 -3.300016e+00 5.306417e-06 2.321193e-05 3.201306e-05
N 6.272271e+00 -3.678435e+00 1.781824e+00 2.152367e-05 -2.198171e-05 3.407332e-05
N 6.273020e+00 -3.676384e+00 6.851236e+00 1.120513e-05 1.496757e-05 2.650537e-05
N 6.281650e+00 -3.714132e+00 -3.326257e+00 4.909627e-05 -7.676114e-06 4.757640e-05
N 4.695876e+00 -9.460635e-01 1.792165e+00 5.680181e-06 -1.067396e-05 4.978898e-05
N 4.697629e+00 -9.543843e-01 6.841041e+00 -6.864529e-05 -1.833529e-06 -1.121556e-05
N 4.668383e+00 -9.212677e-01 -3.328776e+00 -1.216500e-04 -1.618839e-04 2.471729e-04
N -3.174143e+00 1.723117e+00 1.757333e+00 -3.271872e-04 2.336969e-04 -3.316810e-04
N -3.178469e+00 1.771312e+00 6.856299e+00 4.326111e-06 2.943673e-05 9.729664e-06
N -3.169316e+00 1.778359e+00 -3.240111e+00 -8.104757e-05 1.887175e-04 5.017651e-05
N -6.635414e-02 -3.650430e+00 1.764899e+00 5.478272e-05 2.645140e-04 1.224869e-04
N -3.159614e-02 -3.723594e+00 6.895049e+00 -3.726694e-05 5.604905e-05 -3.538037e-05
N -1.864561e-02 -3.675785e+00 -3.293633e+00 -4.888374e-06 -3.854581e-05 1.038590e-05
N -1.596734e+00 -9.456327e-01 1.785411e+00 2.784175e-05 -7.875808e-05 3.293197e-05
N -1.645548e+00 -9.306483e-01 6.821613e+00 9.851573e-05 -9.797117e-06 -3.384041e-04
N -1.559911e+00 -9.205997e-01 -3.306841e+00 -6.818080e-05 1.636797e-04 2.445587e-05
