108
Energy=-848640.929302 Lattice="9.467927 0.000000 0.000000 -4.740864 8.194822 0.000000 -0.021790 -0.009435 15.253159" Stress="0.000026 0.000027 -0.000009 0.000027 0.000037 -0.000007 -0.000009 -0.000007 0.000034" Properties=species:S:1:pos:R:3:forces:R:3
Al 1.530335 0.860537 2.447231 0.007151 0.009840 -0.008222
Al 1.548033 0.891791 7.489255 -0.000888 -0.011534 -0.000293
Al 1.571269 0.900993 -2.738339 -0.001136 -0.012587 0.002532
Al -0.024539 3.598103 2.463420 0.008104 0.028396 0.000809
Al -0.020386 3.600634 7.487582 -0.002122 -0.001034 0.000252
Al 0.004560 3.608401 -2.743262 -0.004750 -0.001547 0.004145
Al 3.141506 -1.873684 2.456924 0.004704 -0.006713 -0.011246
Al 3.156217 -1.881041 7.487685 -0.002164 0.000637 0.000471
Al 3.177036 -1.870930 -2.742791 -0.004750 -0.000854 0.000352
Al -4.789790 0.887311 2.453289 0.000077 -0.013564 -0.010234
Al -4.791309 0.892174 7.488787 0.001195 -0.010753 0.000368
Al -4.763282 0.906616 -2.717103 0.003342 -0.008574 0.000829
Al -6.362550 3.597974 2.459831 -0.000954 -0.001613 -0.014659
Al -6.356402 3.602115 7.490370 0.000965 -0.000140 0.001548
Al -6.326560 3.612706 -2.719257 0.003205 0.001501 0.002809
Al -3.178140 -1.879378 2.462217 -0.000816 -0.000236 -0.008653
Al -3.182688 -1.880286 7.488399 -0.000449 0.001844 0.000847
Ga -3.158656 -1.871347 -2.730847 0.001103 0.002603 -0.002741
Al -1.639464 0.901862 2.449759 0.017582 -0.005400 -0.009393
Al -1.658975 0.892769 7.488314 0.012018 -0.006411 -0.000934
Al -1.629852 0.904605 -2.730733 0.008837 -0.006001 -0.015235
Ga -3.197685 3.584815 2.380013 0.015330 0.010565 0.000647
Al -3.225606 3.604999 7.492329 0.013645 0.002041 0.003005
Al -3.197211 3.617631 -2.730572 0.006443 0.002790 -0.010015
Al -0.031724 -1.855806 2.441741 0.001917 -0.001719 -0.008402
Ga -0.048522 -1.883988 7.490419 0.011782 0.008300 -0.000493
Al -0.023744 -1.865745 -2.734123 0.009668 0.002686 -0.020056
Al -0.020891 1.791879 4.974531 -0.008909 -0.003794 -0.001115
Al 0.006416 1.801321 -5.252213 -0.010218 -0.005989 -0.000695
Ga -0.024434 1.776867 -0.193657 -0.007753 -0.001008 0.014450
Al 3.142621 -3.694038 4.974652 -0.003011 -0.002816 -0.001142
Al 3.179610 -3.679078 -5.251615 -0.010016 -0.004354 0.000659
Ga 3.148316 -3.699606 -0.199235 -0.010225 -0.008398 0.006908
Al 1.589104 -0.976264 4.975486 -0.010898 0.006668 -0.001242
Al 1.613220 -0.969921 -5.248748 -0.011306 0.006692 -0.000900
Ga 1.582125 -0.988964 -0.203056 -0.013648 0.009429 0.010055
Al 3.109101 1.792508 4.969952 -0.000268 -0.002703 0.000812
Al 3.135757 1.804621 -5.246281 0.000191 -0.001921 0.001429
Ga 3.122107 1.794821 -0.168605 0.000040 -0.001177 0.013983
Al 6.285364 -3.689582 4.974833 -0.001954 0.001184 -0.001914
Al 6.311605 -3.680872 -5.249884 -0.000011 0.000480 0.000897
Al 6.288909 -3.689208 -0.217163 -0.001083 -0.003110 0.026080
Al 4.718477 -0.978849 4.973800 -0.000057 0.008892 -0.002755
Al 4.741873 -0.967319 -5.249583 -0.000827 0.010527 -0.000639
Al 4.725466 -0.982837 -0.219248 -0.003215 0.011467 0.023052
Al -3.225675 1.795501 4.972283 0.002658 -0.000218 0.000150
Ga -3.200516 1.805791 -5.245136 0.002050 -0.001354 0.003487
Al -3.218514 1.769258 -0.094299 0.007321 0.006436 -0.041488
Ga -0.034199 -3.693301 4.956992 0.002247 0.000408 0.002117
Al -0.026322 -3.676294 -5.243877 0.001678 0.000072 0.004657
Al -0.062012 -3.681261 -0.090315 0.010014 0.004677 -0.049890
Al -1.615334 -0.975230 4.970311 -0.001337 0.009823 -0.001815
Al -1.589971 -0.967061 -5.247836 -0.000854 0.011590 0.000764
Al -1.621053 -0.949788 -0.257039 0.007503 0.000472 0.019901
N 1.541959 0.888506 4.373840 -0.000372 -0.011976 -0.000348
N 1.570335 0.900580 -5.844791 0.000358 -0.011405 0.000225
N 1.558337 0.891789 -0.790261 -0.000401 -0.014808 -0.018329
N -0.026452 3.600095 4.381135 -0.002677 0.000779 0.001623
N 0.003585 3.610220 -5.847299 -0.001480 0.000077 -0.001567
N -0.016612 3.594559 -0.803909 0.017221 0.010171 -0.017376
N 3.147494 -1.882319 4.378286 -0.002692 -0.000470 -0.002604
N 3.177613 -1.871859 -5.846429 -0.001846 0.001206 -0.002529
N 3.159246 -1.885570 -0.809982 0.015056 0.013416 -0.009888
N -4.793702 0.892807 4.375519 0.004266 -0.007942 -0.000340
N -4.772954 0.899234 -5.846156 -0.015164 -0.020647 -0.006867
N -4.772291 0.890388 -0.783072 0.017169 -0.022378 -0.002529
N -6.359047 3.596994 4.373659 -0.012331 -0.008085 -0.008617
N -6.331969 3.612150 -5.843564 0.000139 0.000143 -0.002612
N -6.343498 3.611603 -0.782591 -0.001894 0.019152 -0.004780
N -3.180003 -1.879872 4.379108 -0.000006 0.002128 0.002095
N -3.158265 -1.870736 -5.844478 -0.001006 0.001339 -0.002282
N -3.172405 -1.879527 -0.802356 -0.004847 0.000191 0.023005
N -1.659080 0.894490 4.374603 0.010820 -0.005358 -0.000779
N -1.629955 0.899488 -5.847375 0.027641 -0.015871 -0.004964
N -1.640486 0.844521 -0.875304 -0.010446 0.005430 0.032042
N -3.194688 3.601637 4.327430 0.016949 -0.007841 0.012763
N -3.202390 3.621111 -5.844376 0.010348 0.023337 -0.006931
N -3.224015 3.601757 -0.886056 -0.008407 -0.007279 0.043124
N -0.046829 -1.870632 4.368263 0.009651 0.020989 -0.009247
N -0.027316 -1.870533 -5.836632 0.010322 0.006045 0.018516
N -0.064336 -1.838090 -0.911023 -0.001255 -0.015255 0.046434
N 0.066083 1.937655 1.826535 -0.026848 -0.068977 -0.002185
N -0.018413 1.791976 6.892844 -0.009539 -0.006253 0.000113
N 0.006807 1.802307 -3.335197 -0.008741 -0.005760 0.000879
N 3.205747 -3.719375 1.774148 -0.013736 0.018584 0.014119
N 3.153549 -3.690113 6.893307 -0.010880 -0.004926 0.000180
N 3.181109 -3.679797 -3.335759 -0.008086 -0.003558 0.000064
N 1.574620 -0.959162 1.846305 -0.008805 -0.002768 0.000113
N 1.595999 -0.975614 6.892347 0.001832 0.014416 -0.003067
N 1.614533 -0.968667 -3.334046 -0.010077 0.008157 0.002067
N 3.120313 1.779449 1.813569 0.002225 0.000839 0.016614
N 3.111910 1.795088 6.891741 0.000690 -0.001206 -0.002910
N 3.140218 1.806744 -3.322648 0.000020 -0.001871 -0.000378
N 6.283006 -3.689515 1.880889 0.007253 0.006174 -0.021546
N 6.286652 -3.689160 6.893653 0.001735 -0.000343 -0.001103
N 6.313443 -3.686559 -3.331211 0.000461 -0.019012 -0.005559
N 4.719684 -0.982054 1.878407 -0.001846 0.012421 -0.020238
N 4.720328 -0.978063 6.892766 -0.001169 0.011616 0.000245
N 4.739269 -0.962486 -3.331030 -0.017097 0.020565 -0.003003
N -3.197534 1.767298 1.752868 -0.000569 -0.017995 0.014363
N -3.224723 1.796469 6.894024 0.002134 -0.000505 -0.004575
N -3.197384 1.807608 -3.315567 0.001496 -0.003170 0.013710
N -0.015541 -3.696896 1.726592 -0.021014 0.015057 0.030324
N -0.030810 -3.702969 6.888970 -0.004255 -0.015856 0.009494
N -0.023241 -3.676205 -3.323208 -0.000675 -0.000380 -0.006842
N -1.609857 -0.970394 1.836885 0.004556 0.014363 -0.016223
N -1.619854 -0.976114 6.889435 -0.014819 0.020526 -0.006812
N -1.585643 -0.962597 -3.330436 0.013487 0.020279 -0.008928
