108
Energy=-665541.684463 Lattice="9.422556 0.000000 0.000000 -4.717726 8.158491 0.000000 -0.015096 0.000439 15.129689" Stress="-0.000002 -0.000002 -0.000004 -0.000002 -0.000002 0.000000 -0.000004 0.000000 0.000001" Properties=species:S:1:pos:R:3:forces:R:3
Al 1.542914 0.869052 2.376028 0.000415 0.000236 0.000265
Al 1.533219 0.863358 7.399482 0.000445 0.000177 0.000266
Al 1.546511 0.869109 -2.662585 0.000176 0.000175 0.000511
Al -0.028311 3.580715 2.402205 -0.000331 -0.001832 0.000647
Al -0.032377 3.585933 7.413133 0.000098 -0.000139 -0.000085
Al -0.019628 3.581989 -2.701381 0.000133 -0.000229 0.000543
Al 3.123165 -1.846175 2.390122 -0.000066 -0.000199 0.000447
Al 3.114580 -1.852781 7.410070 0.000095 -0.000039 0.000037
Al 3.133501 -1.845558 -2.687409 0.000165 -0.000412 0.000429
Al -4.744935 0.863973 2.365540 0.000606 0.000565 -0.000329
Al -4.745420 0.861563 7.417978 0.000165 0.000304 -0.000101
Al -4.726254 0.863556 -2.665357 0.000371 -0.000079 0.000030
Al -6.304027 3.581978 2.392503 -0.000625 -0.000480 0.000063
Al -6.315508 3.592317 7.399921 -0.000059 -0.000092 -0.000165
Al -6.300835 3.585347 -2.671581 -0.000364 0.000480 0.000299
Al -3.165470 -1.844552 2.393107 0.000343 0.000367 -0.000137
Al -3.168605 -1.851692 7.408854 0.000150 -0.000028 0.000080
Al -3.165361 -1.846364 -2.685973 0.000354 -0.000145 0.000132
Al -1.594413 0.867418 2.367914 0.000060 0.000058 -0.000126
Al -1.597897 0.867198 7.424306 0.000394 -0.000215 0.000043
Al -1.596069 0.877153 -2.678190 0.000327 -0.000470 0.000710
Al -3.173935 3.588529 2.384704 0.000936 -0.000379 -0.000106
Al -3.173329 3.595782 7.424073 -0.000117 -0.000355 -0.000430
Al -3.162736 3.579205 -2.681807 -0.000600 -0.000111 -0.001685
Al -0.023098 -1.851421 2.373716 -0.000111 0.000072 0.000092
Al -0.026660 -1.848743 7.412902 0.000030 -0.000390 0.000046
Ga -0.017403 -1.850336 -2.671287 0.000430 -0.000495 0.000919
Al -0.023611 1.771026 4.898801 -0.000112 0.000484 0.000103
Al -0.025654 1.768995 -5.200235 0.000099 0.000317 0.000168
Al -0.026392 1.756976 -0.147327 0.000115 0.001241 -0.000261
Al 3.119921 -3.658241 4.901333 0.000166 0.000120 -0.000303
Al 3.127020 -3.664778 -5.198773 0.000008 0.000409 -0.000483
Ga 3.117078 -3.663805 -0.147160 -0.000049 -0.000553 0.000578
Al 1.544983 -0.947318 4.891115 -0.000247 0.000227 0.000188
Al 1.556456 -0.950714 -5.208801 -0.000132 0.000159 0.000316
Al 1.553238 -0.936882 -0.132801 -0.000536 -0.000505 -0.000915
Al 3.101838 1.771866 4.898876 0.000219 -0.000077 -0.000206
Ga 3.118375 1.773470 -5.192924 -0.000072 -0.000078 0.000334
Al 3.117583 1.766199 -0.151598 -0.000080 -0.000175 -0.000496
Al 6.255466 -3.664467 4.894834 0.000100 0.000020 -0.000307
Al 6.266653 -3.656153 -5.201213 0.000086 -0.000129 -0.000107
Ga 6.270037 -3.664456 -0.137227 -0.000302 -0.000092 -0.000495
Al 4.680810 -0.950489 4.899927 0.000015 -0.000164 0.000106
Al 4.701858 -0.953463 -5.200575 -0.000357 -0.000253 0.000344
Al 4.692289 -0.934190 -0.147802 -0.000023 -0.000449 -0.000092
Ga -3.172609 1.774081 4.899891 -0.000015 0.000058 -0.000053
Al -3.152272 1.774451 -5.198031 -0.000107 0.000200 -0.000562
Al -3.170888 1.768876 -0.150624 0.000438 -0.000777 0.000803
Al -0.028579 -3.653934 4.899604 0.000217 -0.000128 -0.000198
Al -0.010910 -3.659310 -5.208591 0.000182 -0.000005 -0.000321
Al -0.018737 -3.678949 -0.125802 -0.000506 0.003190 -0.002620
Al -1.589996 -0.949416 4.897275 -0.000441 -0.000013 0.000012
Al -1.587859 -0.941892 -5.208791 -0.000278 -0.000130 0.000161
Al -1.593987 -0.935561 -0.139191 -0.000215 -0.000047 0.000160
N 1.539319 0.867520 4.297063 0.000366 -0.000068 -0.000280
N 1.508985 0.843000 -5.822202 0.000570 0.000537 -0.000322
N 1.541489 0.863176 -0.742270 0.000562 0.000161 -0.000158
N -0.032865 3.582999 4.313191 0.000339 -0.000299 0.000488
N -0.018112 3.586048 -5.793275 -0.000056 -0.000193 0.000244
N -0.023311 3.537774 -0.794074 0.000158 0.000004 0.000610
N 3.117429 -1.849959 4.304471 -0.000118 0.000096 0.000095
N 3.128999 -1.853350 -5.800827 0.000156 -0.000148 -0.000073
N 3.121130 -1.804123 -0.770339 0.000071 0.000252 0.000019
N -4.785477 0.841844 4.276653 0.000359 0.000624 0.000039
N -4.691642 0.841691 -5.806617 -0.000025 0.000476 0.000071
N -4.734687 0.863877 -0.745098 0.000558 0.000785 0.000053
N -6.308983 3.584412 4.308296 -0.000080 0.000180 0.000271
N -6.302762 3.634275 -5.821189 -0.000291 -0.000319 -0.000077
N -6.265433 3.565091 -0.760314 -0.000022 0.000230 0.000060
N -3.166672 -1.846437 4.307366 0.000162 -0.000097 0.000238
N -3.155503 -1.852369 -5.803351 0.000030 0.000011 -0.000103
N -3.160183 -1.805284 -0.769955 -0.000275 -0.000136 0.000066
N -1.559983 0.845428 4.277095 0.000150 -0.000131 0.000118
N -1.588331 0.869267 -5.794551 0.000224 -0.000040 -0.000109
N -1.596664 0.868404 -0.750410 -0.000297 0.000031 -0.000357
N -3.173326 3.637483 4.288305 -0.000619 -0.000704 0.000386
N -3.159044 3.590832 -5.793984 -0.000049 -0.000464 0.000571
N -3.209891 3.563358 -0.772435 0.000617 -0.000129 0.001610
N -0.026483 -1.849424 4.293325 0.000164 -0.000446 -0.000013
N -0.014664 -1.848759 -5.797589 -0.000047 -0.000419 -0.000213
N -0.021306 -1.850501 -0.687919 0.000723 -0.002189 0.000331
N -0.025237 1.776650 1.773414 0.000053 0.000001 -0.000006
N -0.034448 1.772678 6.813265 -0.000096 0.000655 -0.000091
N -0.018726 1.765818 -3.281688 -0.000084 0.000526 -0.000448
N 3.127413 -3.667220 1.838601 -0.002115 0.001170 -0.002411
N 3.114739 -3.666971 6.818788 0.000234 0.000517 0.000138
N 3.122955 -3.664434 -3.278226 0.000405 0.000595 0.000254
N 1.553597 -0.946195 1.783556 0.000075 0.000147 0.001259
N 1.544267 -0.949681 6.808895 -0.000149 0.000078 -0.000143
N 1.595904 -0.919463 -3.296453 -0.000640 -0.000083 -0.000532
N 3.111774 1.776287 1.771034 -0.000432 0.000037 0.000137
N 3.109534 1.772448 6.816696 -0.000040 0.000065 0.000005
N 3.119669 1.771359 -3.216459 -0.000075 -0.000076 0.000039
N 6.254198 -3.666796 1.845113 0.002519 0.000879 -0.000540
N 6.252097 -3.663700 6.809888 0.000031 0.000058 0.000225
N 6.271650 -3.662793 -3.278780 0.000041 0.000050 -0.000183
N 4.691341 -0.948112 1.773493 -0.000636 -0.000675 -0.000283
N 4.684334 -0.945221 6.813642 -0.000278 -0.000381 -0.000073
N 4.696305 -0.942250 -3.283622 -0.000255 -0.000215 -0.000103
N -3.168686 1.775983 1.778162 -0.000187 0.000096 -0.000463
N -3.171735 1.775762 6.871055 -0.000322 0.000198 0.000010
N -3.162180 1.772633 -3.279579 -0.000325 0.000040 0.000815
N -0.022857 -3.669354 1.785358 -0.000298 0.000239 0.000324
N -0.023819 -3.661192 6.813926 -0.000069 0.000097 0.000270
N -0.014732 -3.709455 -3.302363 -0.000361 0.000073 0.000526
N -1.596692 -0.945890 1.780633 -0.000588 -0.000448 -0.000590
N -1.595803 -0.942453 6.816987 -0.000553 -0.000241 -0.000059
N -1.624794 -0.918654 -3.297399 -0.000773 -0.000202 0.000112
