108
Energy=-2084581.704506 Lattice="9.596771 0.000000 0.000000 -4.798889 8.310922 0.000000 0.002444 -0.000202 15.545202" Stress="-0.000000 -0.000000 -0.000000 -0.000000 -0.000000 0.000000 -0.000000 -0.000000 -0.000001" Properties=species:S:1:pos:R:3:forces:R:3
Al 1.567424 0.875217 2.479260 0.000080 -0.000009 0.000028
Al 1.577385 0.881399 7.598150 0.000021 -0.000028 0.000015
Ga 1.579527 0.880654 -2.754088 0.000040 -0.000010 0.000042
Al -0.017603 3.653597 2.460731 0.000069 0.000002 0.000049
Al -0.007140 3.647421 7.607297 -0.000001 -0.000006 0.000039
Ga -0.002069 3.657651 -2.739848 0.000012 -0.000002 0.000012
Al 3.168962 -1.885698 2.470016 0.000075 0.000006 0.000066
Ga 3.159862 -1.881380 7.601190 0.000006 -0.000006 -0.000013
Ga 3.167413 -1.878651 -2.739293 0.000013 0.000000 0.000008
Ga -4.840305 0.868724 2.441925 0.000052 0.000004 0.000062
Al -4.836281 0.891117 7.625253 0.000029 -0.000013 0.000013
Ga -4.831215 0.886649 -2.726128 0.000041 -0.000012 0.000014
Ga -6.435336 3.655884 2.449999 0.000052 -0.000005 0.000063
Al -6.429317 3.648350 7.626053 0.000016 -0.000009 0.000032
Al -6.434947 3.660076 -2.747536 0.000016 -0.000003 0.000039
Ga -3.233492 -1.901313 2.433181 0.000055 -0.000014 0.000062
Ga -3.210157 -1.900930 7.641036 -0.000003 0.000010 0.000030
Ga -3.214664 -1.904307 -2.745309 0.000022 0.000004 0.000025
Ga -1.597412 0.886705 2.474717 0.000104 -0.000023 0.000045
Ga -1.603517 0.882716 7.613072 0.000067 -0.000020 0.000024
Ga -1.618492 0.876668 -2.751157 0.000062 -0.000039 0.000032
Ga -3.212422 3.675496 2.471743 0.000063 -0.000028 0.000025
Ga -3.220108 3.662049 7.608875 0.000051 -0.000024 0.000017
Ga -3.231699 3.657816 -2.740398 0.000022 -0.000031 0.000006
Al -0.004606 -1.878932 2.464089 0.000111 0.000007 -0.000067
Al -0.012749 -1.875749 7.629754 0.000051 0.000013 0.000081
Ga -0.021908 -1.883173 -2.761816 0.000030 -0.000031 0.000034
Al -0.008729 1.817852 5.039867 0.000005 0.000060 -0.000014
Ga -0.012659 1.804039 -5.366808 -0.000011 0.000017 0.000028
Ga -0.012246 1.816821 -0.119048 0.000101 0.000051 0.000010
Al 3.193286 -3.731341 5.023879 -0.000008 0.000096 -0.000027
Ga 3.189316 -3.726986 -5.346278 -0.000014 0.000017 0.000018
Ga 3.196737 -3.720198 -0.116516 0.000095 0.000034 -0.000038
Al 1.568941 -0.961808 5.020733 0.000621 -0.000040 -0.000089
Al 1.562066 -0.958206 -5.367449 -0.000033 0.000017 0.000035
Ga 1.585902 -0.962124 -0.102321 0.000044 0.000064 0.000004
Ga 3.157701 1.796369 5.059429 -0.000013 -0.000077 0.000020
Ga 3.162991 1.810405 -5.357477 0.000001 0.000004 0.000037
Ga 3.164757 1.812649 -0.141432 0.000122 0.000026 -0.000017
Ga 6.354988 -3.748070 5.050509 -0.000024 0.000006 0.000033
Al 6.381446 -3.737713 -5.352817 0.000010 0.000002 0.000023
Al 6.370936 -3.732763 -0.140299 0.000098 0.000015 -0.000017
Ga 4.760121 -0.972480 5.046274 -0.000146 -0.000001 0.000003
Ga 4.777134 -0.967463 -5.348195 -0.000011 0.000011 0.000007
Al 4.772031 -0.977944 -0.132537 0.000063 0.000020 -0.000033
Ga -3.214072 1.811152 5.051329 0.000001 0.000018 0.000014
Ga -3.224150 1.795623 -5.344682 0.000011 -0.000001 0.000024
Ga -3.224561 1.800598 -0.134260 0.000115 0.000020 -0.000010
Ga -0.015201 -3.711160 5.058838 0.000031 -0.000050 0.000046
Ga -0.044553 -3.715871 -5.350410 0.000010 0.000020 0.000021
Ga -0.040279 -3.728897 -0.144774 0.000113 0.000023 -0.000023
Ga -1.598802 -0.966369 5.040498 -0.000078 0.000059 0.000061
Al -1.612066 -0.975386 -5.349688 -0.000002 -0.000003 0.000023
Ga -1.630754 -0.973290 -0.130883 0.000064 0.000023 -0.000029
N 1.535223 0.861046 4.407086 -0.000133 0.000024 -0.000062
N 1.575493 0.833596 -6.024834 0.000024 -0.000011 -0.000044
N 1.572386 0.874890 -0.779041 -0.000026 -0.000036 -0.000044
N -0.059656 3.628869 4.387786 0.000009 -0.000045 -0.000028
N 0.017862 3.679246 -6.014860 0.000004 -0.000012 -0.000020
N 0.019443 3.677529 -0.759036 -0.000057 -0.000035 -0.000046
N 3.134702 -1.908460 4.402885 -0.000206 0.000025 0.000042
N 3.128674 -1.862814 -5.966171 0.000020 -0.000026 -0.000022
N 3.208215 -1.859762 -0.755559 -0.000018 -0.000043 -0.000018
N -4.825558 0.882368 4.411879 0.000040 0.000014 -0.000028
N -4.827280 0.883464 -6.013966 0.000015 -0.000002 -0.000021
N -4.826498 0.832938 -0.741401 -0.000029 -0.000006 -0.000030
N -6.419661 3.654637 4.422125 -0.000011 0.000002 -0.000040
N -6.465118 3.676362 -6.007515 -0.000011 -0.000004 -0.000030
N -6.469695 3.680446 -0.813303 -0.000072 -0.000007 -0.000029
N -3.222615 -1.890643 4.410678 0.000028 -0.000026 -0.000045
N -3.178991 -1.914663 -5.922787 0.000009 -0.000005 -0.000010
N -3.263227 -1.914207 -0.740103 -0.000025 -0.000007 -0.000025
N -1.574804 0.909792 4.451479 0.000059 -0.000033 -0.000019
N -1.620641 0.833853 -5.955371 0.000035 -0.000019 -0.000028
N -1.615513 0.881859 -0.769750 -0.000012 -0.000034 -0.000043
N -3.182450 3.682910 4.450527 0.000003 -0.000015 -0.000011
N -3.222826 3.659053 -5.964320 0.000003 -0.000029 -0.000024
N -3.217807 3.660961 -0.759541 -0.000052 -0.000036 -0.000027
N 0.020936 -1.865335 4.373909 -0.000009 -0.000020 -0.000028
N -0.020610 -1.835974 -5.989301 0.000015 -0.000028 -0.000033
N -0.015593 -1.876700 -0.783260 -0.000016 -0.000032 -0.000028
N 0.025405 1.832537 1.867530 -0.000136 0.000014 -0.000000
N 0.026905 1.836177 6.971342 -0.000051 0.000028 -0.000007
N -0.019905 1.810779 -3.390488 -0.000045 0.000039 -0.000037
N 3.224480 -3.705981 1.872259 -0.000150 -0.000007 0.000004
N 3.230261 -3.756058 6.948666 -0.000034 0.000009 0.000003
N 3.182032 -3.733877 -3.369927 -0.000027 0.000036 -0.000006
N 1.581077 -0.960612 1.891842 -0.000162 -0.000002 0.000061
N 1.530913 -0.939589 6.951793 -0.000184 -0.000030 0.000078
N 1.576821 -0.961451 -3.448282 -0.000061 0.000036 -0.000037
N 3.123220 1.783499 1.840173 -0.000129 -0.000012 -0.000008
N 3.173888 1.807165 7.050107 -0.000011 0.000020 -0.000011
N 3.175373 1.857066 -3.365061 -0.000024 0.000006 -0.000028
N 6.332604 -3.764140 1.780719 -0.000111 -0.000012 -0.000004
N 6.376661 -3.781811 7.025553 0.000001 -0.000000 -0.000025
N 6.416496 -3.760810 -3.425370 -0.000017 0.000002 -0.000027
N 4.726242 -0.994801 1.789917 -0.000121 0.000033 0.000005
N 4.780025 -0.919866 7.022644 -0.000014 0.000021 0.000009
N 4.777051 -0.962971 -3.373762 -0.000049 -0.000002 -0.000016
N -3.218206 1.808968 1.840122 -0.000121 0.000001 -0.000007
N -3.261790 1.781515 7.021606 -0.000037 0.000009 -0.000004
N -3.227248 1.804611 -3.369477 -0.000033 0.000020 -0.000017
N -0.025361 -3.684316 1.839900 -0.000117 -0.000018 0.000007
N -0.067419 -3.700314 7.043664 -0.000011 0.000017 -0.000015
N -0.071219 -3.756371 -3.362352 -0.000023 0.000023 -0.000026
N -1.577807 -0.987290 1.850215 -0.000145 0.000012 0.000007
N -1.577162 -0.993552 7.012383 -0.000034 0.000014 -0.000015
N -1.623672 -0.967077 -3.429919 -0.000064 0.000020 -0.000034
