108
Energy=-1.397944e+06 Lattice="9.476278e+00 0.000000e+00 0.000000e+00 -4.738139e+00 8.206697e+00 0.000000e+00 9.377101e-16 1.624162e-15 1.531397e+01" Stress="-2.740469e-02 6.122110e-03 6.184651e-05 6.111071e-03 -2.060497e-02 -4.414073e-04 5.474328e-05 -4.518720e-04 -1.876627e-02" Properties=species:S:1:pos:R:3:forces:R:3 Config_type=AlGaN_super3_21_2_1.xyz
Al 1.564294e+00 9.031460e-01 2.504900e+00 -9.069873e-04 -1.517308e-02 -1.250406e-02
Al 1.564294e+00 9.031460e-01 7.521855e+00 -1.211182e-03 -1.431011e-02 -5.842157e-03
Al 1.564294e+00 9.031460e-01 -2.775158e+00 -1.655869e-03 -1.408998e-02 -5.803104e-03
Al 2.938992e-08 3.612582e+00 2.504900e+00 -2.888044e-03 -1.091492e-03 -1.135745e-02
Al 2.938992e-08 3.612582e+00 7.521855e+00 -2.823389e-03 -1.271260e-03 -4.154310e-03
Al 2.938992e-08 3.612582e+00 -2.775158e+00 -3.358785e-03 -2.131340e-03 -3.850275e-03
Al 3.173845e+00 -1.884678e+00 2.504900e+00 -3.695965e-03 2.212402e-03 -1.323794e-02
Al 3.173845e+00 -1.884678e+00 7.521855e+00 -2.978040e-03 1.800535e-03 -3.984626e-03
Ga 3.173845e+00 -1.884678e+00 -2.775158e+00 -3.281067e-03 1.702958e-03 -4.483881e-03
Al -4.783396e+00 9.031460e-01 2.504900e+00 1.259771e-03 -1.373448e-02 -1.144439e-02
Al -4.783396e+00 9.031460e-01 7.521855e+00 1.039276e-03 -1.343215e-02 -4.280022e-03
Al -4.783396e+00 9.031460e-01 -2.775158e+00 1.437062e-03 -1.296930e-02 -4.710556e-03
Ga -6.347690e+00 3.612582e+00 2.504900e+00 -7.658518e-04 -7.974952e-05 -1.025140e-02
Al -6.347690e+00 3.612582e+00 7.521855e+00 -1.664244e-04 5.650821e-05 -2.693648e-03
Ga -6.347690e+00 3.612582e+00 -2.775158e+00 -3.554749e-04 -4.095681e-04 -1.821145e-03
Al -3.173845e+00 -1.884678e+00 2.504900e+00 -3.200298e-04 3.376594e-03 -1.164073e-02
Al -3.173845e+00 -1.884678e+00 7.521855e+00 -7.057770e-04 3.074465e-03 -4.054220e-03
Ga -3.173845e+00 -1.884678e+00 -2.775158e+00 -1.239190e-04 3.549910e-03 -2.190581e-03
Ga -1.654808e+00 9.031460e-01 2.504900e+00 1.614324e-02 -9.701994e-03 -1.659839e-02
Ga -1.654808e+00 9.031460e-01 7.521855e+00 1.620349e-02 -9.378131e-03 -8.320277e-03
Al -1.654808e+00 9.031460e-01 -2.775158e+00 1.426162e-02 -7.612163e-03 -5.793354e-03
Ga -3.219102e+00 3.612582e+00 2.504900e+00 1.570640e-02 8.284160e-03 -1.394607e-02
Al -3.219102e+00 3.612582e+00 7.521855e+00 1.205396e-02 5.733672e-03 -3.037686e-03
Ga -3.219102e+00 3.612582e+00 -2.775158e+00 1.559632e-02 7.451836e-03 -5.832626e-03
Al -4.525702e-02 -1.884678e+00 2.504900e+00 1.227514e-02 8.859887e-03 -1.313506e-02
Al -4.525702e-02 -1.884678e+00 7.521855e+00 1.203832e-02 8.176336e-03 -4.873962e-03
Al -4.525702e-02 -1.884678e+00 -2.775158e+00 1.190059e-02 8.522344e-03 -5.267195e-03
Al 1.469567e-08 1.806291e+00 5.013378e+00 -1.172901e-02 -8.530295e-03 -5.294063e-03
Ga 1.469567e-08 1.806291e+00 -5.283635e+00 -1.473590e-02 -1.096794e-02 -6.579153e-03
Ga 1.469567e-08 1.806291e+00 -2.666800e-01 -1.474026e-02 -1.105597e-02 4.335606e-02
Ga 3.173845e+00 -3.690969e+00 5.013378e+00 -1.480044e-02 -8.473720e-03 -4.926442e-03
Al 3.173845e+00 -3.690969e+00 -5.283635e+00 -1.269658e-02 -5.452216e-03 -5.293386e-03
Ga 3.173845e+00 -3.690969e+00 -2.666800e-01 -1.510191e-02 -7.893039e-03 4.569814e-02
Ga 1.609551e+00 -9.815320e-01 5.013378e+00 -1.640578e-02 9.969048e-03 -9.172649e-03
Al 1.609551e+00 -9.815320e-01 -5.283635e+00 -1.365969e-02 7.838507e-03 -7.399043e-03
Al 1.609551e+00 -9.815320e-01 -2.666800e-01 -1.408778e-02 8.052735e-03 3.322258e-02
Al 3.128588e+00 1.806291e+00 5.013378e+00 6.609765e-05 -3.194595e-03 -3.683409e-03
Al 3.128588e+00 1.806291e+00 -5.283635e+00 4.041734e-04 -2.983940e-03 -4.819111e-03
Al 3.128588e+00 1.806291e+00 -2.666800e-01 2.820075e-04 -3.442789e-03 3.589674e-02
Al 6.302433e+00 -3.690969e+00 5.013378e+00 3.056297e-04 -4.863555e-04 -2.411513e-03
Ga 6.302433e+00 -3.690969e+00 -5.283635e+00 4.314265e-04 -6.086404e-04 -3.309545e-03
Al 6.302433e+00 -3.690969e+00 -2.666800e-01 1.104118e-04 7.281960e-05 3.772331e-02
Ga 4.738139e+00 -9.815320e-01 5.013378e+00 -4.412110e-04 1.741241e-02 -5.511897e-03
Ga 4.738139e+00 -9.815320e-01 -5.283635e+00 -1.251785e-03 1.730885e-02 -5.968870e-03
Ga 4.738139e+00 -9.815320e-01 -2.666800e-01 -4.823068e-04 1.710279e-02 4.599402e-02
Ga -3.219102e+00 1.806291e+00 5.013378e+00 2.985879e-03 -2.456086e-03 -4.060871e-03
Al -3.219102e+00 1.806291e+00 -5.283635e+00 2.541501e-03 -1.050865e-03 -4.912680e-03
Al -3.219102e+00 1.806291e+00 -2.666800e-01 3.614875e-03 -2.159454e-03 3.503363e-02
Ga -4.525703e-02 -3.690969e+00 5.013378e+00 2.343221e-03 1.061173e-03 -2.125684e-03
Al -4.525703e-02 -3.690969e+00 -5.283635e+00 3.214641e-03 8.886754e-04 -4.939284e-03
Al -4.525703e-02 -3.690969e+00 -2.666800e-01 2.949501e-03 1.952550e-03 3.617666e-02
Ga -1.609551e+00 -9.815320e-01 5.013378e+00 1.875247e-03 1.872666e-02 -6.566855e-03
Ga -1.609551e+00 -9.815320e-01 -5.283635e+00 2.605899e-03 1.831591e-02 -6.662189e-03
Al -1.609551e+00 -9.815320e-01 -2.666800e-01 1.520756e-03 1.469749e-02 3.417029e-02
N 1.564294e+00 9.031460e-01 4.418497e+00 -1.313306e-03 4.042201e-03 -1.451823e-04
N 1.564294e+00 9.031460e-01 -5.878516e+00 1.801819e-02 -2.445694e-02 -1.894710e-03
N 1.564294e+00 9.031460e-01 -8.615610e-01 1.823682e-02 -2.418236e-02 -9.752350e-04
N 2.938992e-08 3.612582e+00 4.418497e+00 1.651668e-02 -1.076021e-02 -4.714008e-03
N 2.938992e-08 3.612582e+00 -5.878516e+00 -2.122713e-02 1.104643e-02 -1.282596e-02
N 2.938992e-08 3.612582e+00 -8.615610e-01 1.641163e-02 1.112655e-02 -1.021623e-02
N 3.173845e+00 -1.884678e+00 4.418497e+00 -3.279455e-03 1.419527e-03 -2.053928e-02
N 3.173845e+00 -1.884678e+00 -5.878516e+00 -2.115912e-02 -9.481428e-03 -5.648955e-03
N 3.173845e+00 -1.884678e+00 -8.615610e-01 -2.101790e-02 1.235060e-02 1.307953e-02
N -4.783396e+00 9.031460e-01 4.418497e+00 -1.879716e-02 -6.631683e-03 -7.562225e-03
N -4.783396e+00 9.031460e-01 -5.878516e+00 8.761148e-04 4.166917e-03 -5.171012e-04
N -4.783396e+00 9.031460e-01 -8.615610e-01 1.944229e-04 4.140774e-03 7.181074e-04
N -6.347690e+00 3.612582e+00 4.418497e+00 -1.933972e-02 -1.058259e-02 1.971282e-02
N -6.347690e+00 3.612582e+00 -5.878516e+00 1.837844e-02 -1.055733e-02 -4.772571e-03
N -6.347690e+00 3.612582e+00 -8.615610e-01 -5.197474e-04 1.629752e-04 2.858364e-02
N -3.173845e+00 -1.884678e+00 4.418497e+00 -1.307920e-03 -2.011680e-02 -1.227101e-02
N -3.173845e+00 -1.884678e+00 -5.878516e+00 -1.097673e-03 2.327451e-03 -2.102257e-02
N -3.173845e+00 -1.884678e+00 -8.615610e-01 1.716026e-02 -9.052428e-03 2.087506e-02
N -1.654808e+00 9.031460e-01 4.418497e+00 3.228151e-02 -9.408052e-04 1.732157e-02
N -1.654808e+00 9.031460e-01 -5.878516e+00 -2.252665e-03 1.131725e-03 1.961600e-02
N -1.654808e+00 9.031460e-01 -8.615610e-01 -1.967671e-03 -1.618851e-02 3.538147e-03
N -3.219102e+00 3.612582e+00 4.418497e+00 1.579041e-02 9.055845e-03 7.578709e-03
N -3.219102e+00 3.612582e+00 -5.878516e+00 1.218853e-02 5.577590e-03 5.123283e-03
N -3.219102e+00 3.612582e+00 -8.615610e-01 -3.350048e-03 -2.296642e-03 2.444559e-02
N -4.525702e-02 -1.884678e+00 4.418497e+00 1.524010e-02 9.806580e-03 -1.605816e-02
N -4.525702e-02 -1.884678e+00 -5.878516e+00 2.990679e-02 -3.307711e-03 -2.078037e-03
N -4.525702e-02 -1.884678e+00 -8.615610e-01 1.148707e-02 6.902282e-03 5.776111e-03
N 1.469567e-08 1.806291e+00 1.910020e+00 3.862053e-03 9.440496e-04 -2.345286e-02
N 1.469567e-08 1.806291e+00 6.926975e+00 3.909536e-03 8.585121e-04 -1.683950e-03
N 1.469567e-08 1.806291e+00 -3.370038e+00 -1.149789e-02 -7.358336e-03 2.814376e-02
N 3.173845e+00 -3.690969e+00 1.910020e+00 3.497733e-03 2.372063e-03 -2.361409e-02
N 3.173845e+00 -3.690969e+00 6.926975e+00 -1.256317e-02 -5.982464e-03 2.880124e-02
N 3.173845e+00 -3.690969e+00 -3.370038e+00 3.669637e-03 -1.908924e-02 -9.096096e-03
N 1.609551e+00 -9.815320e-01 1.910020e+00 -1.380543e-02 7.983742e-03 -2.652875e-02
N 1.609551e+00 -9.815320e-01 6.926975e+00 -1.372256e-02 7.759337e-03 3.099824e-02
N 1.609551e+00 -9.815320e-01 -3.370038e+00 -3.252155e-02 1.871982e-02 2.363692e-04
N 3.128588e+00 1.806291e+00 1.910020e+00 1.240517e-03 -2.391584e-02 -3.953242e-02
N 3.128588e+00 1.806291e+00 6.926975e+00 1.317140e-03 -1.768900e-03 2.657645e-03
N 3.128588e+00 1.806291e+00 -3.370038e+00 9.691517e-04 -2.391503e-02 -4.940308e-03
N 6.302433e+00 -3.690969e+00 1.910020e+00 -1.877743e-02 1.088099e-02 -3.895379e-02
N 6.302433e+00 -3.690969e+00 6.926975e+00 6.014457e-04 -1.925196e-04 2.272573e-03
N 6.302433e+00 -3.690969e+00 -3.370038e+00 -1.853012e-02 -1.105444e-02 1.083369e-02
N 4.738139e+00 -9.815320e-01 1.910020e+00 -6.951782e-04 1.372017e-02 -1.764292e-02
N 4.738139e+00 -9.815320e-01 6.926975e+00 -9.177793e-04 1.378080e-02 2.806544e-02
N 4.738139e+00 -9.815320e-01 -3.370038e+00 -7.208553e-04 3.523245e-02 1.254924e-02
N -3.219102e+00 1.806291e+00 1.910020e+00 -1.621663e-02 -1.249919e-02 -4.820629e-02
N -3.219102e+00 1.806291e+00 6.926975e+00 -1.599161e-02 9.371546e-03 1.806999e-02
N -3.219102e+00 1.806291e+00 -3.370038e+00 2.534067e-03 -2.366975e-02 -5.525863e-03
N -4.525703e-02 -3.690969e+00 1.910020e+00 2.265103e-03 2.186443e-02 -4.783313e-02
N -4.525703e-02 -3.690969e+00 6.926975e+00 2.305011e-03 -1.630981e-05 2.651425e-02
N -4.525703e-02 -3.690969e+00 -3.370038e+00 1.990684e-03 2.236619e-02 -1.258104e-02
N -1.609551e+00 -9.815320e-01 1.910020e+00 1.144106e-03 -4.195345e-03 -3.572398e-02
N -1.609551e+00 -9.815320e-01 6.926975e+00 1.358591e-03 -3.620218e-03 2.174616e-02
N -1.609551e+00 -9.815320e-01 -3.370038e+00 1.944096e-02 2.466094e-02 2.077391e-02
