108
Energy=-2542336.984356 Lattice="9.655784 0.000000 0.000000 -4.828801 8.362072 0.000000 -0.001914 -0.000473 15.671909" Stress="0.000000 0.000000 0.000000 -0.000000 0.000000 -0.000000 0.000000 -0.000000 0.000000" Properties=species:S:1:pos:R:3:forces:R:3
Al 1.584054 0.889684 2.465993 0.000021 0.000067 0.000006
Al 1.579196 0.897849 7.689763 -0.000007 0.000031 -0.000010
Ga 1.576275 0.890671 -2.760545 -0.000006 0.000013 -0.000008
Ga -0.028879 3.670425 2.450735 -0.000007 0.000103 0.000048
Al -0.019723 3.666042 7.691314 -0.000017 0.000028 -0.000013
Ga -0.042527 3.668701 -2.748844 0.000019 -0.000024 -0.000001
Ga 3.188936 -1.901578 2.457765 -0.000001 0.000066 -0.000034
Ga 3.198197 -1.896265 7.698667 -0.000024 0.000015 -0.000017
Ga 3.194631 -1.907779 -2.761917 0.000018 -0.000007 0.000022
Ga -4.858740 0.890962 2.460341 -0.000024 0.000099 0.000002
Ga -4.859036 0.884740 7.706009 0.000011 0.000059 0.000006
Ga -4.840737 0.891551 -2.769924 0.000022 -0.000006 -0.000021
Ga -6.460816 3.670280 2.480307 -0.000018 0.000091 0.000023
Ga -6.466434 3.673149 7.677942 0.000018 0.000037 -0.000008
Ga -6.453570 3.673347 -2.761055 -0.000002 -0.000019 -0.000002
Ga -3.240010 -1.898560 2.466059 -0.000015 0.000049 0.000014
Ga -3.251797 -1.902919 7.706362 0.000007 0.000018 0.000008
Ga -3.243646 -1.888250 -2.773927 -0.000000 -0.000036 -0.000004
Ga -1.621727 0.891619 2.468776 -0.000005 0.000036 -0.000003
Ga -1.618619 0.899776 7.690895 -0.000009 0.000034 -0.000014
Al -1.633924 0.899185 -2.763689 -0.000016 0.000018 -0.000019
Ga -3.237657 3.682194 2.466328 -0.000015 0.000074 0.000043
Ga -3.241460 3.679189 7.684709 -0.000016 0.000038 0.000005
Al -3.229795 3.671925 -2.752205 -0.000021 -0.000010 0.000010
Ga -0.017922 -1.894920 2.473561 -0.000005 0.000013 -0.000004
Ga -0.018457 -1.899433 7.683143 -0.000002 -0.000005 0.000014
Ga -0.021596 -1.896220 -2.759797 -0.000027 -0.000046 -0.000018
Ga -0.011751 1.819751 5.086534 0.000015 -0.000056 0.000037
Ga -0.019225 1.821442 -5.376688 0.000036 0.000007 0.000006
Ga -0.029822 1.818809 -0.147414 0.000010 0.000045 -0.000032
Ga 3.190430 -3.759272 5.092775 0.000001 -0.000013 -0.000008
Ga 3.203085 -3.755013 -5.373354 0.000021 0.000010 -0.000002
Al 3.187308 -3.759663 -0.160724 0.000027 -0.000002 -0.000025
Ga 1.581945 -0.965404 5.078474 0.000017 -0.000073 0.000001
Ga 1.597013 -0.962659 -5.381678 0.000012 -0.000034 0.000014
Ga 1.591634 -0.972236 -0.136583 0.000004 0.000010 -0.000027
Ga 3.189435 1.817795 5.082466 -0.000011 -0.000056 0.000015
Ga 3.194079 1.808191 -5.384924 -0.000004 -0.000011 0.000007
Ga 3.190740 1.816100 -0.134881 -0.000009 0.000059 0.000010
Ga 6.416086 -3.757720 5.090504 0.000006 -0.000067 -0.000008
Ga 6.403911 -3.754393 -5.381555 0.000007 -0.000021 -0.000009
Ga 6.406439 -3.757113 -0.148410 -0.000015 0.000009 -0.000019
Ga 4.804024 -0.969167 5.078542 -0.000014 -0.000084 -0.000001
Al 4.803617 -0.969182 -5.365730 -0.000002 -0.000028 0.000002
Ga 4.799194 -0.978303 -0.150472 -0.000014 0.000011 -0.000030
Ga -3.248513 1.827375 5.079924 0.000013 -0.000055 -0.000006
Ga -3.240803 1.816395 -5.348191 -0.000020 -0.000014 0.000002
Ga -3.228791 1.830538 -0.171665 -0.000024 0.000046 -0.000040
Al -0.021287 -3.756086 5.076660 0.000000 -0.000049 -0.000010
Ga -0.016264 -3.759877 -5.353837 -0.000019 -0.000016 -0.000000
Ga -0.006403 -3.761155 -0.158289 -0.000022 -0.000012 -0.000005
Ga -1.628901 -0.977760 5.084163 -0.000001 -0.000083 -0.000008
Ga -1.639363 -0.964264 -5.363520 -0.000002 -0.000072 0.000004
Ga -1.632397 -0.961497 -0.158601 -0.000016 -0.000018 0.000008
N 1.584264 0.889486 4.386814 0.000012 0.000081 0.000012
N 1.583135 0.890544 -6.064093 0.000003 0.000049 0.000019
N 1.584978 0.888479 -0.786014 0.000016 -0.000037 0.000003
N -0.028017 3.677544 4.434028 0.000035 0.000091 -0.000009
N -0.025042 3.673656 -6.060637 0.000007 0.000030 0.000036
N -0.068211 3.698544 -0.762007 0.000004 -0.000035 0.000020
N 3.192334 -1.903841 4.440744 0.000000 0.000048 -0.000013
N 3.240563 -1.875332 -5.987773 0.000000 0.000026 -0.000015
N 3.193842 -1.946566 -0.771115 -0.000000 -0.000024 -0.000055
N -4.853369 0.890875 4.439072 -0.000003 0.000084 -0.000012
N -4.844661 0.841325 -5.977628 0.000015 0.000057 -0.000014
N -4.852689 0.888430 -0.786498 0.000020 -0.000035 0.000005
N -6.420358 3.699425 4.470807 -0.000021 0.000085 0.000003
N -6.455212 3.679961 -6.010772 -0.000006 0.000035 -0.000001
N -6.460560 3.674185 -0.781961 0.000003 -0.000041 -0.000011
N -3.241226 -1.900494 4.443154 0.000015 0.000059 0.000004
N -3.283659 -1.872002 -5.980217 0.000019 0.000035 -0.000007
N -3.243328 -1.897765 -0.795012 0.000025 -0.000017 0.000001
N -1.629832 0.891296 4.451525 -0.000020 0.000071 0.000004
N -1.632988 0.892959 -6.005637 -0.000028 0.000040 -0.000012
N -1.628081 0.890518 -0.842958 -0.000007 -0.000026 -0.000002
N -3.280518 3.704042 4.456194 -0.000027 0.000068 -0.000020
N -3.243041 3.675126 -6.009683 -0.000009 0.000003 0.000004
N -3.197514 3.702219 -0.826805 0.000004 -0.000069 0.000012
N -0.021658 -1.946528 4.462410 -0.000012 0.000059 0.000009
N -0.023284 -1.902479 -6.004364 -0.000019 0.000043 -0.000007
N -0.019819 -1.896499 -0.782491 0.000005 -0.000022 0.000012
N 0.017686 1.791626 1.838868 -0.000025 -0.000005 -0.000019
N 0.022760 1.843280 7.082061 0.000008 -0.000028 -0.000009
N -0.063393 1.797629 -3.388241 0.000014 0.000015 0.000000
N 3.190675 -3.757956 1.765394 0.000026 -0.000124 0.000023
N 3.239146 -3.780136 7.078561 0.000024 -0.000027 0.000011
N 3.155736 -3.782497 -3.389283 0.000015 0.000012 -0.000013
N 1.585234 -0.920045 1.850729 -0.000018 -0.000018 0.000053
N 1.587655 -0.917067 7.070697 0.000016 -0.000060 -0.000002
N 1.588288 -0.966860 -3.403417 0.000029 -0.000013 -0.000040
N 3.150850 1.796398 1.851800 0.000031 -0.000054 -0.000025
N 3.152589 1.790007 7.072053 0.000019 -0.000027 -0.000011
N 3.191907 1.815291 -3.406613 0.000001 0.000013 -0.000006
N 6.416919 -3.758349 1.830609 0.000008 -0.000072 0.000031
N 6.369664 -3.778444 7.077424 0.000014 -0.000033 -0.000011
N 6.407930 -3.762327 -3.397915 0.000008 0.000013 0.000012
N 4.803744 -0.970586 1.826428 0.000025 -0.000061 0.000026
N 4.804082 -0.968148 7.051772 0.000009 -0.000051 -0.000015
N 4.799454 -0.969225 -3.446647 -0.000033 -0.000012 0.000015
N -3.237330 1.821552 1.817102 0.000012 -0.000046 0.000013
N -3.245474 1.816197 7.057241 -0.000021 -0.000062 0.000008
N -3.198328 1.846296 -3.352938 -0.000015 -0.000003 0.000022
N -0.021577 -3.757937 1.822461 -0.000003 -0.000040 0.000038
N -0.022186 -3.756628 6.996758 -0.000016 -0.000043 0.000029
N 0.024342 -3.782954 -3.368437 -0.000011 0.000022 -0.000003
N -1.630033 -0.965820 1.824508 -0.000002 -0.000047 -0.000010
N -1.636346 -0.969765 7.062333 -0.000019 -0.000061 0.000006
N -1.630478 -0.917398 -3.378176 0.000001 -0.000016 0.000018
