108
Energy=-2771214.567545 Lattice="9.694103 0.000000 0.000000 -4.847980 8.387746 0.000000 0.032574 0.017297 15.719824" Stress="0.000003 0.000001 0.000009 0.000001 0.000002 0.000005 0.000009 0.000005 -0.000007" Properties=species:S:1:pos:R:3:forces:R:3
Al 1.587942 0.882541 2.472684 -0.000193 -0.000244 0.000317
Al 1.606253 0.898550 7.708757 0.000223 -0.000121 0.000339
Ga 1.588019 0.890205 -2.767393 0.000196 -0.000139 0.000190
Ga -0.031365 3.670794 2.475694 -0.000610 -0.000443 0.000208
Ga -0.004574 3.684318 7.704160 -0.000086 0.000131 0.000192
Ga -0.027647 3.683488 -2.759883 -0.000059 -0.000033 -0.000193
Ga 3.195652 -1.911924 2.475651 -0.000619 -0.000797 0.000298
Ga 3.219086 -1.890395 7.704313 0.000041 -0.000072 0.000204
Ga 3.204626 -1.905683 -2.763705 0.000061 0.000010 0.000165
Ga -4.881466 0.892791 2.475486 -0.000572 -0.000715 0.000085
Ga -4.867198 0.901622 7.704699 0.000224 -0.000129 0.000024
Ga -4.877487 0.894014 -2.762967 0.000214 0.000005 0.000139
Ga -6.485584 3.670619 2.474642 -0.000775 -0.000635 0.000325
Ga -6.474984 3.686607 7.704750 -0.000056 0.000048 0.000092
Ga -6.488764 3.685143 -2.763080 -0.000091 0.000088 0.000133
Ga -3.256253 -1.910412 2.474777 -0.000810 -0.000836 0.000112
Ga -3.237843 -1.895791 7.713864 -0.000047 -0.000066 0.000221
Ga -3.256387 -1.904530 -2.766615 0.000000 0.000037 0.000096
Ga -1.636637 0.895858 2.471971 -0.000479 -0.000803 0.000513
Ga -1.617384 0.903472 7.705514 0.000339 -0.000320 0.000016
Ga -1.644602 0.895264 -2.765278 0.000413 -0.000244 0.000513
Al -3.259324 3.680925 2.474445 -0.000722 -0.000775 0.000103
Ga -3.241483 3.696776 7.711219 0.000128 -0.000154 0.000369
Ga -3.259650 3.689016 -2.763630 0.000142 -0.000097 -0.000039
Ga -0.016002 -1.909532 2.475854 -0.000433 -0.000859 0.000158
Ga -0.002019 -1.887113 7.704518 0.000306 -0.000177 0.000043
Ga -0.023239 -1.902618 -2.763122 0.000206 -0.000160 0.000139
Ga -0.003009 1.816683 5.089623 -0.000451 0.000495 0.000370
Ga -0.027536 1.813052 -5.400244 -0.000489 0.000423 0.000314
Ga -0.007728 1.829167 -0.133322 -0.001512 -0.000599 0.000298
Ga 3.210120 -3.771252 5.080393 -0.000545 0.000188 0.000173
Ga 3.199945 -3.775142 -5.387996 -0.000313 0.000336 0.000047
Ga 3.219248 -3.757531 -0.131023 -0.002224 -0.001628 0.000015
Ga 1.603598 -0.956807 5.091416 -0.000639 0.000248 0.000201
Ga 1.585169 -0.972464 -5.400511 -0.000625 0.000399 0.000123
Ga 1.610044 -0.954090 -0.130930 -0.002262 -0.001282 -0.000217
Ga 3.201433 1.818783 5.090084 -0.000262 0.000106 0.000364
Ga 3.189185 1.814386 -5.401123 -0.000187 0.000212 0.000355
Ga 3.213977 1.836155 -0.132512 -0.001729 -0.001810 0.000128
Ga 6.448319 -3.764533 5.092380 -0.000322 0.000027 0.000096
Ga 6.428985 -3.775177 -5.387484 -0.000155 0.000094 0.000078
Ga 6.452347 -3.754408 -0.142253 -0.001600 -0.001641 -0.000066
Ga 4.834379 -0.970105 5.092812 -0.000532 0.000073 0.000015
Ga 4.813985 -0.977321 -5.387680 -0.000449 0.000182 -0.000000
Ga 4.839025 -0.957389 -0.141932 -0.002089 -0.001691 -0.000485
Ga -3.247790 1.835195 5.078662 -0.000549 0.000191 0.000299
Ga -3.267846 1.819208 -5.389218 -0.000316 0.000127 0.000330
Ga -3.245005 1.846502 -0.131373 -0.001750 -0.001978 -0.000103
Ga -0.007837 -3.768526 5.079347 -0.000343 0.000071 0.000281
Ga -0.034263 -3.771940 -5.388574 -0.000304 0.000210 0.000182
Ga -0.005090 -3.754439 -0.130681 -0.001853 -0.001703 -0.000220
Ga -1.629622 -0.967291 5.091744 -0.000614 -0.000111 0.000094
Ga -1.646770 -0.976033 -5.388188 -0.000472 0.000221 0.000135
Ga -1.624093 -0.957873 -0.142483 -0.002176 -0.001339 -0.000429
N 1.596711 0.892919 4.392481 0.000541 -0.000214 -0.000281
N 1.578174 0.885896 -6.086836 0.000595 -0.000289 -0.000201
N 1.598946 0.901142 -0.787435 0.000960 0.000250 -0.000372
N -0.017221 3.687099 4.458171 0.000309 -0.000404 -0.000208
N -0.035589 3.681471 -6.031445 0.000299 -0.000216 -0.000203
N -0.018690 3.693765 -0.772868 0.000853 0.000367 -0.000537
N 3.213312 -1.900333 4.457823 0.000387 -0.000336 -0.000082
N 3.197545 -1.910282 -6.031608 0.000429 -0.000225 -0.000065
N 3.215049 -1.896063 -0.776700 0.001001 0.000505 0.000148
N -4.868979 0.896081 4.457672 0.000388 -0.000101 -0.000173
N -4.884806 0.887197 -6.031144 0.000434 -0.000026 -0.000253
N -4.865740 0.906055 -0.775562 0.001087 0.000652 -0.000111
N -6.480381 3.687654 4.457495 0.000189 -0.000240 -0.000232
N -6.498198 3.682919 -6.030772 0.000194 -0.000144 -0.000271
N -6.475940 3.697058 -0.775652 0.000770 0.000610 -0.000119
N -3.246680 -1.900199 4.453433 0.000275 -0.000234 -0.000198
N -3.265243 -1.908796 -6.024174 0.000299 -0.000136 -0.000046
N -3.246095 -1.893871 -0.784464 0.000940 0.000554 -0.000005
N -1.632134 0.898128 4.454842 0.000512 -0.000258 -0.000049
N -1.653953 0.889308 -6.030405 0.000562 -0.000278 -0.000257
N -1.635954 0.906883 -0.776703 0.001066 0.000188 0.000007
N -3.250115 3.691927 4.395739 0.000390 -0.000393 -0.000383
N -3.268007 3.684863 -6.026710 0.000318 -0.000343 -0.000208
N -3.248036 3.700983 -0.783854 0.000880 0.000389 -0.000166
N -0.013607 -1.897304 4.457762 0.000301 -0.000525 -0.000097
N -0.034394 -1.907034 -6.031485 0.000427 -0.000413 -0.000137
N -0.011440 -1.892429 -0.775902 0.001044 0.000192 -0.000038
N 0.014967 1.787829 1.853773 0.000942 0.000915 -0.000169
N 0.037358 1.801324 7.082516 -0.000117 0.000096 -0.000239
N -0.025720 1.819159 -3.412391 -0.000115 0.000359 -0.000362
N 3.158178 -3.806887 1.857534 0.001812 0.002103 -0.000004
N 3.221355 -3.764710 7.065328 0.000014 0.000192 -0.000238
N 3.205943 -3.771672 -3.404319 0.000013 0.000306 -0.000050
N 1.586606 -0.935343 1.855651 0.001354 0.001824 -0.000261
N 1.609754 -0.912907 7.083294 -0.000395 0.000234 -0.000176
N 1.591374 -0.973228 -3.413728 -0.000223 0.000302 -0.000194
N 3.155726 1.785493 1.852689 0.001497 0.001741 0.000139
N 3.174016 1.803549 7.083096 -0.000135 -0.000050 -0.000242
N 3.199960 1.820911 -3.413340 0.000129 0.000146 -0.000289
N 6.431681 -3.781930 1.837799 0.001752 0.001747 0.000129
N 6.453950 -3.760317 7.072082 0.000100 -0.000070 -0.000190
N 6.434828 -3.772130 -3.402313 0.000249 0.000132 -0.000133
N 4.814974 -0.984911 1.836964 0.001641 0.001971 0.000348
N 4.840559 -0.965947 7.071924 -0.000168 0.000041 -0.000096
N 4.819914 -0.972705 -3.402930 -0.000081 0.000067 -0.000141
N -3.264704 1.860478 1.858362 0.001648 0.001908 0.000009
N -3.242117 1.833539 7.064172 -0.000139 0.000059 -0.000100
N -3.261387 1.822842 -3.404984 -0.000069 0.000217 -0.000173
N 0.010774 -3.804809 1.858131 0.001694 0.001933 0.000132
N -0.006913 -3.761415 7.064620 -0.000122 0.000021 -0.000156
N -0.028298 -3.768474 -3.404626 0.000133 0.000207 -0.000119
N -1.643394 -0.982996 1.836966 0.001461 0.001979 0.000140
N -1.623705 -0.964281 7.071189 -0.000301 0.000157 -0.000011
N -1.639888 -0.972343 -3.403253 -0.000201 0.000212 -0.000157
