108
Energy=-802868.076664 Lattice="9.440206 0.000000 0.000000 -4.721158 8.173274 0.000000 0.000586 0.009633 15.171085" Stress="0.000002 -0.000001 0.000001 -0.000001 -0.000001 0.000002 0.000001 0.000002 0.000003" Properties=species:S:1:pos:R:3:forces:R:3
Al 1.542579 0.875560 2.409386 -0.000156 -0.000202 0.000026
Al 1.550759 0.875498 7.433640 0.000073 -0.000024 -0.000017
Al 1.552998 0.878126 -2.707874 -0.000045 -0.000044 0.000055
Al -0.011029 3.590545 2.372269 0.000109 -0.000036 0.000068
Al -0.015641 3.593164 7.453566 0.000032 0.000019 0.000080
Al -0.026208 3.584249 -2.691509 -0.000011 -0.000044 0.000075
Al 3.134703 -1.845574 2.391014 -0.000124 0.000248 0.000121
Al 3.127204 -1.843626 7.449001 -0.000013 0.000065 0.000059
Al 3.130211 -1.858938 -2.700309 -0.000083 -0.000021 -0.000024
Al -4.740427 0.860317 2.397108 0.000126 -0.000016 0.000052
Al -4.742342 0.873128 7.438654 0.000045 -0.000000 0.000005
Al -4.745241 0.871920 -2.701796 0.000028 0.000064 0.000036
Al -6.332694 3.597152 2.415736 0.000057 0.000109 -0.000013
Al -6.318012 3.597033 7.434532 0.000020 -0.000012 -0.000007
Al -6.322015 3.577310 -2.709880 -0.000002 -0.000094 0.000074
Al -3.176651 -1.857832 2.370839 0.000047 -0.000004 -0.000104
Al -3.176565 -1.855407 7.447552 -0.000094 -0.000022 0.000061
Ga -3.175963 -1.856586 -2.678503 -0.000027 -0.000003 -0.000005
Al -1.593256 0.873494 2.376741 0.000226 -0.000126 -0.000029
Al -1.594487 0.884450 7.449371 -0.000005 -0.000044 0.000073
Al -1.595055 0.879683 -2.689101 0.000025 0.000029 0.000084
Ga -3.167625 3.585760 2.390848 0.000056 0.000125 -0.000010
Al -3.173985 3.592951 7.450284 0.000003 0.000002 0.000003
Al -3.160234 3.582449 -2.700091 0.000005 -0.000066 0.000077
Al -0.027047 -1.845559 2.402144 0.000032 -0.000068 0.000045
Al -0.013297 -1.853255 7.450449 -0.000051 -0.000027 -0.000045
Ga -0.018742 -1.852674 -2.704915 0.000028 0.000103 -0.000020
Al -0.017193 1.783174 4.918999 0.000025 0.000025 -0.000025
Al -0.023054 1.773813 -5.211764 -0.000028 0.000038 0.000058
Al -0.035015 1.783275 -0.158793 -0.000084 0.000062 0.000042
Ga 3.134956 -3.666926 4.934089 -0.000000 -0.000002 0.000030
Al 3.126415 -3.675936 -5.218928 -0.000048 0.000070 -0.000027
Al 3.141681 -3.675439 -0.163019 -0.000166 -0.000415 -0.000102
Al 1.556426 -0.937256 4.919722 -0.000064 0.000114 0.000021
Al 1.558904 -0.946500 -5.222502 -0.000072 0.000005 -0.000046
Ga 1.559090 -0.942637 -0.138915 -0.000310 0.000142 0.000231
Al 3.124927 1.779337 4.915466 0.000021 0.000007 -0.000004
Al 3.124774 1.773151 -5.221183 -0.000016 0.000004 0.000002
Ga 3.123404 1.777276 -0.142311 -0.000139 0.000021 0.000054
Al 6.271524 -3.674295 4.918873 -0.000008 -0.000050 -0.000041
Al 6.270572 -3.679808 -5.222346 0.000003 0.000012 0.000052
Al 6.259651 -3.673846 -0.144044 -0.000044 -0.000076 0.000220
Al 4.696391 -0.937901 4.918529 -0.000079 0.000004 -0.000009
Al 4.695185 -0.948133 -5.220647 -0.000076 0.000021 -0.000020
Al 4.701673 -0.948521 -0.144462 -0.000052 0.000028 0.000219
Al -3.176191 1.771579 4.933228 0.000028 0.000104 -0.000030
Al -3.169220 1.772489 -5.211277 -0.000019 -0.000004 0.000068
Al -3.160060 1.763756 -0.168795 0.000182 -0.000116 -0.000132
Al -0.031605 -3.671569 4.933695 -0.000048 0.000012 0.000002
Al -0.021799 -3.682446 -5.223589 -0.000026 -0.000032 -0.000013
Ga -0.029802 -3.678710 -0.149684 -0.000089 0.000051 0.000520
Ga -1.599493 -0.942130 4.920204 -0.000062 0.000127 0.000009
Al -1.598310 -0.944420 -5.239995 -0.000045 0.000018 0.000005
Al -1.609470 -0.930225 -0.123652 0.000070 0.000044 0.000196
N 1.546571 0.874654 4.327532 -0.000005 -0.000042 -0.000046
N 1.549464 0.868887 -5.818871 -0.000011 -0.000034 -0.000010
N 1.509829 0.893984 -0.797746 0.000047 -0.000049 0.000041
N 0.018849 3.572268 4.288661 -0.000003 -0.000170 -0.000082
N -0.020986 3.585718 -5.807981 -0.000010 -0.000036 0.000004
N -0.020731 3.591851 -0.764626 0.000047 -0.000033 0.000119
N 3.127876 -1.806775 4.303025 0.000172 0.000049 -0.000168
N 3.126464 -1.857702 -5.812655 0.000003 0.000015 -0.000011
N 3.166210 -1.878080 -0.780274 0.000217 0.000352 -0.000131
N -4.738481 0.870798 4.319412 0.000083 -0.000027 -0.000092
N -4.741666 0.867039 -5.816273 0.000076 -0.000018 -0.000026
N -4.706973 0.844183 -0.782909 -0.000001 -0.000177 -0.000013
N -6.319591 3.598764 4.332612 -0.000010 -0.000038 -0.000067
N -6.317821 3.588045 -5.821400 -0.000019 -0.000007 -0.000045
N -6.363245 3.613863 -0.802642 0.000065 0.000052 -0.000116
N -3.212901 -1.877870 4.290937 -0.000058 0.000032 0.000031
N -3.175208 -1.862938 -5.811870 -0.000017 -0.000014 0.000005
N -3.167394 -1.855053 -0.692707 -0.000064 -0.000049 0.000017
N -1.597242 0.924622 4.293791 0.000081 -0.000002 0.000043
N -1.595597 0.876068 -5.814344 0.000084 -0.000049 -0.000045
N -1.594031 0.865839 -0.762938 0.000144 -0.000097 0.000081
N -3.208213 3.571100 4.360991 0.000098 -0.000218 -0.000005
N -3.169795 3.585681 -5.807168 0.000071 -0.000028 -0.000015
N -3.128709 3.569113 -0.775649 0.000307 0.000339 0.000075
N 0.017734 -1.875325 4.313616 -0.000010 -0.000029 -0.000192
N -0.015977 -1.861196 -5.806132 0.000041 -0.000015 -0.000025
N -0.067485 -1.826692 -0.739633 0.000100 0.000034 0.000125
N -0.020699 1.776481 1.768117 -0.000030 -0.000065 -0.000085
N -0.023000 1.783714 6.837082 -0.000114 0.000018 -0.000050
N -0.025657 1.776070 -3.294319 -0.000029 0.000007 0.000001
N 3.166614 -3.645275 1.760523 -0.000075 -0.000115 -0.000099
N 3.129597 -3.667147 6.906873 -0.000117 -0.000068 0.000004
N 3.127589 -3.674552 -3.295584 -0.000025 0.000043 -0.000009
N 1.552892 -0.941865 1.841399 0.000068 0.000032 -0.000312
N 1.553776 -0.942960 6.840608 -0.000122 0.000044 0.000034
N 1.596873 -0.924055 -3.313361 0.000003 0.000033 0.000094
N 3.122826 1.778504 1.846609 0.000187 0.000181 -0.000224
N 3.125898 1.780499 6.835924 -0.000050 -0.000051 0.000006
N 3.126329 1.772834 -3.303055 -0.000041 -0.000044 -0.000004
N 6.274717 -3.676685 1.776687 0.000042 -0.000005 -0.000173
N 6.268986 -3.667196 6.838651 -0.000042 0.000012 -0.000044
N 6.267352 -3.718257 -3.312972 -0.000005 -0.000040 0.000010
N 4.693137 -0.941183 1.776288 -0.000025 0.000044 -0.000184
N 4.699506 -0.942790 6.838111 -0.000077 0.000008 -0.000042
N 4.660259 -0.925682 -3.313323 -0.000052 0.000052 0.000042
N -3.172619 1.727434 1.747606 -0.000379 -0.000059 0.000154
N -3.168743 1.777908 6.846839 0.000030 0.000011 -0.000063
N -3.167960 1.772557 -3.292130 0.000003 -0.000005 -0.000077
N -0.068332 -3.650893 1.822670 -0.000039 0.000013 -0.000524
N -0.022722 -3.665909 6.850477 -0.000019 0.000024 0.000017
N -0.020388 -3.724244 -3.311028 0.000097 -0.000056 0.000112
N -1.595924 -0.942017 1.799024 0.000017 0.000025 -0.000066
N -1.596129 -0.941601 6.900270 0.000162 0.000015 0.000069
N -1.602064 -0.898846 -3.336431 0.000051 0.000083 -0.000038
