108
Energy=-1.260623e+06 Lattice="9.489663e+00 0.000000e+00 0.000000e+00 -4.748614e+00 8.215851e+00 0.000000e+00 -6.222926e-03 3.821764e-03 1.531429e+01" Stress="-2.350146e-03 4.690913e-04 -4.811299e-04 4.675672e-04 -2.027503e-03 5.404060e-05 -4.988305e-04 5.808955e-05 1.480061e-03" Properties=species:S:1:pos:R:3:forces:R:3 Config_type=AlGaN_super3_18_1_9.xyz
Al 1.567738e+00 8.797951e-01 2.420705e+00 -4.519246e-03 -1.877780e-03 1.636420e-03
Al 1.554288e+00 8.774443e-01 7.517562e+00 1.946979e-04 1.492137e-03 5.670502e-04
Al 1.554768e+00 8.682143e-01 -2.733847e+00 2.412819e-04 -9.870241e-04 1.341407e-04
Al -2.290894e-02 3.605905e+00 2.433400e+00 -2.140147e-03 3.438615e-04 -1.588553e-03
Al -2.673491e-02 3.600996e+00 7.506759e+00 7.125268e-04 9.218028e-04 -9.679660e-04
Al -1.070125e-02 3.597073e+00 -2.722247e+00 -2.244769e-04 -3.012591e-05 2.275577e-03
Al 3.103063e+00 -1.855496e+00 2.366680e+00 1.698922e-02 -3.444619e-04 6.582811e-03
Al 3.125304e+00 -1.875321e+00 7.537056e+00 6.961030e-03 3.101269e-03 -2.446227e-04
Ga 3.144910e+00 -1.859060e+00 -2.726537e+00 -2.894221e-04 2.774437e-04 2.175313e-03
Al -4.784641e+00 8.836840e-01 2.422056e+00 6.514585e-03 -3.421619e-03 1.531486e-03
Al -4.789664e+00 8.798577e-01 7.505986e+00 1.863325e-04 -8.497039e-04 -6.056032e-04
Al -4.782100e+00 8.707904e-01 -2.709222e+00 5.825094e-04 -1.275884e-03 -1.628568e-04
Ga -6.360520e+00 3.592087e+00 2.441379e+00 -5.105037e-04 1.945350e-03 2.772521e-04
Al -6.359443e+00 3.603347e+00 7.511460e+00 -7.543648e-04 -2.677886e-05 -4.087782e-04
Ga -6.359318e+00 3.602654e+00 -2.728400e+00 4.138672e-04 -2.854579e-04 1.337103e-03
Ga -3.199132e+00 -1.872260e+00 2.408726e+00 -2.634395e-04 1.407250e-03 7.846030e-04
Ga -3.186242e+00 -1.866526e+00 7.513497e+00 -2.239644e-04 8.369560e-05 -8.431298e-04
Ga -3.187402e+00 -1.873058e+00 -2.707691e+00 -5.902835e-04 4.728860e-04 5.213782e-04
Ga -1.608384e+00 8.940052e-01 2.411416e+00 6.117709e-04 -9.162710e-04 3.355993e-04
Al -1.600046e+00 8.862040e-01 7.490023e+00 9.417982e-04 -1.044959e-03 -4.537284e-04
Ga -1.597367e+00 8.878027e-01 -2.686723e+00 1.557595e-03 -4.459734e-04 7.544207e-04
Al -3.182580e+00 3.607989e+00 2.447127e+00 -7.520690e-05 -1.661927e-03 -1.445665e-03
Ga -3.193976e+00 3.627457e+00 7.503903e+00 6.998206e-04 -1.200042e-03 -1.321699e-03
Ga -3.187774e+00 3.618534e+00 -2.720716e+00 1.196537e-03 1.394091e-04 1.365058e-03
Ga -2.932068e-03 -1.860027e+00 2.422713e+00 -2.425193e-03 1.020236e-03 5.266583e-04
Al -1.866463e-02 -1.860341e+00 7.508743e+00 -9.585514e-04 8.178306e-04 -8.528134e-04
Al -5.631619e-03 -1.856074e+00 -2.709517e+00 9.649733e-04 8.728243e-04 -6.857491e-05
Al -2.312937e-02 1.799040e+00 4.976546e+00 -1.222084e-03 -1.413733e-03 -1.033111e-03
Al -8.592946e-03 1.799332e+00 -5.274322e+00 -2.605679e-04 -1.141893e-03 4.090734e-04
Al -1.174071e-02 1.778605e+00 -1.584418e-01 -9.266448e-04 1.153275e-03 4.578459e-03
Al 3.148671e+00 -3.695413e+00 4.947229e+00 -9.452078e-04 5.756119e-04 -1.076633e-04
Al 3.164951e+00 -3.688807e+00 -5.270625e+00 8.179331e-04 6.356631e-04 2.932644e-03
Ga 3.167248e+00 -3.709702e+00 -1.230562e-01 -1.388446e-03 8.316665e-04 -2.475114e-03
Ga 1.574265e+00 -9.532376e-01 4.980742e+00 -3.076395e-03 2.709299e-03 4.402350e-04
Al 1.569088e+00 -9.550959e-01 -5.284563e+00 -1.137344e-03 9.881435e-04 1.927487e-03
Al 1.562171e+00 -9.441272e-01 -1.655072e-01 -9.933758e-04 7.804480e-04 2.472107e-03
Al 3.131147e+00 1.799906e+00 4.983689e+00 7.515771e-04 -1.257075e-03 -1.142832e-03
Al 3.129582e+00 1.777830e+00 -5.277327e+00 6.932608e-04 8.312011e-05 1.228443e-03
Ga 3.131054e+00 1.760328e+00 -1.410497e-01 3.836304e-04 8.972180e-04 -3.390652e-04
Al 6.298451e+00 -3.705899e+00 4.986519e+00 9.675196e-04 1.566846e-03 -7.368341e-04
Al 6.300218e+00 -3.709998e+00 -5.283326e+00 2.169115e-04 6.021757e-04 2.045394e-03
Al 6.292848e+00 -3.695155e+00 -1.540198e-01 1.252280e-05 -7.256380e-04 3.517521e-03
Ga 4.717186e+00 -9.529170e-01 4.962428e+00 1.163571e-03 2.803409e-03 -3.128222e-05
Al 4.713572e+00 -9.514613e-01 -5.274699e+00 -1.991593e-04 8.490897e-04 9.172444e-04
Al 4.734806e+00 -9.446316e-01 -1.516077e-01 -6.577175e-04 1.236065e-04 5.319856e-03
Al -3.196970e+00 1.795396e+00 4.973719e+00 -6.803612e-05 -1.173786e-03 -1.055629e-03
Ga -3.196012e+00 1.788311e+00 -5.280516e+00 2.848371e-05 -1.260283e-03 1.985324e-03
Al -3.195925e+00 1.775604e+00 -1.420514e-01 4.338014e-04 5.558000e-04 3.933067e-03
Al -3.362140e-02 -3.692921e+00 4.980522e+00 1.692031e-04 1.352414e-04 -1.243074e-03
Al -2.723875e-02 -3.679475e+00 -5.273888e+00 8.960273e-04 -7.125071e-04 1.578751e-03
Ga -2.134797e-02 -3.678323e+00 -1.394214e-01 5.202639e-04 -1.130388e-03 1.225373e-04
Al -1.598634e+00 -9.441786e-01 4.985684e+00 -1.270021e-03 1.278173e-03 -3.949256e-04
Ga -1.583211e+00 -9.548370e-01 -5.268276e+00 -8.787123e-04 1.013414e-03 1.805849e-03
Al -1.598207e+00 -9.491518e-01 -1.677696e-01 -7.655526e-04 6.250406e-04 3.628408e-03
N 1.551694e+00 9.239170e-01 4.346049e+00 9.508761e-04 -8.938150e-04 -9.078316e-05
N 1.554112e+00 8.763576e-01 -5.874566e+00 7.834163e-04 -8.680633e-04 -6.992007e-04
N 1.519166e+00 8.476679e-01 -8.048903e-01 -5.463143e-04 -1.400595e-03 -1.064345e-03
N -2.099979e-02 3.607467e+00 4.355465e+00 -8.238673e-04 1.236737e-03 3.394241e-04
N -2.177805e-02 3.607968e+00 -5.891606e+00 -4.295607e-04 4.035780e-05 -1.154654e-04
N 1.811489e-02 3.579641e+00 -7.937053e-01 8.483776e-04 -3.547251e-04 -1.901849e-03
N 3.140747e+00 -1.897467e+00 4.292367e+00 -1.611147e-03 -4.567411e-03 -3.776664e-04
N 3.146689e+00 -1.871983e+00 -5.856658e+00 -3.058678e-04 -4.570543e-04 -1.705234e-03
N 3.149957e+00 -1.832131e+00 -7.364052e-01 -4.505365e-04 1.885825e-03 9.634560e-04
N -4.776608e+00 9.264323e-01 4.342265e+00 -2.844079e-04 5.285983e-04 3.969787e-04
N -4.812234e+00 8.550409e-01 -5.901011e+00 -5.709346e-04 -9.823720e-04 -4.205058e-04
N -4.734721e+00 8.511518e-01 -7.870092e-01 1.103049e-03 -9.512185e-04 -1.416872e-03
N -6.359326e+00 3.615284e+00 4.416323e+00 -5.516386e-05 -2.317410e-04 1.484819e-03
N -6.345160e+00 3.606280e+00 -5.871998e+00 -5.199026e-04 6.748590e-05 -5.272884e-04
N -6.386471e+00 3.625086e+00 -7.511407e-01 -1.540957e-03 6.417555e-04 -1.185334e-04
N -3.141868e+00 -1.886596e+00 4.392590e+00 5.894722e-05 -2.383632e-03 1.452537e-03
N -3.215447e+00 -1.888253e+00 -5.833075e+00 -1.058016e-03 -8.844178e-04 3.703401e-04
N -3.185265e+00 -1.872165e+00 -7.184594e-01 1.532473e-04 2.476825e-04 3.875670e-04
N -1.612448e+00 8.839663e-01 4.402678e+00 1.567528e-03 -5.584968e-04 1.757618e-03
N -1.563834e+00 9.032215e-01 -5.911944e+00 1.315103e-03 3.814407e-05 -9.441811e-04
N -1.608912e+00 8.851459e-01 -7.018996e-01 1.432480e-03 -1.130089e-03 1.794954e-04
N -3.198294e+00 3.612729e+00 4.375011e+00 2.007698e-03 1.705048e-03 4.513793e-04
N -3.178410e+00 3.665961e+00 -5.841597e+00 -1.962660e-03 8.486063e-04 1.037551e-03
N -3.184705e+00 3.571444e+00 -7.503203e-01 2.006743e-04 -1.234292e-03 -4.007848e-04
N -5.941918e-02 -1.877294e+00 4.392653e+00 1.234358e-03 -1.460073e-03 1.598315e-03
N 1.855608e-02 -1.888368e+00 -5.898054e+00 2.020535e-03 -2.244655e-04 -1.631836e-03
N -1.424852e-02 -1.821439e+00 -7.878428e-01 9.864881e-04 1.219384e-03 -2.330366e-04
N 2.328505e-02 1.809930e+00 1.784334e+00 8.526071e-04 1.059495e-03 -2.761158e-03
N -1.819375e-02 1.789508e+00 6.897477e+00 -4.754475e-04 -2.858431e-04 -6.143786e-04
N 1.637823e-02 1.806425e+00 -3.349284e+00 -3.348436e-05 1.411713e-04 -1.474892e-03
N 3.136913e+00 -3.690255e+00 1.856087e+00 1.949671e-03 -3.698633e-03 2.637563e-03
N 3.185068e+00 -3.664187e+00 6.879442e+00 -3.760743e-04 1.236473e-04 -2.721040e-03
N 3.197795e+00 -3.716443e+00 -3.348184e+00 -1.083527e-03 -5.670917e-04 -3.791646e-03
N 1.600840e+00 -9.224596e-01 1.775288e+00 -6.785990e-03 4.407927e-03 -5.372242e-03
N 1.573843e+00 -9.508673e-01 6.964745e+00 -3.424005e-03 -2.295284e-04 -5.730170e-04
N 1.529845e+00 -9.356072e-01 -3.359784e+00 -2.486919e-03 1.119793e-03 -1.549430e-04
N 3.138294e+00 1.732583e+00 1.842682e+00 -1.528414e-03 2.145664e-03 -4.641251e-03
N 3.129678e+00 1.786497e+00 6.907779e+00 -2.495915e-04 6.503481e-05 -9.636007e-04
N 3.138583e+00 1.736417e+00 -3.348737e+00 1.594460e-04 -9.562026e-04 -7.161195e-04
N 6.264037e+00 -3.725998e+00 1.774198e+00 -8.653416e-04 5.588184e-04 -3.487375e-03
N 6.298605e+00 -3.738189e+00 6.899009e+00 1.020483e-04 -1.651667e-03 -6.161721e-04
N 6.265346e+00 -3.716281e+00 -3.366540e+00 -5.486864e-05 -5.091205e-04 -2.622435e-03
N 4.693278e+00 -9.138159e-01 1.786040e+00 -5.779816e-03 -2.804988e-03 -2.760704e-03
N 4.679990e+00 -9.302384e-01 6.934748e+00 -4.532292e-03 -8.638142e-04 8.050169e-04
N 4.729877e+00 -9.084058e-01 -3.361607e+00 -2.914798e-04 2.156248e-03 -8.959546e-04
N -3.232659e+00 1.815590e+00 1.794779e+00 -1.921353e-03 4.756624e-04 -2.170918e-03
N -3.199190e+00 1.748550e+00 6.892093e+00 4.099155e-05 -4.669418e-04 -6.382525e-04
N -3.227087e+00 1.760711e+00 -3.311602e+00 -1.068984e-03 -5.525225e-04 -4.883076e-04
N 1.320885e-02 -3.719758e+00 1.831698e+00 1.376908e-03 9.627612e-04 4.952785e-04
N -7.203920e-02 -3.666533e+00 6.891983e+00 4.278597e-04 7.461835e-04 -4.122320e-04
N -2.582574e-02 -3.638605e+00 -3.352932e+00 8.461479e-05 2.973772e-04 -3.045222e-03
N -1.598487e+00 -9.530462e-01 1.754513e+00 2.802511e-04 -1.446577e-04 -4.529925e-03
N -1.566067e+00 -9.264156e-01 6.897391e+00 1.461178e-03 7.799302e-04 6.484257e-05
N -1.560177e+00 -9.683252e-01 -3.297526e+00 6.593831e-04 -1.057903e-04 5.534358e-04
