108
Energy=-1397949.261930 Lattice="9.508733 0.000000 0.000000 -4.756550 8.232367 0.000000 -0.003539 0.002229 15.347900" Stress="-0.000004 -0.000001 -0.000000 -0.000001 -0.000006 0.000000 -0.000000 0.000000 -0.000006" Properties=species:S:1:pos:R:3:forces:R:3
Al 1.573445 0.868252 2.405441 -0.000770 0.000438 0.000072
Al 1.573498 0.880969 7.527744 0.000030 -0.000175 -0.000207
Al 1.567448 0.864584 -2.710857 -0.000230 0.000551 -0.000276
Al -0.009945 3.628060 2.428572 0.000318 -0.000553 -0.000032
Al -0.017686 3.623302 7.515280 -0.000144 -0.000272 -0.000695
Al -0.024406 3.611373 -2.707449 -0.000080 0.000059 0.000000
Al 3.143448 -1.855445 2.402655 0.000098 -0.000034 -0.000236
Al 3.139798 -1.869955 7.547085 0.000055 -0.000150 0.000114
Ga 3.131634 -1.863532 -2.716935 0.000041 -0.000051 -0.000170
Al -4.793183 0.872801 2.406269 -0.000236 -0.000870 0.000332
Al -4.796071 0.883525 7.537859 0.000255 0.000176 -0.000175
Al -4.780937 0.887652 -2.710911 0.000259 0.000016 -0.000143
Ga -6.377353 3.614926 2.401312 -0.000070 0.000095 0.000121
Al -6.365200 3.611866 7.522614 -0.000603 -0.000338 0.000035
Ga -6.363023 3.606006 -2.697481 -0.000031 -0.000069 0.000207
Al -3.194025 -1.876796 2.396403 -0.000226 0.000223 -0.000431
Al -3.196053 -1.880331 7.517837 -0.000162 -0.000098 -0.000024
Ga -3.182951 -1.866258 -2.681314 -0.000156 0.000034 -0.000093
Ga -1.606499 0.868193 2.400404 0.000276 -0.000086 0.000074
Ga -1.601594 0.882366 7.530048 0.000237 -0.000041 0.000130
Al -1.611456 0.877898 -2.698273 0.000212 -0.000191 -0.000185
Ga -3.198846 3.624857 2.391755 0.000102 -0.000138 0.000050
Al -3.201513 3.627019 7.564535 0.000686 0.000232 0.000303
Ga -3.192294 3.610726 -2.719981 0.000129 -0.000138 -0.000047
Al -0.015339 -1.860634 2.380271 -0.000610 0.000394 -0.000277
Al -0.014622 -1.878136 7.550916 0.000503 0.001132 0.000372
Al -0.012172 -1.854720 -2.702676 0.000380 0.000047 0.000035
Al 0.003957 1.799132 4.965150 0.000189 0.000805 0.000146
Ga -0.012731 1.791802 -5.244331 0.000096 -0.000001 0.000186
Ga -0.010306 1.786549 -0.164115 -0.000157 0.000132 0.000106
Ga 3.162253 -3.702784 4.984258 0.000204 0.000211 0.000160
Al 3.140071 -3.704917 -5.286417 -0.000912 0.000168 0.000268
Ga 3.151874 -3.700902 -0.134721 -0.000088 -0.000037 -0.000081
Ga 1.558520 -0.937758 4.974886 0.000035 0.000242 0.000353
Al 1.563451 -0.956996 -5.276219 -0.000323 -0.000126 -0.000770
Al 1.549619 -0.947437 -0.141716 -0.000531 -0.000068 0.000117
Al 3.129678 1.792956 4.977562 0.000065 -0.000795 0.000484
Al 3.154871 1.787632 -5.276590 -0.000014 -0.000609 0.000107
Al 3.150471 1.784008 -0.150476 0.000218 0.000720 -0.000507
Al 6.313507 -3.710009 4.979814 -0.000010 0.000103 0.000033
Ga 6.320871 -3.712600 -5.283545 0.000163 -0.000004 0.000096
Al 6.323289 -3.701751 -0.134837 0.000025 -0.000226 0.000094
Ga 4.729838 -0.950721 4.969710 -0.000166 -0.000085 -0.000147
Ga 4.723128 -0.941943 -5.276457 -0.000224 -0.000026 -0.000056
Ga 4.735098 -0.933199 -0.129265 -0.000082 -0.000077 0.000293
Ga -3.208152 1.792199 4.988434 -0.000054 -0.000226 0.000229
Al -3.208746 1.800863 -5.262836 0.000376 0.000257 -0.000465
Al -3.208858 1.781468 -0.159213 -0.000076 0.000344 -0.000786
Ga -0.037844 -3.695492 4.996410 0.000093 -0.000065 0.000084
Al -0.012099 -3.701608 -5.281277 0.000163 0.000127 -0.000358
Al -0.031797 -3.685942 -0.157173 -0.000006 -0.000004 -0.000113
Ga -1.604455 -0.966818 4.969511 -0.000335 -0.000051 0.000200
Ga -1.589824 -0.959991 -5.252377 0.000002 -0.000096 0.000076
Al -1.594420 -0.961087 -0.154376 -0.000141 0.000308 0.000375
N 1.566543 0.920826 4.328017 0.000180 -0.000101 0.000140
N 1.604167 0.855565 -5.898313 0.000035 0.000108 -0.000059
N 1.610673 0.845764 -0.789541 -0.000044 0.000129 -0.000625
N 0.020740 3.598354 4.347674 -0.000309 0.000155 -0.000048
N -0.063248 3.633231 -5.926196 0.000666 -0.000234 -0.000240
N 0.017369 3.647966 -0.803685 0.000137 0.000085 0.000215
N 3.139705 -1.867284 4.309415 0.000139 -0.000072 -0.000022
N 3.105289 -1.893665 -5.886376 0.000342 0.000139 0.000247
N 3.102702 -1.842591 -0.743866 0.000485 -0.000101 0.000262
N -4.826997 0.905384 4.322362 0.000304 0.000200 -0.000347
N -4.778784 0.926470 -5.900446 -0.000314 -0.000105 -0.000059
N -4.782662 0.926514 -0.795559 0.000108 -0.000159 0.000019
N -6.405219 3.594645 4.390288 -0.000055 0.000677 -0.000167
N -6.320217 3.588998 -5.903019 -0.000055 0.000240 0.000151
N -6.363811 3.616451 -0.708113 -0.000276 -0.000437 0.000139
N -3.193065 -1.920715 4.317536 0.000197 -0.000159 0.000512
N -3.186553 -1.870097 -5.928295 -0.000003 0.000135 -0.000128
N -3.153594 -1.892326 -0.710887 0.000272 0.000111 0.000117
N -1.568599 0.902128 4.381805 -0.000287 -0.000134 -0.000142
N -1.643338 0.901721 -5.850292 -0.000067 -0.000061 0.000082
N -1.652073 0.855142 -0.775985 0.000003 -0.000602 0.000976
N -3.199654 3.625261 4.354883 -0.000130 -0.000255 -0.000302
N -3.193908 3.616126 -5.862457 -0.000007 -0.000034 0.000135
N -3.234220 3.598867 -0.735565 0.000023 -0.000303 0.000103
N -0.017976 -1.870124 4.288533 0.000090 -0.000344 0.000052
N 0.021703 -1.892157 -5.890573 -0.000016 -0.000050 -0.000093
N -0.014417 -1.864522 -0.773018 0.000026 0.000025 -0.000011
N 0.021425 1.816731 1.818962 0.000319 0.000279 0.000069
N 0.027015 1.812934 6.887114 0.000026 0.000090 0.000659
N -0.020510 1.787570 -3.254713 0.000591 -0.000294 0.000015
N 3.195947 -3.676472 1.837394 0.000142 0.000171 -0.000001
N 3.143198 -3.698585 6.970936 -0.000345 0.000279 0.000008
N 3.190768 -3.724649 -3.367832 0.000070 0.000220 -0.000077
N 1.560229 -0.947455 1.785622 0.000149 -0.000079 -0.000132
N 1.561021 -0.951889 6.961808 -0.000600 -0.000348 -0.000039
N 1.518186 -0.928535 -3.359831 -0.000183 -0.000036 0.000983
N 3.144041 1.738495 1.765209 0.000174 0.000184 -0.000011
N 3.144091 1.787215 6.903844 0.000015 0.000071 0.000034
N 3.145824 1.742393 -3.352613 -0.000419 0.000049 0.000098
N 6.271548 -3.678671 1.776478 -0.000079 -0.000240 -0.000116
N 6.317957 -3.699348 6.908023 0.000008 -0.000007 -0.000011
N 6.280603 -3.722274 -3.315404 0.000122 -0.000094 -0.000213
N 4.732098 -0.948717 1.854590 0.000254 0.000221 -0.000531
N 4.725501 -0.952424 6.964712 0.000336 0.000388 -0.000018
N 4.735517 -0.907447 -3.303812 -0.000032 -0.000076 0.000126
N -3.239781 1.759587 1.752329 0.000256 0.000329 0.000229
N -3.238721 1.819261 6.959539 -0.000747 -0.000527 -0.000198
N -3.195030 1.739557 -3.344196 -0.000312 0.000163 0.000207
N -0.029790 -3.648950 1.749877 0.000106 -0.000362 0.000074
N -0.023530 -3.695915 6.980654 0.000680 -0.000187 -0.000555
N -0.026668 -3.646947 -3.359430 -0.000012 -0.000185 0.000013
N -1.605109 -1.000503 1.768586 -0.000277 0.000081 -0.000270
N -1.600700 -1.005339 6.946665 -0.000183 -0.000102 -0.000075
N -1.562683 -0.931980 -3.276792 -0.000277 0.000046 -0.000152
