108
Energy=-2.725439e+06 Lattice="9.686902e+00 0.000000e+00 0.000000e+00 -4.861132e+00 8.381924e+00 0.000000e+00 -5.889440e-02 3.610012e-02 1.572527e+01" Stress="6.010575e-04 -7.868934e-04 -1.844351e-03 -7.927334e-04 3.807838e-04 9.540464e-04 -1.838407e-03 9.344851e-04 1.735906e-03" Properties=species:S:1:pos:R:3:forces:R:3 Config_type=AlGaN_super3_50_0_7.xyz
Al 1.552800e+00 9.333591e-01 2.483946e+00 1.841001e-03 -2.192034e-04 -9.862434e-04
Ga 1.551149e+00 9.131360e-01 7.710534e+00 9.085467e-04 -4.248863e-04 6.292002e-04
Ga 1.609569e+00 8.644083e-01 -2.762105e+00 8.424551e-04 -4.252750e-04 1.332698e-03
Al -4.818803e-02 3.712090e+00 2.476302e+00 -4.002002e-04 -5.687938e-04 2.232759e-03
Ga -6.223400e-02 3.708945e+00 7.704247e+00 9.575898e-04 -7.058336e-05 1.465991e-03
Ga -1.264414e-02 3.658955e+00 -2.785645e+00 7.218049e-05 1.930743e-04 9.140828e-04
Ga 3.182268e+00 -1.863800e+00 2.478050e+00 5.310809e-04 -6.694494e-04 -6.811256e-05
Ga 3.179726e+00 -1.888782e+00 7.718234e+00 5.818298e-04 -2.255830e-04 7.836870e-04
Ga 3.238003e+00 -1.940505e+00 -2.781627e+00 3.266204e-04 -5.544992e-04 9.147073e-04
Ga -4.913697e+00 9.339584e-01 2.485878e+00 1.249324e-03 -6.793855e-04 -1.118053e-03
Ga -4.907636e+00 9.168999e-01 7.714927e+00 4.222723e-04 -6.763674e-04 -2.026878e-04
Ga -4.850491e+00 8.659072e-01 -2.769409e+00 4.173951e-04 -3.712326e-04 -2.987758e-04
Ga -6.542328e+00 3.722428e+00 2.489409e+00 1.255376e-03 -3.732828e-04 -5.035967e-04
Ga -6.530337e+00 3.710355e+00 7.697686e+00 -3.291449e-04 7.891286e-05 4.133654e-04
Ga -6.465386e+00 3.656974e+00 -2.766668e+00 -1.184911e-04 1.421732e-04 3.831996e-04
Ga -3.286019e+00 -1.875538e+00 2.493055e+00 7.438382e-04 -7.230634e-05 -7.244918e-04
Ga -3.278109e+00 -1.887348e+00 7.700080e+00 1.452736e-04 -8.686494e-04 8.286618e-04
Ga -3.219316e+00 -1.929598e+00 -2.771339e+00 2.356035e-05 -3.795734e-04 1.758548e-04
Ga -1.665069e+00 9.435191e-01 2.480262e+00 1.096929e-03 -1.057775e-03 -9.558994e-04
Ga -1.677361e+00 9.203060e-01 7.711057e+00 1.394030e-03 -8.983118e-04 -2.437471e-04
Ga -1.619927e+00 8.696939e-01 -2.762418e+00 1.157046e-03 -6.988827e-04 -1.907471e-05
Ga -3.287580e+00 3.728602e+00 2.482419e+00 1.010993e-03 -2.584405e-04 -1.033740e-03
Ga -3.288903e+00 3.714959e+00 7.722684e+00 4.335915e-04 -3.521950e-04 1.958572e-05
Ga -3.231133e+00 3.666000e+00 -2.781560e+00 9.531672e-04 8.866043e-05 1.268377e-04
Ga -4.783923e-02 -1.849669e+00 2.484361e+00 1.705881e-03 -7.029759e-04 -8.461344e-04
Ga -5.076757e-02 -1.874212e+00 7.714337e+00 7.405230e-04 -7.636446e-04 2.501793e-04
Ga 6.465978e-03 -1.924900e+00 -2.767630e+00 7.095524e-04 -6.307884e-04 1.892308e-05
Ga -4.638022e-02 1.859465e+00 5.068977e+00 -9.976549e-04 1.100169e-03 1.451938e-03
Ga -4.834443e-03 1.807306e+00 -5.393775e+00 -6.050166e-04 8.225551e-04 5.045551e-04
Ga -1.349901e-03 1.801176e+00 -1.283406e-01 -8.617638e-04 -7.736248e-04 2.021964e-03
Ga 3.201863e+00 -3.741987e+00 5.079245e+00 -4.301032e-04 1.163509e-05 4.479783e-04
Al 3.242721e+00 -3.789704e+00 -5.398689e+00 4.767265e-04 1.105541e-03 7.244550e-04
Ga 3.248724e+00 -3.808333e+00 -1.347282e-01 -3.075206e-03 3.370202e-03 1.279009e-03
Ga 1.571104e+00 -9.412864e-01 5.090318e+00 -1.176244e-03 1.432712e-03 -4.574077e-05
Ga 1.632112e+00 -1.003698e+00 -5.388617e+00 -1.154863e-03 1.444847e-03 -2.646868e-04
Ga 1.629091e+00 -1.011816e+00 -1.341803e-01 -3.330216e-03 4.935429e-03 1.609736e-03
Ga 3.156653e+00 1.855122e+00 5.083802e+00 -1.117393e-04 6.055848e-04 6.902587e-04
Ga 3.223368e+00 1.802800e+00 -5.394210e+00 -2.102494e-04 6.767481e-04 8.633824e-04
Ga 3.224678e+00 1.781448e+00 -1.278386e-01 -2.878644e-03 2.883157e-03 1.286902e-03
Al 6.404157e+00 -3.740328e+00 5.081987e+00 -6.611561e-04 -5.807664e-05 9.584707e-04
Ga 6.459595e+00 -3.786706e+00 -5.395726e+00 1.670577e-04 3.530822e-06 5.020623e-04
Ga 6.465537e+00 -3.805629e+00 -1.405310e-01 -1.579687e-03 3.071735e-03 1.153524e-03
Ga 4.798190e+00 -9.525257e-01 5.100933e+00 -5.642779e-04 1.278443e-03 -2.821259e-04
Ga 4.849432e+00 -1.003710e+00 -5.393698e+00 -6.608995e-04 1.224298e-03 -3.564154e-04
Ga 4.855088e+00 -1.014649e+00 -1.465274e-01 -2.457227e-03 3.520100e-03 1.701799e-03
Ga -3.291026e+00 1.855992e+00 5.097974e+00 -5.359131e-04 6.066090e-04 7.637252e-04
Ga -3.226992e+00 1.812164e+00 -5.392876e+00 -9.322707e-04 5.167954e-04 6.966132e-04
Ga -3.234415e+00 1.787848e+00 -1.525607e-01 -2.784061e-03 2.946294e-03 3.213510e-03
Ga -5.517519e-02 -3.732490e+00 5.097213e+00 -2.769432e-04 -1.123593e-04 3.015506e-04
Ga 1.848925e-02 -3.782658e+00 -5.394863e+00 -7.629747e-04 -8.343671e-05 2.611050e-04
Ga 1.386098e-02 -3.802405e+00 -1.462260e-01 -2.833984e-03 2.894623e-03 1.670533e-03
Ga -1.667913e+00 -9.485107e-01 5.095880e+00 -1.187318e-03 1.209755e-03 -2.793342e-04
Ga -1.606052e+00 -9.901743e-01 -5.392665e+00 -1.069073e-03 6.994031e-04 3.657454e-04
Ga -1.604241e+00 -1.009709e+00 -1.424054e-01 -3.181813e-03 3.615903e-03 2.590245e-03
N 1.554070e+00 9.195381e-01 4.405796e+00 9.448183e-04 -1.147676e-03 -1.338321e-03
N 1.608701e+00 8.712888e-01 -6.031063e+00 7.322390e-04 -1.096263e-03 -2.423795e-04
N 1.606749e+00 8.594241e-01 -7.723535e-01 3.211254e-04 -3.507787e-04 -2.256993e-03
N -2.086812e-02 3.737434e+00 4.416124e+00 1.476034e-03 2.708893e-04 -2.094726e-03
N -4.460655e-02 3.688973e+00 -6.023446e+00 -7.353697e-04 1.425770e-04 -4.040603e-04
N -1.015305e-02 3.653766e+00 -7.977996e-01 4.597049e-04 -6.528780e-05 2.627873e-04
N 3.181004e+00 -1.871866e+00 4.456314e+00 6.256237e-04 -8.036529e-04 -1.128899e-04
N 3.237407e+00 -1.970132e+00 -6.015384e+00 4.488086e-04 -1.887448e-03 2.954684e-05
N 3.236183e+00 -1.944233e+00 -7.908288e-01 1.289290e-04 -1.611175e-04 1.110883e-03
N -4.906341e+00 9.233057e-01 4.463999e+00 7.357061e-04 -1.084679e-03 1.218843e-04
N -4.847468e+00 8.743346e-01 -6.028225e+00 7.996582e-04 -9.024019e-04 -3.094625e-05
N -4.852095e+00 8.559643e-01 -7.865493e-01 4.946188e-04 1.079944e-04 9.328440e-04
N -6.564122e+00 3.742418e+00 4.478146e+00 -4.689559e-04 2.066938e-04 -1.282273e-04
N -6.467052e+00 3.669663e+00 -6.038871e+00 2.519848e-04 -1.569632e-04 -6.432227e-04
N -6.466470e+00 3.647701e+00 -7.797073e-01 2.791186e-04 3.175442e-04 4.359458e-04
N -3.280521e+00 -1.917747e+00 4.479549e+00 5.613530e-04 -1.858130e-03 1.359396e-04
N -3.219832e+00 -1.923554e+00 -6.038742e+00 3.551623e-04 -3.840913e-04 -6.424537e-04
N -3.219779e+00 -1.939059e+00 -7.888177e-01 4.325493e-04 -1.485890e-04 8.456988e-04
N -1.679064e+00 9.276306e-01 4.460035e+00 1.443295e-03 -1.281004e-03 -4.058415e-06
N -1.620283e+00 8.773917e-01 -6.032339e+00 1.180464e-03 -9.864329e-04 -4.967406e-04
N -1.619126e+00 8.641357e-01 -7.749634e-01 1.906800e-03 -4.936478e-04 -2.141267e-04
N -3.295885e+00 3.722047e+00 4.460275e+00 6.617766e-04 -4.698960e-04 -1.389002e-04
N -3.193276e+00 3.696329e+00 -6.011635e+00 3.422108e-04 -7.489663e-04 -5.254509e-04
N -3.232629e+00 3.657031e+00 -7.938001e-01 5.941332e-04 8.552518e-05 5.709328e-04
N -5.108034e-02 -1.865973e+00 4.461563e+00 9.663294e-04 -1.097291e-03 -6.235784e-05
N 6.550387e-03 -1.915516e+00 -6.029954e+00 9.025324e-04 -8.787238e-04 -3.133051e-04
N 7.155253e-03 -1.932323e+00 -7.844240e-01 1.067717e-03 -6.006687e-04 1.078343e-03
N -6.666704e-03 1.871360e+00 1.878888e+00 -1.067375e-03 2.995149e-03 -7.027413e-04
N -5.569387e-02 1.844296e+00 7.061628e+00 -9.228956e-04 6.195657e-04 -6.878131e-04
N -1.244041e-03 1.791264e+00 -3.408581e+00 -7.107872e-04 5.167290e-04 -7.699581e-04
N 3.231000e+00 -3.752211e+00 1.862533e+00 2.189637e-03 -3.613005e-03 -9.190051e-04
N 3.187998e+00 -3.748268e+00 7.062774e+00 -8.058664e-04 6.248230e-04 -3.652896e-04
N 3.243595e+00 -3.796139e+00 -3.470051e+00 -7.166007e-04 4.813285e-04 -1.023052e-03
N 1.571984e+00 -8.809770e-01 1.865275e+00 2.585228e-04 -3.980934e-03 -3.143394e-03
N 1.571033e+00 -9.517037e-01 7.074620e+00 -9.499767e-04 7.531974e-04 -4.761471e-04
N 1.626606e+00 -1.002071e+00 -3.406541e+00 -9.808901e-04 1.088590e-03 -1.244258e-04
N 3.127045e+00 1.841762e+00 1.867276e+00 1.186060e-03 -2.453496e-03 -1.260129e-03
N 3.164123e+00 1.842238e+00 7.068433e+00 5.026121e-05 3.713690e-04 -5.701223e-04
N 3.223498e+00 1.795265e+00 -3.408520e+00 -2.053226e-04 1.778487e-04 -6.486732e-04
N 6.369393e+00 -3.746079e+00 1.849693e+00 6.643558e-04 -3.612833e-03 -8.989193e-04
N 6.405602e+00 -3.746155e+00 7.015930e+00 -2.313839e-05 2.551431e-04 -1.867886e-03
N 6.469179e+00 -3.793467e+00 -3.411583e+00 1.073431e-04 9.435704e-05 -2.550508e-04
N 4.797318e+00 -9.297763e-01 1.842471e+00 1.091160e-03 -2.609047e-03 -1.939476e-03
N 4.792590e+00 -9.510153e-01 7.081537e+00 -6.146642e-04 7.177504e-04 -9.160741e-05
N 4.852845e+00 -1.000583e+00 -3.410059e+00 -4.734694e-04 5.923577e-04 -1.294231e-04
N -3.291311e+00 1.866103e+00 1.841019e+00 1.367788e-03 -2.462939e-03 -2.593303e-03
N -3.291103e+00 1.849984e+00 7.081236e+00 -6.091109e-04 5.240762e-04 -1.813557e-04
N -3.232045e+00 1.796939e+00 -3.408109e+00 -6.026531e-04 2.046852e-04 2.088111e-05
N -5.097674e-02 -3.721127e+00 1.845898e+00 1.370263e-03 -2.950209e-03 -1.545990e-03
N -4.511570e-02 -3.741038e+00 7.079938e+00 -1.513535e-04 8.325455e-05 3.063855e-05
N 9.383122e-03 -3.790110e+00 -3.409519e+00 -4.192796e-04 1.408884e-04 -1.646471e-04
N -1.669631e+00 -9.308225e-01 1.850814e+00 8.155467e-04 -2.075742e-03 -2.696785e-03
N -1.663184e+00 -9.471097e-01 7.075071e+00 -8.566171e-04 7.309328e-04 -1.020617e-04
N -1.605048e+00 -9.957416e-01 -3.408191e+00 -8.960107e-04 7.493377e-04 -8.984423e-05
