108
Energy=-8.944190e+05 Lattice="9.452880e+00 0.000000e+00 0.000000e+00 -4.729434e+00 8.179674e+00 0.000000e+00 2.203967e-04 -3.802047e-04 1.521422e+01" Stress="7.268276e-04 -3.674808e-04 2.497383e-04 -3.796092e-04 2.380011e-04 1.104601e-04 2.473859e-04 1.114655e-04 2.457328e-03" Properties=species:S:1:pos:R:3:forces:R:3 Config_type=AlGaN_super3_10_1_19.xyz
Al 1.560817e+00 8.722161e-01 2.412000e+00 -2.488031e-04 -3.707770e-03 8.209578e-04
Al 1.551984e+00 8.697861e-01 7.458044e+00 -2.109365e-05 1.142834e-04 2.073318e-04
Al 1.549512e+00 8.658126e-01 -2.716971e+00 1.070373e-04 -6.745201e-05 -7.211057e-04
Al -2.253149e-02 3.603619e+00 2.405038e+00 3.501217e-04 -2.269066e-04 -3.067555e-04
Al -1.789560e-02 3.592863e+00 7.437047e+00 -4.870084e-06 -1.536220e-04 -1.875809e-05
Al -1.271835e-02 3.589902e+00 -2.682685e+00 2.713184e-04 -7.210614e-04 4.817800e-04
Al 3.135301e+00 -1.857357e+00 2.385182e+00 -8.964110e-04 6.499421e-04 -1.465574e-03
Al 3.124920e+00 -1.855011e+00 7.456610e+00 -6.556994e-04 -2.843186e-04 2.727740e-04
Al 3.125695e+00 -1.842189e+00 -2.680940e+00 -2.062204e-04 7.838400e-04 6.637663e-04
Al -4.753520e+00 8.690906e-01 2.397617e+00 -1.119936e-03 -3.015852e-03 1.961331e-03
Al -4.756869e+00 8.732267e-01 7.474675e+00 -5.194765e-04 -1.443311e-04 4.076246e-04
Al -4.758969e+00 8.638407e-01 -2.709355e+00 3.321683e-04 7.994946e-04 -1.632235e-03
Al -6.328263e+00 3.592263e+00 2.407055e+00 -2.438191e-03 -1.720355e-03 2.357647e-04
Al -6.325969e+00 3.596085e+00 7.451924e+00 -1.978429e-04 -1.831034e-05 -7.901913e-06
Al -6.331761e+00 3.595088e+00 -2.701342e+00 -5.363040e-06 -1.638480e-04 6.706950e-04
Al -3.170627e+00 -1.857168e+00 2.374580e+00 -1.418646e-03 1.158529e-04 5.725661e-04
Al -3.171445e+00 -1.863565e+00 7.461755e+00 -4.680481e-05 1.812248e-05 -1.927626e-04
Ga -3.184026e+00 -1.861632e+00 -2.674519e+00 1.542431e-04 1.420432e-04 2.321668e-05
Al -1.591396e+00 8.740394e-01 2.401697e+00 -2.768105e-03 -3.101354e-03 5.350940e-03
Al -1.592755e+00 8.752906e-01 7.454878e+00 1.075844e-03 -5.956119e-04 2.082899e-04
Al -1.592463e+00 8.770788e-01 -2.700059e+00 7.925432e-04 -2.015762e-04 -2.255453e-04
Al -3.168505e+00 3.606178e+00 2.392703e+00 -2.094287e-03 -5.551487e-04 -1.540786e-03
Al -3.179282e+00 3.601471e+00 7.463123e+00 7.671278e-06 -2.841770e-04 8.452549e-04
Ga -3.180870e+00 3.597944e+00 -2.682556e+00 -4.294681e-04 -1.237330e-04 -4.315510e-04
Ga -2.941290e-02 -1.852044e+00 2.392565e+00 8.925163e-04 6.523273e-04 6.791438e-04
Al -1.425325e-02 -1.858782e+00 7.438930e+00 -1.324419e-04 1.800680e-05 2.982345e-04
Al -1.187647e-02 -1.853339e+00 -2.674530e+00 3.419489e-04 -2.934057e-05 4.667367e-04
Al -1.213816e-02 1.777431e+00 4.923181e+00 -9.058900e-05 -3.134077e-04 3.494953e-04
Al -1.508429e-02 1.783766e+00 -5.230871e+00 3.742786e-04 -5.949352e-04 4.747877e-04
Ga -2.005234e-02 1.772850e+00 -1.344813e-01 1.063089e-04 4.622461e-04 -1.238334e-03
Al 3.128379e+00 -3.671293e+00 4.928582e+00 5.659989e-04 4.954432e-06 4.936563e-04
Ga 3.136881e+00 -3.672784e+00 -5.228496e+00 5.541368e-05 8.004730e-05 -2.357093e-04
Al 3.139682e+00 -3.657589e+00 -1.447253e-01 1.128648e-04 5.812142e-04 6.995041e-04
Al 1.554116e+00 -9.446100e-01 4.936186e+00 -1.393288e-03 1.470996e-04 -2.683115e-04
Al 1.555270e+00 -9.455209e-01 -5.229239e+00 1.346170e-04 1.783976e-04 2.323717e-04
Al 1.560154e+00 -9.570413e-01 -1.544154e-01 -3.776353e-04 -1.284977e-03 -2.445272e-03
Al 3.113831e+00 1.785912e+00 4.933898e+00 1.595841e-04 -1.847697e-04 5.321694e-05
Al 3.125665e+00 1.781862e+00 -5.230489e+00 9.345297e-05 -2.037116e-04 5.135916e-05
Ga 3.123650e+00 1.775933e+00 -1.493666e-01 4.801672e-05 4.038147e-04 -4.370237e-04
Al 6.287990e+00 -3.677527e+00 4.922111e+00 9.122232e-05 -4.714030e-04 9.393889e-05
Al 6.285908e+00 -3.687861e+00 -5.236889e+00 -8.298092e-04 -2.526101e-04 -1.431235e-04
Al 6.285126e+00 -3.672603e+00 -1.365913e-01 -1.247707e-03 1.316773e-03 1.762447e-03
Ga 4.702238e+00 -9.593181e-01 4.930711e+00 2.104830e-04 4.633605e-04 -3.230000e-04
Al 4.695396e+00 -9.429812e-01 -5.237644e+00 -1.038291e-03 5.645378e-04 -2.960742e-04
Al 4.699907e+00 -9.595132e-01 -1.362755e-01 -1.672670e-03 3.144651e-04 1.223422e-03
Ga -3.170815e+00 1.787781e+00 4.933038e+00 2.052975e-04 -6.601813e-04 -3.549064e-04
Al -3.182507e+00 1.774874e+00 -5.238780e+00 -2.936586e-05 -3.395605e-04 2.003091e-04
Ga -3.175332e+00 1.765463e+00 -1.264063e-01 -1.155176e-04 5.254337e-04 2.271852e-04
Al -2.455956e-02 -3.673532e+00 4.935424e+00 -4.702816e-04 5.041126e-04 6.755079e-05
Al -3.012052e-02 -3.675924e+00 -5.237853e+00 -1.061379e-03 2.108912e-04 1.494782e-03
Al -3.236927e-02 -3.659964e+00 -1.363881e-01 1.085163e-04 -6.299314e-04 -3.423977e-03
Al -1.593469e+00 -9.528183e-01 4.943262e+00 4.235179e-04 -5.290675e-04 3.422281e-04
Ga -1.588953e+00 -9.484889e-01 -5.231287e+00 3.461349e-05 1.319011e-04 1.022754e-04
Al -1.593407e+00 -9.511500e-01 -1.474375e-01 -6.142717e-04 -1.865428e-03 -2.227761e-03
N 1.555183e+00 8.665871e-01 4.330425e+00 2.528355e-04 -1.972795e-04 -2.883116e-04
N 1.550829e+00 8.695939e-01 -5.828309e+00 2.366093e-04 -9.557439e-05 -2.607475e-05
N 1.549922e+00 8.200385e-01 -8.079647e-01 2.581089e-05 9.205061e-04 3.874509e-04
N -2.419794e-02 3.601563e+00 4.329044e+00 -1.682522e-04 -9.035878e-05 -1.538276e-04
N 1.580515e-02 3.568820e+00 -5.865442e+00 1.065034e-03 1.473769e-03 9.310429e-05
N -1.923318e-02 3.638456e+00 -7.602203e-01 6.324978e-04 3.572091e-05 -1.037468e-03
N 3.085507e+00 -1.879692e+00 4.299634e+00 -1.884236e-05 -2.547378e-05 -1.456356e-04
N 3.122520e+00 -1.811689e+00 -5.853806e+00 3.878091e-04 3.012689e-04 3.818069e-04
N 3.132688e+00 -1.852942e+00 -7.558738e-01 1.078401e-05 -2.074527e-04 -2.506928e-05
N -4.793431e+00 8.920323e-01 4.300367e+00 -1.252735e-04 5.133643e-05 5.916891e-05
N -4.756122e+00 8.719782e-01 -5.825598e+00 1.061037e-05 8.047934e-05 8.642899e-05
N -4.750203e+00 8.190231e-01 -7.998221e-01 1.386682e-04 1.684933e-04 1.593123e-03
N -6.323821e+00 3.597461e+00 4.327674e+00 2.089472e-04 -1.696822e-04 -2.767696e-05
N -6.325352e+00 3.595226e+00 -5.841850e+00 -3.168284e-04 1.785499e-04 1.278565e-04
N -6.330774e+00 3.643636e+00 -7.756463e-01 1.091988e-03 -2.070532e-04 -1.975372e-03
N -3.127354e+00 -1.880826e+00 4.299579e+00 -1.480488e-04 6.209208e-04 -1.282745e-03
N -3.213273e+00 -1.880703e+00 -5.840227e+00 5.454272e-04 -1.210729e-03 2.006063e-04
N -3.181413e+00 -1.854596e+00 -6.904572e-01 2.207700e-03 -2.139227e-03 -6.765118e-04
N -1.555527e+00 8.393859e-01 4.324407e+00 -1.939151e-04 1.291015e-03 -2.508021e-03
N -1.591409e+00 9.208342e-01 -5.848796e+00 -6.981489e-04 -4.513053e-04 -1.191815e-04
N -1.598687e+00 8.261734e-01 -7.934233e-01 1.964036e-04 1.571210e-03 4.795850e-04
N -3.173418e+00 3.651179e+00 4.308594e+00 -8.504562e-04 -3.978067e-06 -1.463419e-03
N -3.219655e+00 3.577317e+00 -5.832891e+00 1.330533e-03 1.370350e-05 -2.068119e-03
N -3.174480e+00 3.639895e+00 -7.061747e-01 -1.252286e-03 4.450243e-04 2.883399e-04
N -2.431597e-02 -1.854714e+00 4.374767e+00 1.191652e-03 -2.877281e-04 7.436419e-04
N 2.328855e-02 -1.881757e+00 -5.860893e+00 7.273045e-05 5.059490e-04 -9.047243e-04
N -1.827672e-02 -1.855907e+00 -7.462868e-01 -1.961068e-04 -4.443883e-04 -3.986483e-04
N -2.070419e-02 1.769781e+00 1.849218e+00 1.651783e-03 4.372927e-03 -1.106614e-03
N -1.894950e-02 1.775639e+00 6.841776e+00 8.392595e-06 1.513029e-04 -7.237697e-06
N -2.447764e-02 1.784046e+00 -3.305089e+00 2.693993e-05 1.028998e-04 1.377254e-04
N 3.138635e+00 -3.672791e+00 1.781328e+00 -7.300743e-04 -8.106676e-04 2.667505e-04
N 3.128742e+00 -3.674596e+00 6.853961e+00 -1.991403e-04 -6.962695e-05 5.258641e-05
N 3.175975e+00 -3.647707e+00 -3.255572e+00 -4.479423e-04 -4.331881e-04 -2.776656e-04
N 1.589522e+00 -9.263990e-01 1.749810e+00 1.401390e-03 1.693924e-03 5.120402e-03
N 1.559838e+00 -9.437755e-01 6.849618e+00 -3.956106e-04 1.786802e-05 -1.691606e-04
N 1.552412e+00 -9.554328e-01 -3.303345e+00 -2.073747e-04 7.293929e-05 -1.606012e-04
N 3.125241e+00 1.770478e+00 1.833156e+00 -6.871850e-05 3.475983e-03 -8.029954e-04
N 3.126134e+00 1.778088e+00 6.856710e+00 1.025609e-04 8.172112e-07 5.738028e-05
N 3.126481e+00 1.781907e+00 -3.304582e+00 2.032585e-06 2.385729e-04 -7.050085e-05
N 6.284317e+00 -3.682687e+00 1.790697e+00 -3.876051e-04 -4.745426e-04 4.478794e-05
N 6.284693e+00 -3.673101e+00 6.841125e+00 8.350485e-06 -8.907347e-05 1.403541e-04
N 6.277172e+00 -3.721362e+00 -3.320273e+00 5.580436e-04 1.550899e-06 -6.376951e-04
N 4.704656e+00 -9.457432e-01 1.789126e+00 -7.102883e-04 -2.118255e-04 1.213988e-04
N 4.704555e+00 -9.481214e-01 6.906172e+00 6.913044e-04 1.426636e-04 -3.626267e-04
N 4.661140e+00 -9.291481e-01 -3.324271e+00 1.333727e-04 -4.474733e-04 9.685508e-05
N -3.176175e+00 1.766839e+00 1.858268e+00 1.958285e-03 5.100068e-03 -1.832074e-03
N -3.177310e+00 1.776084e+00 6.909800e+00 -1.152947e-04 1.338948e-03 -2.615172e-04
N -3.173195e+00 1.733991e+00 -3.320749e+00 -9.289648e-04 -3.266290e-04 2.758494e-04
N -4.457509e-02 -3.719233e+00 1.764129e+00 6.135283e-03 -8.892509e-04 3.868189e-03
N -2.188773e-02 -3.679816e+00 6.850335e+00 2.060330e-04 -7.434251e-05 8.853369e-05
N -6.451541e-02 -3.645770e+00 -3.315164e+00 -1.724201e-04 -1.886232e-04 -1.071897e-03
N -1.638115e+00 -9.122455e-01 1.758262e+00 1.158459e-03 -1.224871e-03 1.157939e-03
N -1.600990e+00 -9.471840e-01 6.864131e+00 -5.481156e-05 -1.439464e-04 3.292938e-04
N -1.556651e+00 -9.293177e-01 -3.258313e+00 -1.670008e-04 -1.925278e-04 -4.362349e-04
