108
Energy=-1672602.230915 Lattice="9.547914 0.000000 0.000000 -4.782391 8.266006 0.000000 -0.003016 0.006163 15.419456" Stress="-0.000001 -0.000003 -0.000000 -0.000003 -0.000000 0.000001 -0.000000 0.000001 -0.000003" Properties=species:S:1:pos:R:3:forces:R:3
Al 1.581286 0.885776 2.390686 -0.002116 0.002566 -0.000331
Al 1.570439 0.906442 7.577379 -0.000158 -0.001250 -0.000082
Al 1.558588 0.886073 -2.713562 0.000139 0.000040 0.000725
Al -0.015014 3.616229 2.408847 -0.000030 -0.000039 0.000551
Al -0.011596 3.612599 7.563590 -0.000345 0.000119 0.001214
Al -0.027918 3.610540 -2.713527 0.000040 0.000228 0.000636
Al 3.173137 -1.858477 2.402534 -0.001099 -0.000880 -0.000738
Ga 3.173357 -1.857716 7.574298 0.000002 -0.000575 0.001146
Ga 3.168912 -1.872924 -2.712597 0.000115 -0.000198 0.000945
Al -4.804843 0.882625 2.389804 -0.002362 -0.002265 0.001459
Al -4.816246 0.883912 7.557927 0.000313 0.000133 0.001271
Ga -4.801855 0.876103 -2.702337 0.000591 -0.000387 0.001219
Al -6.397426 3.615498 2.389711 0.000003 0.000027 0.000294
Al -6.404581 3.614696 7.576214 0.000006 -0.000155 0.000843
Ga -6.399324 3.616966 -2.701320 -0.000050 0.000363 0.000164
Ga -3.234863 -1.879080 2.423473 0.000525 -0.000177 -0.000141
Ga -3.221496 -1.875844 7.560789 0.000211 -0.000123 0.000098
Al -3.216929 -1.872985 -2.710312 0.000255 0.000036 0.000640
Ga -1.611006 0.908616 2.413041 0.001265 -0.000145 0.000457
Ga -1.610053 0.906985 7.557974 0.000925 -0.000415 0.000651
Al -1.604350 0.900366 -2.704325 0.000424 -0.000495 0.000455
Ga -3.217355 3.627116 2.409779 0.000968 0.000335 0.000349
Ga -3.217481 3.624821 7.547970 0.000792 -0.000085 0.000514
Al -3.200248 3.622899 -2.685321 0.000243 -0.000110 0.000454
Ga -0.006000 -1.876577 2.392127 0.000106 -0.000127 0.000041
Ga -0.016499 -1.867283 7.584659 0.000595 -0.000180 0.000296
Ga -0.009967 -1.867799 -2.696732 0.000298 0.000073 -0.000003
Al -0.020836 1.802603 4.982352 -0.000116 0.000005 0.000708
Al -0.002083 1.785512 -5.269632 -0.000167 0.000771 0.000712
Al -0.014568 1.794879 -0.168963 -0.000368 -0.001263 0.001226
Ga 3.181942 -3.718315 4.971258 -0.000293 0.000607 -0.000060
Ga 3.177618 -3.722009 -5.266351 -0.000492 0.000349 0.000345
Ga 3.162924 -3.719971 -0.147276 -0.000334 0.000822 0.000392
Ga 1.586837 -0.938545 4.974493 -0.001002 0.000590 0.001317
Al 1.583992 -0.931563 -5.277276 -0.000704 0.000159 0.000398
Al 1.581949 -0.936703 -0.138839 0.000608 -0.000467 -0.001114
Ga 3.158509 1.788403 4.972739 0.000065 -0.000218 0.001598
Al 3.143844 1.768406 -5.294875 0.000494 0.001994 -0.003300
Al 3.154570 1.783995 -0.132602 0.000116 -0.000879 0.001055
Ga 6.337859 -3.728549 4.988822 0.000218 -0.000052 0.000610
Ga 6.338232 -3.729507 -5.278853 0.000629 0.000066 0.000304
Ga 6.341486 -3.722691 -0.148358 0.000075 0.000409 0.000119
Al 4.747381 -0.936302 4.973478 -0.000124 0.000289 0.000650
Al 4.744945 -0.945726 -5.279425 0.000119 0.000022 0.000748
Al 4.744000 -0.942534 -0.141076 -0.000691 -0.000261 0.001163
Al -3.220024 1.783221 4.982735 -0.000486 -0.000211 0.000961
Ga -3.216410 1.785493 -5.268629 -0.000393 -0.000146 0.000946
Al -3.217801 1.797261 -0.163052 0.000589 0.000034 -0.000485
Ga -0.030363 -3.722044 4.990020 -0.000278 0.000197 0.000693
Ga -0.019745 -3.722852 -5.272511 -0.000559 -0.000138 0.000313
Al -0.013491 -3.728505 -0.150367 0.000185 0.000350 0.000353
Ga -1.618860 -0.937144 4.989350 -0.000570 0.000320 -0.000017
Ga -1.611820 -0.946913 -5.251502 -0.000672 -0.000053 -0.000083
Ga -1.615801 -0.942240 -0.168398 -0.000560 0.000458 0.000344
N 1.521658 0.909133 4.309618 0.000642 -0.000238 -0.000223
N 1.560104 0.879528 -5.908828 0.000506 -0.000271 -0.001042
N 1.568998 0.882254 -0.773993 0.000794 -0.000241 -0.001084
N -0.023039 3.580452 4.322820 -0.000151 -0.000361 -0.000832
N -0.025567 3.573752 -5.932710 -0.000196 -0.000867 -0.000786
N -0.026279 3.582723 -0.804813 -0.000113 0.000248 -0.000676
N 3.205053 -1.847313 4.322072 0.000146 -0.000486 0.000430
N 3.165249 -1.834460 -5.854652 -0.000144 0.000219 -0.000570
N 3.163161 -1.827822 -0.732277 -0.000605 0.000537 -0.000290
N -4.763892 0.858800 4.325848 0.001225 0.000377 -0.001454
N -4.837818 0.851944 -5.926358 -0.000309 -0.000196 -0.000162
N -4.806900 0.878324 -0.715972 -0.000480 0.000268 -0.000249
N -6.394592 3.630007 4.303173 0.000011 -0.000015 -0.001010
N -6.393038 3.581116 -5.925061 -0.000111 -0.001416 0.000605
N -6.354586 3.599282 -0.724674 0.000216 -0.000069 -0.000221
N -3.249045 -1.854924 4.396827 -0.000370 -0.000037 0.000031
N -3.244627 -1.854676 -5.881171 -0.000341 0.000274 -0.000288
N -3.255361 -1.852958 -0.794029 -0.000143 0.000003 -0.000400
N -1.617799 0.940929 4.401789 0.000803 0.000066 -0.000588
N -1.572619 0.909746 -5.879527 0.000657 -0.000304 -0.000536
N -1.613256 0.938539 -0.785168 0.000270 0.000125 -0.000222
N -3.214904 3.588027 4.388488 0.000529 -0.000691 -0.000221
N -3.206509 3.628141 -5.906153 0.000556 -0.000158 -0.000807
N -3.249549 3.611574 -0.769805 0.000187 -0.000442 -0.000065
N -0.018162 -1.872667 4.362515 0.000757 -0.000404 -0.000547
N 0.020624 -1.850784 -5.858314 0.000931 0.000033 -0.000234
N 0.028454 -1.897653 -0.717955 0.000622 -0.000111 0.000636
N 0.018466 1.819610 1.752313 0.001132 -0.000742 0.000297
N 0.025337 1.820550 6.910947 0.000020 0.000311 -0.000769
N -0.015659 1.791077 -3.335039 -0.000267 0.000422 -0.000777
N 3.210659 -3.692670 1.839625 -0.000899 0.000199 -0.000417
N 3.213498 -3.732155 6.957721 0.000138 0.000342 -0.000536
N 3.166031 -3.766429 -3.280123 0.000038 0.000107 -0.000505
N 1.618128 -0.926580 1.777295 -0.000091 -0.000495 0.000470
N 1.576682 -0.901166 6.958773 -0.000582 0.001365 -0.000337
N 1.575054 -0.904484 -3.360711 -0.000139 0.000411 -0.000553
N 3.159841 1.792778 1.796167 -0.000234 -0.000170 -0.001060
N 3.155175 1.798251 6.980610 -0.000246 -0.000207 -0.000711
N 3.117240 1.767352 -3.379903 -0.000750 -0.000676 0.001277
N 6.342564 -3.757585 1.828729 0.000208 -0.000254 -0.000337
N 6.346613 -3.763396 6.979252 0.000191 -0.000158 -0.000495
N 6.306000 -3.695344 -3.291407 -0.000353 0.000124 -0.000238
N 4.707023 -0.935262 1.775183 0.002412 0.002499 -0.001113
N 4.747808 -0.902115 6.894695 -0.000426 0.000524 -0.001177
N 4.793682 -0.974225 -3.367813 -0.000143 0.000079 -0.001120
N -3.247791 1.773916 1.750358 0.000333 0.000150 -0.000634
N -3.257840 1.769089 6.904678 -0.000643 -0.000379 -0.000935
N -3.171991 1.817573 -3.285324 0.000120 0.000183 -0.000652
N -0.057521 -3.739071 1.759836 -0.000486 -0.000217 -0.000659
N -0.071922 -3.731592 6.966823 -0.000506 -0.000033 -0.000487
N 0.021620 -3.741748 -3.299920 0.000274 -0.000111 -0.000200
N -1.622098 -0.950347 1.801157 -0.000496 0.000169 -0.000434
N -1.611882 -0.951089 6.955018 -0.000722 0.000362 -0.000267
N -1.650918 -0.930954 -3.267054 -0.000718 0.000286 0.000154
