108
Energy=-848643.541020 Lattice="9.445530 0.000000 0.000000 -4.724413 8.177004 0.000000 -0.008806 -0.005402 15.189845" Stress="0.000003 -0.000000 -0.000002 -0.000000 -0.000001 -0.000001 -0.000002 -0.000001 0.000005" Properties=species:S:1:pos:R:3:forces:R:3
Al 1.551702 0.869138 2.422399 -0.000260 -0.000014 0.000019
Al 1.552302 0.874549 7.443505 -0.000061 0.000193 0.000045
Al 1.552944 0.872404 -2.718794 0.000017 -0.000008 -0.000204
Al -0.009447 3.597790 2.418411 0.000097 0.000247 0.000090
Al -0.028230 3.591580 7.442330 -0.000039 0.000009 -0.000068
Al -0.020097 3.589709 -2.714745 0.000053 -0.000036 0.000155
Al 3.134266 -1.846324 2.413777 0.000160 0.000068 0.000085
Al 3.130272 -1.859215 7.444727 0.000053 -0.000049 -0.000037
Al 3.127016 -1.850463 -2.709862 -0.000080 0.000095 -0.000138
Al -4.744544 0.859721 2.402831 0.000100 0.000035 -0.000083
Al -4.755992 0.864863 7.432455 0.000099 -0.000033 0.000082
Al -4.750735 0.868663 -2.689328 -0.000280 0.000166 0.000329
Al -6.336051 3.597497 2.390486 -0.000076 0.000312 -0.000240
Al -6.335635 3.579936 7.458833 0.000008 0.000025 -0.000016
Al -6.316988 3.593191 -2.699873 0.000003 -0.000059 -0.000148
Al -3.173194 -1.859394 2.379905 -0.000020 -0.000088 -0.000080
Al -3.182353 -1.857806 7.443738 0.000142 0.000095 -0.000078
Ga -3.173281 -1.854713 -2.678055 0.000041 -0.000077 0.000101
Al -1.601020 0.860720 2.399568 -0.000184 0.000000 -0.000002
Al -1.600691 0.869785 7.434984 -0.000009 -0.000024 0.000187
Al -1.587410 0.872965 -2.685137 0.000052 0.000045 0.000357
Ga -3.174112 3.586910 2.388320 -0.000087 -0.000022 -0.000129
Al -3.164797 3.586791 7.450824 0.000107 -0.000076 -0.000173
Al -3.174327 3.600433 -2.685411 -0.000042 0.000149 0.000078
Al -0.032117 -1.848263 2.392071 0.000118 0.000189 0.000037
Ga -0.027916 -1.848996 7.463828 -0.000082 -0.000006 -0.000010
Al -0.016734 -1.856337 -2.702751 0.000142 -0.000050 -0.000006
Al -0.026837 1.776240 4.920662 -0.000040 0.000024 -0.000088
Al -0.013668 1.778740 -5.227067 -0.000095 -0.000020 0.000004
Ga -0.028501 1.781091 -0.137982 -0.000056 -0.000000 -0.000027
Al 3.137964 -3.670843 4.932693 0.000254 0.000121 0.000020
Al 3.133944 -3.664786 -5.219545 -0.000003 0.000000 -0.000070
Ga 3.137750 -3.667683 -0.156615 -0.000062 -0.000065 0.000001
Al 1.557018 -0.940628 4.917487 -0.000051 -0.000031 -0.000276
Al 1.561928 -0.943098 -5.211073 -0.000105 -0.000025 -0.000003
Ga 1.550525 -0.954577 -0.147874 -0.000098 -0.000029 0.000029
Al 3.118579 1.772087 4.919567 0.000000 0.000186 -0.000094
Al 3.122473 1.778984 -5.219494 -0.000089 0.000038 0.000080
Ga 3.138796 1.784613 -0.145744 0.000036 0.000116 -0.000029
Al 6.265850 -3.671902 4.926248 -0.000115 0.000062 -0.000084
Al 6.277925 -3.673762 -5.234353 0.000004 -0.000030 -0.000023
Al 6.281983 -3.667202 -0.140275 0.000357 0.000050 0.000067
Al 4.701257 -0.951631 4.920066 -0.000045 -0.000043 -0.000080
Al 4.697187 -0.950650 -5.236027 0.000028 0.000014 -0.000138
Al 4.709149 -0.943385 -0.131874 0.000293 -0.000278 0.000265
Al -3.170235 1.762018 4.937903 0.000051 -0.000091 0.000026
Ga -3.168066 1.776712 -5.214940 0.000018 -0.000023 -0.000106
Al -3.175875 1.762299 -0.163857 0.000105 0.000279 -0.000267
Ga -0.033175 -3.675751 4.929528 -0.000069 0.000024 -0.000060
Al -0.022681 -3.672952 -5.210613 -0.000081 -0.000085 0.000087
Al -0.035730 -3.668371 -0.160591 -0.000283 0.000165 0.000334
Al -1.611071 -0.942198 4.907164 -0.000038 0.000059 -0.000099
Al -1.594749 -0.946782 -5.212305 0.000118 0.000062 -0.000173
Al -1.601412 -0.950106 -0.138598 -0.000030 -0.000426 0.000047
N 1.548028 0.870070 4.331845 0.000054 0.000030 0.000035
N 1.555845 0.870804 -5.821788 0.000006 -0.000021 -0.000022
N 1.552041 0.872294 -0.815189 0.000051 0.000010 0.000217
N -0.022929 3.595848 4.333981 0.000059 0.000043 0.000103
N -0.023101 3.596149 -5.826545 -0.000004 -0.000011 0.000035
N 0.024587 3.617784 -0.803531 -0.000218 -0.000114 -0.000295
N 3.127368 -1.857398 4.328260 0.000042 0.000015 0.000088
N 3.126943 -1.855867 -5.826083 0.000032 -0.000017 0.000018
N 3.173262 -1.826079 -0.800910 -0.000153 -0.000118 0.000088
N -4.744683 0.867624 4.326309 0.000018 0.000046 0.000021
N -4.785300 0.849690 -5.846525 0.000063 0.000078 -0.000270
N -4.710099 0.838205 -0.774928 0.000023 0.000373 -0.000304
N -6.369462 3.573563 4.298913 0.000072 -0.000382 0.000401
N -6.317929 3.593081 -5.816684 0.000026 -0.000030 0.000012
N -6.324312 3.641919 -0.781829 -0.000153 0.000105 0.000266
N -3.176019 -1.861233 4.305876 0.000027 0.000033 0.000072
N -3.166259 -1.852774 -5.824748 0.000035 0.000003 -0.000016
N -3.172522 -1.855173 -0.692700 0.000090 0.000031 -0.000022
N -1.603781 0.870320 4.318369 -0.000028 -0.000002 0.000022
N -1.552539 0.846412 -5.844383 0.000046 -0.000067 -0.000268
N -1.629770 0.842509 -0.769327 -0.000043 0.000279 -0.000378
N -3.132413 3.566590 4.358667 -0.000209 -0.000082 -0.000064
N -3.165849 3.643376 -5.829805 0.000085 -0.000020 0.000135
N -3.212683 3.575391 -0.762938 0.000142 -0.000175 0.000060
N -0.026645 -1.809963 4.305567 0.000015 -0.000048 -0.000060
N -0.018279 -1.852082 -5.755492 0.000008 0.000176 0.000021
N -0.064326 -1.875001 -0.780238 0.000054 -0.000048 0.000004
N -0.023043 1.779412 1.848296 0.000087 -0.000245 -0.000194
N -0.025345 1.775430 6.841157 0.000007 0.000028 0.000079
N -0.025494 1.777479 -3.307912 -0.000048 0.000026 0.000049
N 3.173282 -3.647265 1.818999 -0.000059 -0.000164 -0.000034
N 3.126203 -3.673824 6.848863 0.000004 0.000059 0.000060
N 3.126208 -3.673226 -3.295535 0.000063 0.000026 0.000012
N 1.554715 -0.947184 1.838585 -0.000279 0.000006 -0.000095
N 1.589602 -0.925893 6.829525 -0.000009 -0.000236 0.000131
N 1.555657 -0.947383 -3.296236 -0.000028 0.000002 -0.000060
N 3.124998 1.774708 1.838627 0.000132 -0.000262 0.000023
N 3.119702 1.777847 6.837849 0.000016 0.000060 0.000036
N 3.132125 1.780362 -3.298874 -0.000054 0.000017 -0.000018
N 6.270179 -3.678615 1.781424 -0.000022 0.000053 0.000034
N 6.272491 -3.675174 6.849106 0.000032 0.000035 0.000033
N 6.278974 -3.714645 -3.325178 -0.000015 0.000039 -0.000002
N 4.694773 -0.946237 1.791794 0.000031 0.000074 0.000073
N 4.697548 -0.953250 6.838891 0.000000 0.000059 0.000067
N 4.666166 -0.921472 -3.327241 -0.000013 -0.000319 0.000053
N -3.173824 1.724557 1.755054 0.000077 -0.000234 0.000376
N -3.175757 1.772579 6.854301 -0.000016 -0.000006 0.000037
N -3.169724 1.778856 -3.237684 0.000332 -0.000275 -0.000230
N -0.067375 -3.648846 1.764314 0.000158 -0.000098 -0.000152
N -0.030508 -3.722297 6.892288 -0.000095 0.000045 0.000055
N -0.019781 -3.676260 -3.292852 0.000006 0.000038 -0.000005
N -1.596327 -0.945621 1.785078 -0.000010 0.000062 0.000086
N -1.643396 -0.929069 6.818096 -0.000203 -0.000139 0.000218
N -1.560506 -0.921507 -3.305329 -0.000215 0.000124 -0.000028
