108
Energy=-848640.682150 Lattice="9.474431 0.000000 0.000000 -4.738564 8.204138 0.000000 -0.000555 -0.000442 15.298412" Stress="0.000022 0.000030 0.000001 0.000030 0.000048 0.000000 0.000001 0.000000 0.000100" Properties=species:S:1:pos:R:3:forces:R:3
Al 1.559366 0.888228 2.486270 0.002219 -0.008952 -0.011513
Al 1.563286 0.901754 7.510288 -0.001123 -0.013506 -0.004514
Al 1.563943 0.901470 -2.770140 -0.001431 -0.014182 0.001616
Al -0.003843 3.613373 2.493212 -0.003214 -0.006737 -0.013909
Al -0.001895 3.610973 7.509946 -0.002660 -0.001279 -0.002879
Al -0.000764 3.610523 -2.771279 -0.003570 -0.001810 0.001329
Al 3.169434 -1.879617 2.491056 -0.001205 0.000991 -0.012296
Al 3.172629 -1.882574 7.510049 -0.002716 0.001383 -0.003796
Al 3.172586 -1.882635 -2.771224 -0.003982 0.001309 0.000686
Al -4.779159 0.900756 2.488964 0.003215 -0.011060 -0.012515
Al -4.782534 0.901682 7.510335 0.001281 -0.012423 -0.003763
Al -4.780640 0.903008 -2.763264 0.001437 -0.012341 -0.001723
Al -6.350315 3.609470 2.490456 0.002866 0.001005 -0.011991
Al -6.347020 3.611142 7.510699 0.000949 0.000283 -0.002086
Al -6.344625 3.611520 -2.763948 -0.000055 0.000067 -0.000334
Al -3.171246 -1.881419 2.491496 -0.002391 0.001787 -0.008959
Al -3.172988 -1.882824 7.510122 -0.000552 0.002790 -0.002690
Ga -3.172852 -1.883115 -2.767766 0.002342 0.004471 0.001097
Al -1.648151 0.905429 2.488139 0.007377 -0.007654 -0.011364
Al -1.652886 0.901479 7.510026 0.013212 -0.007368 -0.005562
Al -1.650785 0.902529 -2.768648 0.013253 -0.010264 0.003765
Ga -3.215157 3.616393 2.452885 0.013543 0.006820 -0.009553
Al -3.217943 3.611900 7.511147 0.013136 0.004116 -0.002452
Al -3.215608 3.612872 -2.768447 0.011261 0.004776 0.004454
Al -0.038169 -1.872842 2.484963 0.010863 0.002314 -0.011828
Ga -0.042185 -1.884382 7.509484 0.013871 0.009905 -0.004657
Al -0.042006 -1.881536 -2.769771 0.009201 0.009531 0.007604
Al -0.002227 1.804405 5.000195 -0.011179 -0.007922 -0.004644
Al -0.000221 1.804175 -5.279295 -0.011269 -0.007636 -0.004654
Ga -0.003808 1.801120 -0.220868 -0.015778 -0.011407 0.032601
Al 3.169188 -3.689979 5.001206 -0.011306 -0.004803 -0.004255
Al 3.173349 -3.689246 -5.279141 -0.011311 -0.004903 -0.003474
Ga 3.168241 -3.692457 -0.228144 -0.014834 -0.007387 0.033081
Al 1.607591 -0.978542 5.001015 -0.013170 0.007488 -0.005800
Al 1.608681 -0.979918 -5.278637 -0.013270 0.007493 -0.004973
Ga 1.608510 -0.979653 -0.214592 -0.017106 0.007709 0.029572
Al 3.126736 1.804657 4.998794 0.000362 -0.003021 -0.003232
Al 3.128629 1.805005 -5.277268 0.000042 -0.002838 -0.002466
Ga 3.129414 1.805380 -0.239143 0.001176 -0.002727 0.038853
Al 6.301366 -3.689059 5.000827 0.000370 0.000543 -0.003125
Al 6.302818 -3.689777 -5.278406 -0.000019 0.000288 -0.001941
Al 6.297597 -3.691329 -0.254844 0.000270 0.001582 0.031697
Al 4.736446 -0.979233 5.000652 -0.000919 0.012271 -0.004992
Al 4.737300 -0.979091 -5.278314 -0.001161 0.012151 -0.003606
Al 4.734100 -0.982752 -0.255206 -0.000680 0.011789 0.030002
Al -3.218003 1.805132 5.000438 0.002933 -0.000090 -0.005159
Ga -3.216617 1.805124 -5.277382 0.002893 -0.001773 -0.002822
Al -3.217935 1.793083 -0.226199 0.003899 0.001625 0.025488
Ga -0.038522 -3.689964 4.991189 0.003138 0.000483 -0.002339
Al -0.042793 -3.688933 -5.277202 0.002428 0.001300 -0.001995
Al -0.052540 -3.686170 -0.225831 0.004660 0.002252 0.027487
Al -1.608018 -0.978632 4.999185 0.000623 0.013418 -0.004857
Al -1.606756 -0.979444 -5.278361 0.000731 0.013430 -0.003269
Al -1.603625 -0.959085 -0.149218 -0.003752 0.005953 0.011333
N 1.561624 0.900727 4.403656 -0.000470 -0.012384 0.004375
N 1.564018 0.901694 -5.873326 -0.000402 -0.013313 0.004166
N 1.560741 0.898876 -0.821713 -0.000150 -0.016197 -0.020354
N -0.003389 3.611789 4.406881 -0.002575 -0.000473 0.001506
N -0.000784 3.611172 -5.873942 -0.002170 -0.000110 0.001789
N -0.008399 3.605311 -0.834831 0.017367 0.010209 -0.014074
N 3.170415 -1.882224 4.406088 -0.002490 0.000253 0.001627
N 3.173044 -1.882558 -5.873725 -0.002624 0.001318 0.001141
N 3.164562 -1.886389 -0.834512 0.016116 0.013122 -0.014867
N -4.783058 0.902452 4.404699 0.001912 -0.011870 0.004987
N -4.782802 0.901364 -5.873424 -0.017456 -0.023574 -0.003386
N -4.781680 0.899087 -0.843552 0.018062 -0.024078 -0.001862
N -6.347702 3.610587 4.403410 -0.018436 -0.010343 -0.004691
N -6.345770 3.611480 -5.872846 0.000206 0.000320 0.001758
N -6.348314 3.612366 -0.843711 -0.001639 0.020685 -0.004094
N -3.172278 -1.881864 4.405708 -0.000472 0.001630 0.003154
N -3.171983 -1.882478 -5.873199 -0.001043 0.001745 0.000871
N -3.177034 -1.885658 -0.850649 0.002853 0.004340 0.033303
N -1.653159 0.902805 4.404509 0.012362 -0.007159 0.006643
N -1.650783 0.901197 -5.873985 0.031405 -0.017990 -0.001019
N -1.653280 0.882819 -0.813397 -0.002365 -0.010900 -0.004603
N -3.210838 3.614209 4.376473 0.028676 -0.006627 0.021960
N -3.216966 3.613559 -5.873185 0.011638 0.027136 -0.002879
N -3.226056 3.607753 -0.821970 -0.002728 -0.002825 -0.006853
N -0.042747 -1.879051 4.401557 0.010834 0.027829 -0.004531
N -0.042686 -1.882944 -5.872002 0.011627 0.007035 0.026254
N -0.060035 -1.869143 -0.792169 -0.001023 -0.002866 -0.011640
N -0.021438 1.757690 1.876900 -0.004178 0.008903 -0.005869
N -0.001509 1.804074 6.915047 -0.010846 -0.007060 0.003950
N -0.000200 1.804348 -3.365332 -0.011177 -0.007015 0.004368
N 3.175815 -3.681766 1.852071 0.004950 0.001741 -0.008761
N 3.171722 -3.689570 6.915608 -0.011728 -0.005810 0.004261
N 3.173668 -3.689494 -3.365415 -0.011424 -0.005698 0.004453
N 1.605168 -0.973610 1.889670 -0.011106 0.004970 -0.006568
N 1.609337 -0.978638 6.915124 0.002130 0.016099 0.000926
N 1.608881 -0.979683 -3.365208 -0.013387 0.007573 0.007051
N 3.137993 1.805801 1.875972 -0.004007 -0.003148 -0.010049
N 3.127460 1.804913 6.914704 0.000972 -0.001557 0.001525
N 3.129555 1.805396 -3.361014 0.000728 -0.001700 0.001245
N 6.300095 -3.688407 1.900930 0.000146 -0.001657 -0.027930
N 6.301551 -3.689543 6.915496 0.001015 -0.000343 0.002279
N 6.303009 -3.691307 -3.363670 0.000318 -0.022220 -0.005372
N 4.737621 -0.980139 1.900374 -0.000549 0.013668 -0.025246
N 4.736971 -0.979534 6.915328 -0.000994 0.013019 0.004479
N 4.736412 -0.978155 -3.363571 -0.019702 0.023647 -0.003041
N -3.210304 1.810179 1.842217 0.000756 -0.027035 -0.025313
N -3.217649 1.804982 6.915693 0.002365 -0.000881 0.000327
N -3.215956 1.805586 -3.360148 0.002783 -0.001477 0.024397
N -0.042129 -3.685773 1.846052 -0.019639 0.012024 -0.025069
N -0.032533 -3.693635 6.910017 -0.001530 -0.020324 0.016951
N -0.042136 -3.688871 -3.362103 0.001844 0.000481 0.002410
N -1.606533 -0.975953 1.888017 -0.001457 0.012331 -0.020344
N -1.608720 -0.979852 6.913971 -0.017228 0.023475 -0.003346
N -1.606108 -0.978475 -3.363879 0.019031 0.023841 -0.005076
