108
Energy=-1.718378e+06 Lattice="9.545847e+00 0.000000e+00 0.000000e+00 -4.775145e+00 8.266089e+00 0.000000e+00 -2.057067e-04 6.616442e-04 1.542686e+01" Stress="-1.934926e-03 -5.543259e-05 3.093627e-05 -6.026810e-05 -1.934605e-03 -1.139367e-04 2.757667e-05 -1.163583e-04 -2.918680e-03" Properties=species:S:1:pos:R:3:forces:R:3 Config_type=AlGaN_super3_28_1_34.xyz
Al 1.554724e+00 8.888695e-01 2.420909e+00 -4.317644e-05 1.259127e-03 7.985120e-04
Al 1.562288e+00 8.890220e-01 7.539443e+00 1.344749e-04 8.009441e-05 -6.982982e-05
Al 1.574005e+00 8.926435e-01 -2.701840e+00 7.706571e-05 3.475457e-05 1.822968e-04
Al -3.184225e-02 3.611601e+00 2.448823e+00 1.082065e-03 -1.377328e-05 -1.354446e-04
Al -2.235629e-02 3.618132e+00 7.516658e+00 -2.106086e-04 -1.903659e-05 1.581768e-04
Al -1.021833e-02 3.616623e+00 -2.697055e+00 -2.579127e-05 4.593944e-05 1.094546e-04
Al 3.164229e+00 -1.876213e+00 2.435609e+00 1.436582e-04 -1.977540e-04 2.074740e-04
Ga 3.163379e+00 -1.868377e+00 7.548418e+00 -1.874698e-05 4.104474e-05 2.760432e-05
Ga 3.158391e+00 -1.862366e+00 -2.712653e+00 -6.262074e-05 4.024077e-05 8.076592e-05
Ga -4.812850e+00 8.698072e-01 2.414729e+00 -5.884555e-05 1.883782e-04 4.421344e-05
Al -4.800338e+00 8.783990e-01 7.541371e+00 -3.770995e-05 5.740331e-05 -5.261211e-05
Al -4.801685e+00 8.932835e-01 -2.689973e+00 2.805070e-05 9.368389e-06 7.093083e-05
Ga -6.396753e+00 3.618097e+00 2.449806e+00 -2.576296e-04 -1.118223e-04 9.471425e-05
Ga -6.399916e+00 3.618540e+00 7.528977e+00 1.237706e-05 -1.003342e-04 -1.827169e-05
Al -6.398903e+00 3.611864e+00 -2.701279e+00 -8.132423e-06 -2.311198e-05 8.576235e-05
Ga -3.211689e+00 -1.870766e+00 2.426389e+00 -5.274816e-06 -2.780436e-04 1.499856e-06
Ga -3.216224e+00 -1.874721e+00 7.533512e+00 -2.025210e-05 1.893278e-06 -1.225767e-05
Ga -3.206566e+00 -1.878716e+00 -2.684319e+00 -4.658836e-05 2.079747e-05 3.706708e-05
Al -1.589119e+00 8.829336e-01 2.404183e+00 1.446804e-04 7.078428e-04 -5.824443e-04
Al -1.606164e+00 8.984078e-01 7.554990e+00 4.956076e-05 -3.353366e-05 6.370350e-05
Ga -1.615242e+00 8.954060e-01 -2.689017e+00 8.578247e-05 -4.935810e-05 -1.293158e-05
Ga -3.193792e+00 3.636211e+00 2.440393e+00 4.591389e-05 4.174528e-05 -4.286987e-05
Ga -3.195439e+00 3.622974e+00 7.546696e+00 6.516358e-06 -1.930304e-05 5.376075e-05
Ga -3.207142e+00 3.612034e+00 -2.707347e+00 3.978622e-05 -3.873726e-05 1.077440e-05
Al -2.067487e-02 -1.862460e+00 2.428713e+00 -5.109672e-05 -1.475680e-04 -7.174845e-05
Ga -1.387856e-02 -1.861624e+00 7.558659e+00 6.311285e-06 -6.329403e-05 5.877700e-05
Ga -1.634861e-02 -1.862665e+00 -2.703559e+00 3.002597e-05 -3.508214e-05 -1.040836e-05
Al -1.547464e-02 1.808802e+00 4.983304e+00 3.241704e-04 2.977336e-04 -1.256290e-04
Ga -2.209002e-02 1.793384e+00 -5.303702e+00 9.399664e-06 7.396579e-05 3.181781e-05
Al -2.202062e-02 1.794079e+00 -1.319245e-01 8.238377e-04 -3.432104e-04 2.135590e-04
Al 3.179668e+00 -3.713122e+00 4.975212e+00 2.230792e-04 4.300422e-04 -1.384793e-04
Ga 3.166005e+00 -3.720995e+00 -5.294067e+00 1.679396e-05 5.324443e-05 1.983245e-05
Ga 3.176136e+00 -3.725038e+00 -1.224897e-01 -1.158845e-05 6.481565e-05 1.574213e-06
Ga 1.578965e+00 -9.494827e-01 4.955612e+00 1.118007e-04 1.904078e-04 1.190913e-04
Al 1.570291e+00 -9.406516e-01 -5.291959e+00 -5.943217e-05 5.265589e-05 3.208383e-05
Ga 1.571356e+00 -9.342747e-01 -1.049770e-01 -9.957687e-05 1.390609e-04 -1.888729e-04
Al 3.148521e+00 1.792759e+00 4.998886e+00 -4.064510e-04 2.765710e-04 -5.758012e-05
Ga 3.163840e+00 1.778741e+00 -5.283999e+00 4.370353e-05 -1.479555e-05 3.154571e-05
Al 3.157883e+00 1.786828e+00 -1.631213e-01 -2.335389e-04 -4.534734e-05 -1.585205e-04
Al 6.327851e+00 -3.727748e+00 4.975641e+00 -2.684564e-05 -1.488270e-04 -9.930261e-05
Ga 6.332383e+00 -3.722891e+00 -5.279131e+00 4.363012e-06 -1.352861e-05 4.702676e-05
Ga 6.337992e+00 -3.727402e+00 -1.333990e-01 4.098048e-05 -7.373915e-05 1.293712e-04
Al 4.739298e+00 -9.609144e-01 4.988070e+00 1.149656e-05 -1.376110e-05 8.102990e-05
Ga 4.748147e+00 -9.354036e-01 -5.286204e+00 -4.076360e-05 -3.490327e-06 4.353796e-05
Al 4.754051e+00 -9.378367e-01 -1.401458e-01 -2.797308e-05 1.459042e-06 -2.356644e-05
Ga -3.202697e+00 1.792331e+00 4.988717e+00 -9.734746e-05 -3.849930e-05 1.195669e-04
Al -3.211890e+00 1.785313e+00 -5.305885e+00 4.463885e-05 -2.025449e-05 3.515127e-05
Al -3.207019e+00 1.774100e+00 -1.268419e-01 -3.319674e-05 -5.682935e-05 -2.370911e-06
Al -2.570338e-02 -3.713598e+00 4.980371e+00 -9.767495e-05 -1.188343e-04 3.508166e-05
Ga -1.756997e-02 -3.714968e+00 -5.276498e+00 2.725248e-05 -2.441543e-05 2.145176e-05
Ga -3.252304e-02 -3.723359e+00 -1.368179e-01 -2.891041e-05 -7.514188e-05 -6.295323e-05
Ga -1.611060e+00 -9.518682e-01 4.980350e+00 -1.005149e-04 -5.828562e-05 1.703895e-04
Ga -1.610812e+00 -9.402467e-01 -5.300709e+00 -4.899651e-05 -1.482435e-05 9.496768e-06
Al -1.616657e+00 -9.386500e-01 -1.118957e-01 -1.809654e-05 -3.690184e-05 -4.075522e-05
N 1.565547e+00 9.411629e-01 4.342514e+00 3.985639e-04 -3.098081e-04 -4.336988e-04
N 1.569215e+00 8.376700e-01 -5.964624e+00 3.350933e-05 9.315633e-06 -3.639728e-05
N 1.562593e+00 9.221926e-01 -7.778384e-01 -3.077643e-04 1.291540e-04 2.032097e-04
N -2.541339e-02 3.623421e+00 4.369315e+00 -6.970751e-05 1.574361e-04 7.842630e-05
N -2.120870e-02 3.631217e+00 -5.993750e+00 2.306428e-06 1.022482e-05 -1.259227e-04
N -2.423116e-02 3.579021e+00 -7.903837e-01 -1.252510e-04 1.268456e-04 -1.420090e-04
N 3.207386e+00 -1.900096e+00 4.350853e+00 -8.755211e-05 -2.877580e-04 1.937495e-04
N 3.120429e+00 -1.852702e+00 -5.895304e+00 -2.190641e-05 9.186791e-06 -2.636746e-05
N 3.193775e+00 -1.852348e+00 -7.375484e-01 -2.179716e-05 -2.322974e-05 5.135610e-06
N -4.842677e+00 8.569845e-01 4.392614e+00 1.693699e-04 -1.368378e-04 -8.185280e-05
N -4.761116e+00 9.042524e-01 -5.967902e+00 6.998250e-05 2.273458e-05 -4.627884e-05
N -4.791961e+00 8.827589e-01 -7.576906e-01 1.606774e-04 -3.142291e-05 -1.405037e-06
N -6.388258e+00 3.625281e+00 4.434525e+00 9.050759e-05 1.649120e-05 -3.769418e-06
N -6.389986e+00 3.629312e+00 -5.922440e+00 -3.503786e-05 4.049676e-05 -3.177939e-05
N -6.390914e+00 3.584128e+00 -7.916823e-01 7.135316e-05 -6.597432e-05 4.252991e-06
N -3.246905e+00 -1.896946e+00 4.406959e+00 3.307206e-06 3.683364e-05 -3.568935e-05
N -3.209285e+00 -1.881025e+00 -5.919070e+00 -1.392833e-05 1.430522e-05 -4.765876e-05
N -3.199839e+00 -1.829237e+00 -7.009449e-01 4.148126e-05 1.498606e-04 1.494755e-05
N -1.565684e+00 9.092154e-01 4.318040e+00 -2.987856e-04 -2.378221e-04 4.625740e-04
N -1.651600e+00 9.117189e-01 -5.954725e+00 6.249644e-05 -5.302685e-05 -3.642919e-05
N -1.612167e+00 8.824359e-01 -6.975228e-01 -3.490614e-04 -1.118379e-04 -2.058425e-04
N -3.202585e+00 3.678580e+00 4.415151e+00 -8.441160e-05 -3.453145e-05 -3.451610e-05
N -3.205697e+00 3.588060e+00 -5.898273e+00 -8.386953e-07 -4.672614e-05 -2.585681e-05
N -3.202270e+00 3.577818e+00 -7.298361e-01 6.742801e-05 -2.634770e-05 -2.593674e-05
N -2.562964e-02 -1.921252e+00 4.334314e+00 1.685366e-05 -1.546932e-06 -1.557472e-04
N 2.314683e-02 -1.853821e+00 -5.891844e+00 -1.465019e-06 -3.698305e-05 -8.879281e-06
N -5.872036e-02 -1.844926e+00 -7.286337e-01 2.308492e-05 3.304140e-05 9.374075e-05
N -1.792941e-02 1.802185e+00 1.796054e+00 -7.943615e-05 -1.069329e-04 -7.105491e-05
N -2.311323e-02 1.793218e+00 6.918935e+00 -1.528484e-04 2.179534e-05 2.225534e-05
N 1.853779e-02 1.817279e+00 -3.314476e+00 -1.571414e-05 6.598530e-05 -4.709241e-05
N 3.209091e+00 -3.693868e+00 1.855264e+00 -3.849157e-04 2.444448e-04 -8.423542e-05
N 3.203154e+00 -3.732091e+00 6.893244e+00 4.835601e-05 -3.314139e-05 -3.736061e-05
N 3.207804e+00 -3.740787e+00 -3.312715e+00 3.228758e-05 4.696194e-05 -5.737617e-05
N 1.572965e+00 -9.505429e-01 1.884262e+00 -1.715971e-04 -7.779286e-04 -2.379583e-04
N 1.570615e+00 -9.062876e-01 6.926586e+00 -5.586948e-05 -1.325195e-05 -2.792884e-05
N 1.569206e+00 -8.982570e-01 -3.369840e+00 -6.899201e-05 1.592904e-05 -3.906278e-05
N 3.112875e+00 1.774250e+00 1.753562e+00 -1.088756e-04 -2.475239e-04 1.228228e-04
N 3.155116e+00 1.742660e+00 6.916038e+00 1.843893e-05 1.252392e-05 -9.516236e-05
N 3.160680e+00 1.789759e+00 -3.284764e+00 4.913853e-05 -4.926943e-06 -7.569520e-05
N 6.297817e+00 -3.745295e+00 1.838259e+00 -4.687587e-04 -1.764474e-04 2.427805e-04
N 6.297646e+00 -3.738421e+00 6.885076e+00 3.601668e-05 6.716567e-05 -4.580571e-05
N 6.339554e+00 -3.760934e+00 -3.289922e+00 2.577574e-05 -1.084196e-06 -3.189146e-05
N 4.705737e+00 -9.807312e-01 1.766995e+00 1.134134e-04 7.110194e-05 -1.131146e-04
N 4.744989e+00 -9.086641e-01 6.896691e+00 -2.958251e-05 -3.885024e-05 -7.455196e-05
N 4.755259e+00 -9.004155e-01 -3.310054e+00 -4.099733e-05 -1.128301e-05 -3.522322e-05
N -3.168952e+00 1.769771e+00 1.786703e+00 -1.083742e-04 -9.474098e-05 9.764477e-05
N -3.203322e+00 1.745204e+00 6.961449e+00 2.634127e-05 -1.485540e-05 -1.189940e-04
N -3.248994e+00 1.763333e+00 -3.378572e+00 2.907287e-05 -4.938621e-05 2.220713e-06
N -2.775724e-02 -3.671849e+00 1.833719e+00 8.555163e-05 1.772782e-04 5.882359e-05
N -2.062366e-02 -3.707333e+00 6.888219e+00 5.942951e-05 1.493466e-05 -1.029277e-04
N -6.540360e-02 -3.735861e+00 -3.299655e+00 3.448603e-05 -7.342895e-06 1.911639e-05
N -1.573025e+00 -9.331137e-01 1.805449e+00 3.903081e-05 -3.765220e-04 -2.446243e-05
N -1.609762e+00 -9.025070e-01 6.953580e+00 -4.016520e-05 -8.789906e-06 -1.205876e-04
N -1.616723e+00 -9.480830e-01 -3.333457e+00 -5.503167e-05 -4.333662e-06 4.574682e-06
