108
Energy=-1.489495e+06 Lattice="9.476278e+00 0.000000e+00 0.000000e+00 -4.738139e+00 8.206697e+00 0.000000e+00 9.377101e-16 1.624162e-15 1.531397e+01" Stress="-3.183708e-02 6.434290e-03 -3.215742e-04 6.421824e-03 -2.617388e-02 -5.686228e-04 -3.199469e-04 -5.782337e-04 -2.361394e-02" Properties=species:S:1:pos:R:3:forces:R:3 Config_type=AlGaN_super3_23_0_0.xyz
Al 1.564294e+00 9.031460e-01 2.504900e+00 -1.597706e-03 -1.415243e-02 -1.214029e-02
Al 1.564294e+00 9.031460e-01 7.521855e+00 -1.357302e-03 -1.473779e-02 -6.237491e-03
Al 1.564294e+00 9.031460e-01 -2.775158e+00 -1.154865e-03 -1.377546e-02 -5.339770e-03
Al 2.938992e-08 3.612582e+00 2.504900e+00 -2.477186e-03 -2.023630e-03 -1.105355e-02
Al 2.938992e-08 3.612582e+00 7.521855e+00 -3.079054e-03 -1.555940e-03 -4.135718e-03
Al 2.938992e-08 3.612582e+00 -2.775158e+00 -2.589453e-03 -1.562605e-03 -3.945519e-03
Al 3.173845e+00 -1.884678e+00 2.504900e+00 -3.667480e-03 1.744213e-03 -1.215580e-02
Al 3.173845e+00 -1.884678e+00 7.521855e+00 -4.058261e-03 1.478598e-03 -5.191744e-03
Ga 3.173845e+00 -1.884678e+00 -2.775158e+00 -2.531495e-03 1.645604e-03 -4.466571e-03
Al -4.783396e+00 9.031460e-01 2.504900e+00 1.265686e-03 -1.294869e-02 -1.064208e-02
Ga -4.783396e+00 9.031460e-01 7.521855e+00 2.876638e-04 -1.693415e-02 -5.901173e-03
Al -4.783396e+00 9.031460e-01 -2.775158e+00 9.468400e-04 -1.345385e-02 -4.913342e-03
Al -6.347690e+00 3.612582e+00 2.504900e+00 -8.753666e-04 -3.763723e-04 -9.584673e-03
Al -6.347690e+00 3.612582e+00 7.521855e+00 -6.689478e-04 -3.357205e-04 -3.267742e-03
Al -6.347690e+00 3.612582e+00 -2.775158e+00 -7.564023e-04 -5.139412e-04 -2.745606e-03
Ga -3.173845e+00 -1.884678e+00 2.504900e+00 -6.886744e-04 2.577324e-03 -1.139035e-02
Ga -3.173845e+00 -1.884678e+00 7.521855e+00 -3.390824e-04 2.788253e-03 -3.362441e-03
Al -3.173845e+00 -1.884678e+00 -2.775158e+00 -1.103619e-03 2.930473e-03 -3.860979e-03
Al -1.654808e+00 9.031460e-01 2.504900e+00 1.420581e-02 -7.387528e-03 -1.229596e-02
Al -1.654808e+00 9.031460e-01 7.521855e+00 1.430460e-02 -7.802071e-03 -6.664766e-03
Ga -1.654808e+00 9.031460e-01 -2.775158e+00 1.621168e-02 -9.166330e-03 -8.367758e-03
Ga -3.219102e+00 3.612582e+00 2.504900e+00 1.543864e-02 7.504331e-03 -1.281139e-02
Ga -3.219102e+00 3.612582e+00 7.521855e+00 1.565177e-02 8.118838e-03 -5.726309e-03
Ga -3.219102e+00 3.612582e+00 -2.775158e+00 1.516739e-02 7.964331e-03 -5.035877e-03
Ga -4.525702e-02 -1.884678e+00 2.504900e+00 1.531089e-02 1.094963e-02 -1.386621e-02
Ga -4.525702e-02 -1.884678e+00 7.521855e+00 1.534020e-02 1.134126e-02 -7.376580e-03
Ga -4.525702e-02 -1.884678e+00 -2.775158e+00 1.483116e-02 1.079790e-02 -5.441180e-03
Ga 1.469567e-08 1.806291e+00 5.013378e+00 -1.489918e-02 -1.080522e-02 -7.596693e-03
Al 1.469567e-08 1.806291e+00 -5.283635e+00 -1.236241e-02 -8.382452e-03 -6.015719e-03
Al 1.469567e-08 1.806291e+00 -2.666800e-01 -1.209626e-02 -8.275395e-03 3.402215e-02
Al 3.173845e+00 -3.690969e+00 5.013378e+00 -1.216643e-02 -5.562925e-03 -4.490667e-03
Ga 3.173845e+00 -3.690969e+00 -5.283635e+00 -1.488412e-02 -8.226030e-03 -5.551780e-03
Ga 3.173845e+00 -3.690969e+00 -2.666800e-01 -1.476224e-02 -8.163403e-03 4.548338e-02
Al 1.609551e+00 -9.815320e-01 5.013378e+00 -1.400211e-02 7.915377e-03 -6.774175e-03
Ga 1.609551e+00 -9.815320e-01 -5.283635e+00 -1.609364e-02 9.547080e-03 -9.607283e-03
Al 1.609551e+00 -9.815320e-01 -2.666800e-01 -1.392193e-02 8.179446e-03 3.360345e-02
Al 3.128588e+00 1.806291e+00 5.013378e+00 4.375246e-04 -3.220688e-03 -4.558335e-03
Ga 3.128588e+00 1.806291e+00 -5.283635e+00 7.239576e-05 -3.236213e-03 -2.907493e-03
Ga 3.128588e+00 1.806291e+00 -2.666800e-01 -3.558162e-05 -3.466354e-03 4.710558e-02
Al 6.302433e+00 -3.690969e+00 5.013378e+00 1.376512e-04 -2.203861e-04 -3.368894e-03
Al 6.302433e+00 -3.690969e+00 -5.283635e+00 -5.600168e-05 -1.119328e-04 -2.646823e-03
Al 6.302433e+00 -3.690969e+00 -2.666800e-01 -9.529770e-05 -2.886249e-04 3.661178e-02
Ga 4.738139e+00 -9.815320e-01 5.013378e+00 -5.714901e-04 1.717193e-02 -5.870974e-03
Al 4.738139e+00 -9.815320e-01 -5.283635e+00 -1.152282e-03 1.331727e-02 -3.914661e-03
Ga 4.738139e+00 -9.815320e-01 -2.666800e-01 -4.499952e-04 1.700385e-02 4.532346e-02
Al -3.219102e+00 1.806291e+00 5.013378e+00 2.996384e-03 -1.986748e-03 -5.540817e-03
Al -3.219102e+00 1.806291e+00 -5.283635e+00 3.655904e-03 -2.285416e-03 -4.693620e-03
Al -3.219102e+00 1.806291e+00 -2.666800e-01 3.591417e-03 -2.374062e-03 3.582623e-02
Ga -4.525703e-02 -3.690969e+00 5.013378e+00 2.873076e-03 1.264647e-03 -3.324697e-03
Ga -4.525703e-02 -3.690969e+00 -5.283635e+00 3.066696e-03 1.037897e-03 -2.780910e-03
Ga -4.525703e-02 -3.690969e+00 -2.666800e-01 2.949682e-03 1.703730e-03 4.855829e-02
Al -1.609551e+00 -9.815320e-01 5.013378e+00 1.273058e-03 1.456764e-02 -5.701987e-03
Ga -1.609551e+00 -9.815320e-01 -5.283635e+00 1.395925e-03 1.909743e-02 -6.147247e-03
Al -1.609551e+00 -9.815320e-01 -2.666800e-01 1.107747e-03 1.497515e-02 3.438074e-02
N 1.564294e+00 9.031460e-01 4.418497e+00 1.816409e-02 -2.452362e-02 -1.884861e-03
N 1.564294e+00 9.031460e-01 -5.878516e+00 -2.018308e-02 -7.017983e-03 -8.548877e-03
N 1.564294e+00 9.031460e-01 -8.615610e-01 -1.904058e-02 -2.452981e-02 -5.182735e-04
N 2.938992e-08 3.612582e+00 4.418497e+00 -2.300872e-03 2.221920e-02 -4.628517e-03
N 2.938992e-08 3.612582e+00 -5.878516e+00 1.726458e-02 -1.081674e-02 -4.902970e-03
N 2.938992e-08 3.612582e+00 -8.615610e-01 1.654352e-02 -1.064197e-02 -2.815882e-03
N 3.173845e+00 -1.884678e+00 4.418497e+00 -2.135985e-02 -9.531846e-03 -5.375944e-03
N 3.173845e+00 -1.884678e+00 -5.878516e+00 1.597180e-02 1.256435e-02 -1.339052e-02
N 3.173845e+00 -1.884678e+00 -8.615610e-01 -2.135080e-02 1.222010e-02 1.307900e-02
N -4.783396e+00 9.031460e-01 4.418497e+00 5.056192e-04 4.306723e-03 -5.893472e-04
N -4.783396e+00 9.031460e-01 -5.878516e+00 1.973854e-02 -2.441323e-02 2.130244e-02
N -4.783396e+00 9.031460e-01 -8.615610e-01 1.902543e-02 -6.173533e-03 -6.183015e-03
N -6.347690e+00 3.612582e+00 4.418497e+00 -1.969202e-02 -1.070769e-02 -4.506806e-03
N -6.347690e+00 3.612582e+00 -5.878516e+00 -1.968474e-02 1.163962e-02 -1.268493e-02
N -6.347690e+00 3.612582e+00 -8.615610e-01 -1.901852e-02 1.096445e-02 -9.958464e-03
N -3.173845e+00 -1.884678e+00 4.418497e+00 1.777055e-02 -8.843263e-03 1.873264e-02
N -3.173845e+00 -1.884678e+00 -5.878516e+00 -1.979210e-02 -9.335451e-03 1.863221e-02
N -3.173845e+00 -1.884678e+00 -8.615610e-01 1.767802e-02 -9.021718e-03 -2.631407e-03
N -1.654808e+00 9.031460e-01 4.418497e+00 -2.044857e-03 -1.647154e-02 2.415511e-03
N -1.654808e+00 9.031460e-01 -5.878516e+00 1.310139e-02 9.751576e-03 1.298718e-03
N -1.654808e+00 9.031460e-01 -8.615610e-01 1.366482e-02 -7.789395e-03 3.180442e-02
N -3.219102e+00 3.612582e+00 4.418497e+00 3.116276e-02 -4.764333e-03 2.106052e-02
N -3.219102e+00 3.612582e+00 -5.878516e+00 1.539206e-02 -1.316243e-02 1.435768e-02
N -3.219102e+00 3.612582e+00 -8.615610e-01 1.526810e-02 -1.327886e-02 1.758864e-02
N -4.525702e-02 -1.884678e+00 4.418497e+00 1.159893e-02 2.921115e-02 2.052792e-02
N -4.525702e-02 -1.884678e+00 -5.878516e+00 1.487544e-02 1.035140e-02 6.399841e-03
N -4.525702e-02 -1.884678e+00 -8.615610e-01 1.181798e-02 2.880733e-02 2.267369e-02
N 1.469567e-08 1.806291e+00 1.910020e+00 -1.158377e-02 -7.678640e-03 -2.962880e-02
N 1.469567e-08 1.806291e+00 6.926975e+00 -1.159356e-02 -7.369665e-03 2.893927e-02
N 1.469567e-08 1.806291e+00 -3.370038e+00 3.898492e-03 7.655706e-04 -9.193397e-04
N 3.173845e+00 -3.690969e+00 1.910020e+00 3.295184e-03 2.778312e-03 -2.309211e-02
N 3.173845e+00 -3.690969e+00 6.926975e+00 3.852550e-03 2.639020e-03 -9.077418e-04
N 3.173845e+00 -3.690969e+00 -3.370038e+00 2.842940e-03 -1.961740e-02 1.459153e-02
N 1.609551e+00 -9.815320e-01 1.910020e+00 1.910081e-03 1.683576e-02 -3.206728e-02
N 1.609551e+00 -9.815320e-01 6.926975e+00 2.272742e-03 1.643375e-02 1.235450e-03
N 1.609551e+00 -9.815320e-01 -3.370038e+00 -1.743494e-02 2.724369e-02 1.722932e-02
N 3.128588e+00 1.806291e+00 1.910020e+00 1.268699e-03 -1.867164e-03 -2.047200e-02
N 3.128588e+00 1.806291e+00 6.926975e+00 -1.759143e-02 9.212454e-03 -5.294274e-03
N 3.128588e+00 1.806291e+00 -3.370038e+00 1.353206e-03 -1.648978e-03 2.587016e-02
N 6.302433e+00 -3.690969e+00 1.910020e+00 8.290893e-04 -2.242380e-02 -3.933865e-02
N 6.302433e+00 -3.690969e+00 6.926975e+00 5.488675e-04 -2.230568e-02 -4.861203e-03
N 6.302433e+00 -3.690969e+00 -3.370038e+00 8.366353e-04 3.863210e-05 2.948437e-03
N 4.738139e+00 -9.815320e-01 1.910020e+00 -1.995399e-02 2.491743e-02 -2.571072e-02
N 4.738139e+00 -9.815320e-01 6.926975e+00 -1.927039e-02 6.958143e-03 1.505176e-02
N 4.738139e+00 -9.815320e-01 -3.370038e+00 1.848003e-02 2.463153e-02 -2.918680e-03
N -3.219102e+00 1.806291e+00 1.910020e+00 2.701930e-03 -2.383075e-02 -4.026556e-02
N -3.219102e+00 1.806291e+00 6.926975e+00 2.134730e-02 -1.267769e-02 -1.338006e-02
N -3.219102e+00 1.806291e+00 -3.370038e+00 -1.589713e-02 -1.236606e-02 -1.360994e-02
N -4.525703e-02 -3.690969e+00 1.910020e+00 -1.661322e-02 -1.086016e-02 -3.594169e-02
N -4.525703e-02 -3.690969e+00 6.926975e+00 -1.651040e-02 -1.104437e-02 1.061241e-02
N -4.525703e-02 -3.690969e+00 -3.370038e+00 -1.629664e-02 -1.069163e-02 1.011023e-02
N -1.609551e+00 -9.815320e-01 1.910020e+00 9.758629e-04 3.609722e-02 -4.492963e-02
N -1.609551e+00 -9.815320e-01 6.926975e+00 4.986207e-04 3.538198e-02 -1.063876e-02
N -1.609551e+00 -9.815320e-01 -3.370038e+00 -1.726889e-02 7.146111e-03 1.463302e-02
