108
Energy=-2.771215e+06 Lattice="9.691328e+00 0.000000e+00 0.000000e+00 -4.845322e+00 8.387227e+00 0.000000e+00 2.772606e-02 1.424931e-02 1.572591e+01" Stress="2.981799e-04 7.537664e-05 1.260949e-03 7.318070e-05 1.162288e-05 6.528616e-04 1.280323e-03 6.692123e-04 -6.649329e-04" Properties=species:S:1:pos:R:3:forces:R:3 Config_type=AlGaN_super3_51_2_10.xyz
Al 1.593404e+00 8.892356e-01 2.474451e+00 -2.454361e-04 -2.512651e-04 1.585773e-04
Al 1.605011e+00 8.983000e-01 7.712864e+00 9.492247e-05 -1.070726e-04 1.210642e-04
Ga 1.585678e+00 8.875873e-01 -2.768446e+00 1.664222e-04 1.229485e-04 7.590843e-05
Ga -2.584948e-02 3.676687e+00 2.476268e+00 -4.716454e-04 -5.586421e-04 2.812711e-04
Ga -5.834266e-03 3.684249e+00 7.707282e+00 -2.870598e-05 1.283581e-04 1.368799e-04
Ga -2.979362e-02 3.680904e+00 -2.762050e+00 3.354437e-05 8.566990e-05 -2.536477e-04
Ga 3.199261e+00 -1.905158e+00 2.476602e+00 -5.646745e-04 -5.618134e-04 2.331754e-04
Ga 3.215384e+00 -1.890625e+00 7.707545e+00 3.181364e-05 1.119062e-04 1.226830e-04
Ga 3.199788e+00 -1.908095e+00 -2.764175e+00 1.249481e-04 2.099753e-04 1.181452e-04
Ga -4.873976e+00 8.990919e-01 2.476437e+00 -4.749153e-04 -4.623677e-04 2.188308e-04
Ga -4.866332e+00 9.005010e-01 7.707529e+00 1.516981e-04 2.051706e-05 1.174547e-04
Ga -4.877580e+00 8.905847e-01 -2.763543e+00 2.294952e-04 2.246596e-04 1.780657e-04
Ga -6.477867e+00 3.676600e+00 2.475871e+00 -5.047744e-04 -5.291577e-04 3.210428e-04
Ga -6.474073e+00 3.685475e+00 7.707577e+00 -2.461640e-05 9.859322e-05 1.207251e-04
Ga -6.488901e+00 3.681803e+00 -2.763978e+00 4.725271e-05 1.987110e-04 1.510515e-04
Ga -3.251050e+00 -1.904627e+00 2.475306e+00 -5.983692e-04 -5.856327e-04 1.868464e-04
Ga -3.239448e+00 -1.896774e+00 7.717342e+00 -1.285228e-06 7.549038e-05 1.450249e-04
Ga -3.258982e+00 -1.907612e+00 -2.767383e+00 9.644147e-05 2.304148e-04 1.256432e-04
Ga -1.630357e+00 9.004095e-01 2.475307e+00 -5.544000e-04 -5.204150e-04 2.854466e-04
Ga -1.616858e+00 9.016878e-01 7.708354e+00 1.808075e-04 -1.307222e-04 9.908830e-05
Ga -1.644802e+00 8.913586e-01 -2.764953e+00 2.852488e-04 3.951112e-05 5.489278e-04
Al -3.252195e+00 3.686380e+00 2.474797e+00 -4.436756e-04 -5.038938e-04 1.564434e-04
Ga -3.240860e+00 3.695122e+00 7.715132e+00 7.416645e-05 -3.423799e-05 2.582654e-04
Ga -3.260125e+00 3.684946e+00 -2.764881e+00 1.456417e-04 7.381897e-05 3.324771e-05
Ga -1.079787e-02 -1.903935e+00 2.476797e+00 -4.579934e-04 -6.006175e-04 2.219299e-04
Ga -3.642806e-03 -1.888701e+00 7.707462e+00 1.234435e-04 2.014386e-05 8.497983e-05
Ga -2.625251e-02 -1.906451e+00 -2.763662e+00 1.610758e-04 9.277213e-05 1.557744e-04
Ga -1.415029e-03 1.819750e+00 5.092806e+00 -1.105394e-04 3.545564e-04 1.647579e-04
Ga -2.710392e-02 1.813959e+00 -5.402053e+00 -1.839352e-04 2.887401e-04 1.537213e-04
Ga -1.252020e-02 1.824886e+00 -1.325360e-01 -1.158630e-03 -7.827219e-04 2.944221e-04
Ga 3.208654e+00 -3.768498e+00 5.082136e+00 -1.140284e-04 2.384626e-04 1.828544e-04
Ga 3.198108e+00 -3.773921e+00 -5.390120e+00 -5.062495e-05 2.671220e-04 6.884510e-05
Ga 3.209812e+00 -3.764928e+00 -1.318876e-01 -1.378417e-03 -9.180224e-04 9.488635e-05
Ga 1.602527e+00 -9.536858e-01 5.093529e+00 -2.094159e-04 1.612088e-04 1.810151e-04
Ga 1.583201e+00 -9.713187e-01 -5.402450e+00 -2.231611e-04 2.021549e-04 1.354174e-04
Ga 1.600365e+00 -9.605629e-01 -1.313813e-01 -1.325025e-03 -7.951724e-04 -8.146690e-06
Ga 3.202415e+00 1.821022e+00 5.092853e+00 -7.261672e-05 6.793215e-05 2.157726e-04
Ga 3.189591e+00 1.814711e+00 -5.402595e+00 -4.742855e-06 1.328257e-04 1.909545e-04
Ga 3.206930e+00 1.827905e+00 -1.322671e-01 -9.478424e-04 -1.104191e-03 8.088141e-05
Ga 6.446808e+00 -3.762301e+00 5.094093e+00 -1.366947e-04 1.107599e-04 1.239948e-04
Ga 6.426928e+00 -3.774827e+00 -5.389718e+00 8.921191e-07 1.133562e-04 6.822154e-05
Ga 6.442970e+00 -3.761909e+00 -1.428391e-01 -8.332763e-04 -9.073148e-04 4.201176e-05
Ga 4.832991e+00 -9.677025e-01 5.094536e+00 -2.003901e-04 6.057443e-05 6.421507e-05
Ga 4.811680e+00 -9.767488e-01 -5.389870e+00 -1.597138e-04 1.008654e-04 8.640286e-05
Ga 4.829207e+00 -9.651459e-01 -1.422012e-01 -1.232150e-03 -1.103695e-03 -2.537855e-04
Ga -3.245057e+00 1.837247e+00 5.081539e+00 -2.221684e-04 1.603416e-04 1.443926e-04
Ga -3.265522e+00 1.818489e+00 -5.390405e+00 -4.052718e-05 9.044404e-05 2.122556e-04
Ga -3.249690e+00 1.837516e+00 -1.306002e-01 -8.849439e-04 -1.281517e-03 -8.305599e-05
Ga -6.953090e-03 -3.767025e+00 5.081715e+00 -9.278779e-05 1.640998e-04 1.696371e-04
Ga -3.464196e-02 -3.772139e+00 -5.390306e+00 -4.363521e-05 2.007808e-04 1.312868e-04
Ga -1.274418e-02 -3.763217e+00 -1.309007e-01 -9.987175e-04 -9.253516e-04 -8.701677e-05
Ga -1.629205e+00 -9.660770e-01 5.094126e+00 -2.111683e-04 -8.252084e-05 8.434407e-05
Ga -1.646839e+00 -9.761547e-01 -5.389916e+00 -1.281544e-04 1.470125e-04 1.537005e-04
Ga -1.631419e+00 -9.656135e-01 -1.419603e-01 -1.243647e-03 -7.055677e-04 -3.238689e-04
N 1.599452e+00 8.959140e-01 4.393796e+00 1.735656e-04 -1.726000e-04 -8.162475e-05
N 1.580007e+00 8.864086e-01 -6.089348e+00 2.634189e-04 -1.387749e-04 -4.182492e-05
N 1.593909e+00 8.951602e-01 -7.887383e-01 6.699616e-04 2.856350e-04 -2.211661e-04
N -1.467312e-02 3.689562e+00 4.459278e+00 3.982718e-05 -3.812759e-04 -1.812973e-04
N -3.393260e-02 3.682153e+00 -6.034362e+00 8.176976e-05 -2.189008e-04 -1.169755e-04
N -2.328729e-02 3.687983e+00 -7.754714e-01 5.947899e-04 4.273432e-04 -1.811243e-04
N 3.213621e+00 -1.897469e+00 4.459309e+00 5.545286e-05 -3.022164e-04 -1.296547e-04
N 3.196791e+00 -1.909431e+00 -6.034144e+00 1.545531e-04 -1.625468e-04 -9.225462e-05
N 3.207225e+00 -1.902407e+00 -7.765188e-01 7.744732e-04 5.395026e-04 -9.998367e-05
N -4.864397e+00 8.988122e-01 4.459202e+00 7.939336e-05 -1.645197e-04 -1.621651e-04
N -4.881026e+00 8.874750e-01 -6.033952e+00 1.397924e-04 -1.439123e-05 -2.014857e-04
N -4.868434e+00 8.988626e-01 -7.755261e-01 7.524913e-04 6.913423e-04 -2.580921e-04
N -6.475564e+00 3.689750e+00 4.458901e+00 -3.350868e-05 -2.589940e-04 -1.890562e-04
N -6.494420e+00 3.682883e+00 -6.033824e+00 8.266059e-06 -1.653372e-04 -1.951269e-04
N -6.478798e+00 3.689807e+00 -7.761565e-01 5.363000e-04 4.858269e-04 -2.219900e-04
N -3.244463e+00 -1.898024e+00 4.454366e+00 1.469429e-05 -2.205044e-04 -1.514851e-04
N -3.263867e+00 -1.908536e+00 -6.026556e+00 7.172519e-05 -1.008830e-04 -5.575966e-05
N -3.251257e+00 -1.900483e+00 -7.844380e-01 7.045387e-04 5.424846e-04 -1.817298e-04
N -1.628125e+00 8.998677e-01 4.457819e+00 1.203296e-04 -2.389134e-04 -3.079461e-05
N -1.650705e+00 8.886999e-01 -6.033150e+00 1.849200e-04 -1.751186e-04 -2.357990e-04
N -1.638373e+00 8.998342e-01 -7.756071e-01 7.866306e-04 3.353305e-04 -3.114587e-04
N -3.245693e+00 3.693540e+00 4.396128e+00 4.573330e-05 -3.736121e-04 -1.616479e-04
N -3.264712e+00 3.684069e+00 -6.028979e+00 3.307187e-05 -2.903554e-04 -1.470993e-04
N -3.251568e+00 3.692707e+00 -7.846677e-01 6.073279e-04 3.880210e-04 -1.711104e-04
N -1.169400e-02 -1.895868e+00 4.459429e+00 -3.544322e-05 -3.926727e-04 -1.399528e-04
N -3.343270e-02 -1.907632e+00 -6.034106e+00 9.508715e-05 -2.843616e-04 -1.271342e-04
N -1.733982e-02 -1.900296e+00 -7.758600e-01 7.014254e-04 2.921910e-04 -1.882103e-04
N 2.013566e-02 1.793066e+00 1.855027e+00 8.400309e-04 1.057339e-03 -3.006723e-04
N 3.697114e-02 1.801771e+00 7.085426e+00 -1.413672e-04 5.641754e-05 -1.810977e-04
N -2.754102e-02 1.817833e+00 -3.414626e+00 -4.850190e-05 8.995419e-05 -1.957494e-04
N 3.163525e+00 -3.797999e+00 1.857163e+00 9.733038e-04 1.119480e-03 1.731685e-04
N 3.218201e+00 -3.763835e+00 7.067512e+00 -2.825596e-05 2.287930e-05 -1.987963e-04
N 3.201907e+00 -3.772650e+00 -3.406208e+00 -2.733021e-05 9.863597e-05 -1.253161e-05
N 1.591351e+00 -9.268442e-01 1.855635e+00 9.273808e-04 9.685842e-04 -2.265997e-04
N 1.606388e+00 -9.120560e-01 7.085751e+00 -1.650301e-04 5.467217e-05 -1.161090e-04
N 1.587190e+00 -9.744483e-01 -3.415346e+00 -1.085735e-04 2.897869e-05 -1.350105e-04
N 3.161783e+00 1.793409e+00 1.853369e+00 7.736128e-04 9.208965e-04 1.939681e-04
N 3.172300e+00 1.803072e+00 7.085654e+00 -1.972001e-05 -4.929365e-05 -1.934654e-04
N 3.198126e+00 1.818838e+00 -3.415092e+00 1.523886e-05 -4.818544e-05 -1.816123e-04
N 6.436068e+00 -3.774452e+00 1.837885e+00 9.013469e-04 9.528161e-04 6.471146e-05
N 6.450364e+00 -3.760232e+00 7.074147e+00 4.064611e-05 -1.305744e-04 -1.437381e-04
N 6.430637e+00 -3.773934e+00 -3.404416e+00 1.359040e-04 3.154758e-06 -7.527690e-05
N 4.819527e+00 -9.763227e-01 1.837755e+00 9.555509e-04 1.037286e-03 1.972857e-04
N 4.837010e+00 -9.659422e-01 7.074280e+00 -1.261238e-04 -1.044232e-04 -1.095642e-04
N 4.815381e+00 -9.745958e-01 -3.404425e+00 -8.831890e-05 -1.666584e-04 -1.460187e-04
N -3.255881e+00 1.867950e+00 1.859525e+00 8.943946e-04 9.780352e-04 -1.469712e-04
N -3.241400e+00 1.832935e+00 7.066958e+00 -8.877365e-05 1.683426e-05 -7.908030e-05
N -3.261315e+00 1.819922e+00 -3.405957e+00 -5.487461e-05 2.539439e-05 -2.123047e-04
N 1.720300e-02 -3.797187e+00 1.858667e+00 8.969806e-04 1.150992e-03 -2.345670e-06
N -8.464984e-03 -3.762033e+00 7.067132e+00 -5.777839e-05 -7.761673e-05 -1.388730e-04
N -3.074468e-02 -3.770879e+00 -3.406155e+00 8.172818e-05 3.991122e-05 -1.097176e-04
N -1.637187e+00 -9.751831e-01 1.838098e+00 8.334336e-04 9.034660e-04 1.129081e-04
N -1.625374e+00 -9.649823e-01 7.073897e+00 -1.697709e-04 -5.942980e-06 -2.419481e-05
N -1.642278e+00 -9.746432e-01 -3.404244e+00 -1.360883e-04 -1.754743e-05 -2.272707e-04
