108
Energy=-1.764153e+06 Lattice="9.554758e+00 0.000000e+00 0.000000e+00 -4.777828e+00 8.276236e+00 0.000000e+00 -7.155977e-04 -4.117828e-03 1.545448e+01" Stress="1.700231e-05 -1.645579e-05 4.291015e-06 -2.281897e-05 2.094426e-04 -1.118092e-04 7.685401e-06 -1.236976e-04 -3.052737e-04" Properties=species:S:1:pos:R:3:forces:R:3 Config_type=AlGaN_super3_29_1_54.xyz
Al 1.578337e+00 8.683477e-01 2.400566e+00 3.048751e-05 -6.981909e-06 1.030569e-06
Al 1.549713e+00 8.892391e-01 7.584932e+00 7.619403e-06 -2.047345e-05 2.220306e-05
Al 1.569310e+00 8.914510e-01 -2.700531e+00 4.756580e-06 -3.340063e-06 3.198720e-05
Al -1.887337e-02 3.651544e+00 2.428555e+00 -3.722876e-05 -4.440774e-06 -1.617033e-05
Al -1.883822e-02 3.629472e+00 7.563730e+00 9.494481e-05 1.105973e-04 -3.448805e-05
Al -1.317866e-02 3.635360e+00 -2.712995e+00 -1.829727e-06 6.641505e-06 3.790251e-05
Al 3.150629e+00 -1.882221e+00 2.407061e+00 1.377276e-05 2.725820e-05 3.712753e-05
Ga 3.171400e+00 -1.887178e+00 7.568003e+00 3.481752e-06 -6.380104e-06 3.260233e-05
Ga 3.171445e+00 -1.871918e+00 -2.690157e+00 -5.949223e-06 -3.291060e-06 5.169899e-05
Al -4.816704e+00 8.786123e-01 2.432151e+00 -5.865340e-06 2.089144e-05 5.538786e-05
Ga -4.794558e+00 8.722167e-01 7.568455e+00 -8.527119e-06 -2.066489e-05 5.720504e-05
Al -4.809443e+00 8.736120e-01 -2.707252e+00 1.259261e-05 -8.139881e-06 4.682799e-05
Ga -6.410360e+00 3.630508e+00 2.400448e+00 1.222204e-06 -2.145651e-05 2.175027e-05
Ga -6.416229e+00 3.639346e+00 7.580759e+00 -2.370130e-05 7.505890e-06 2.452859e-05
Ga -6.400943e+00 3.635256e+00 -2.695204e+00 -2.054108e-05 -1.774888e-06 4.386612e-05
Ga -3.210079e+00 -1.893227e+00 2.440299e+00 1.450105e-05 -2.915917e-05 6.069960e-05
Al -3.199637e+00 -1.883065e+00 7.556163e+00 -6.652420e-07 -2.390021e-05 1.033493e-05
Al -3.211170e+00 -1.877367e+00 -2.713301e+00 -1.153634e-06 -1.218012e-06 1.169449e-05
Ga -1.609051e+00 8.762740e-01 2.449458e+00 2.437798e-06 -9.112629e-06 3.524060e-05
Al -1.605662e+00 8.720305e-01 7.571881e+00 8.167930e-05 -7.139029e-05 -9.996185e-05
Ga -1.603710e+00 8.789946e-01 -2.740428e+00 4.099155e-06 -4.331726e-06 2.800096e-05
Ga -3.193252e+00 3.646565e+00 2.427533e+00 -8.675128e-06 -3.460806e-05 5.192487e-05
Ga -3.189800e+00 3.629355e+00 7.560740e+00 8.221457e-06 3.716937e-05 3.365834e-05
Ga -3.207733e+00 3.641916e+00 -2.694281e+00 1.349568e-06 -1.372108e-05 3.579626e-05
Al -9.119554e-03 -1.868785e+00 2.420974e+00 -1.095722e-05 -1.729830e-05 4.339745e-05
Ga -4.059455e-02 -1.862878e+00 7.589571e+00 -2.344028e-06 -6.307100e-06 4.294608e-05
Ga -2.998321e-02 -1.874464e+00 -2.718994e+00 -1.729946e-05 -1.544684e-05 2.516622e-05
Ga -2.753216e-02 1.810738e+00 5.001977e+00 5.698317e-06 -4.460839e-06 2.596784e-05
Al -2.018757e-02 1.799488e+00 -5.314410e+00 3.000005e-05 -2.003041e-05 3.427381e-05
Ga -1.728964e-03 1.817780e+00 -1.345911e-01 2.210022e-05 -1.594306e-05 5.996771e-05
Al 3.178400e+00 -3.724924e+00 4.984820e+00 3.066098e-06 -1.263116e-04 -4.167524e-06
Ga 3.168695e+00 -3.732056e+00 -5.291930e+00 3.557866e-06 -7.411835e-06 4.887179e-05
Al 3.172266e+00 -3.714404e+00 -1.339074e-01 -7.925943e-06 -1.331669e-05 3.819837e-05
Ga 1.563340e+00 -9.631393e-01 4.981651e+00 -3.870781e-05 -7.799320e-06 3.475450e-05
Ga 1.551715e+00 -9.442607e-01 -5.291884e+00 -1.138059e-07 -1.737035e-05 3.964011e-05
Al 1.570326e+00 -9.617328e-01 -1.293006e-01 9.307407e-06 -7.010869e-06 2.346487e-05
Ga 3.157151e+00 1.799296e+00 4.989688e+00 2.101585e-06 -3.811265e-06 3.873378e-05
Ga 3.147854e+00 1.801793e+00 -5.278965e+00 8.013920e-06 -1.859631e-05 3.782993e-05
Al 3.159129e+00 1.794213e+00 -1.468808e-01 -4.507630e-05 -8.198103e-05 1.250398e-05
Al 6.331311e+00 -3.713937e+00 5.011544e+00 -2.318843e-06 -2.101009e-05 4.583013e-05
Ga 6.343898e+00 -3.708038e+00 -5.295816e+00 4.082710e-06 -1.801121e-05 1.828157e-05
Al 6.339055e+00 -3.723074e+00 -1.613016e-01 1.613058e-05 -6.893233e-05 -7.421445e-05
Ga 4.762189e+00 -9.690560e-01 4.979481e+00 3.252886e-05 -2.099146e-05 4.061397e-05
Ga 4.777442e+00 -9.612952e-01 -5.283615e+00 1.228413e-07 -2.316043e-05 4.188693e-05
Ga 4.747647e+00 -9.594600e-01 -1.314557e-01 -3.683046e-05 -1.781036e-05 9.595666e-05
Al -3.199206e+00 1.791973e+00 5.003063e+00 2.415904e-05 -1.915658e-05 3.222688e-05
Ga -3.195389e+00 1.800088e+00 -5.295499e+00 -1.358244e-05 -1.057356e-05 4.255466e-05
Ga -3.224436e+00 1.807931e+00 -1.426947e-01 8.139348e-06 -2.474077e-05 3.421377e-05
Ga -2.521529e-02 -3.711720e+00 4.979130e+00 -2.152984e-05 -1.596343e-05 3.998146e-05
Al -2.692413e-02 -3.710112e+00 -5.295297e+00 -4.030967e-06 -1.973311e-05 2.653433e-05
Al -2.153836e-02 -3.710960e+00 -1.230001e-01 2.211718e-05 3.740289e-06 5.321592e-05
Al -1.619596e+00 -9.629853e-01 5.010076e+00 -4.274950e-06 -5.209093e-06 5.338674e-05
Al -1.618826e+00 -9.581503e-01 -5.311092e+00 -1.421622e-06 -3.411309e-05 1.027538e-05
Ga -1.606526e+00 -9.797330e-01 -1.416297e-01 2.166259e-05 -1.927215e-05 4.124145e-05
N 1.566093e+00 8.791529e-01 4.308167e+00 1.968458e-06 2.545420e-05 -2.704409e-05
N 1.528952e+00 9.079731e-01 -5.957115e+00 1.511175e-06 2.640674e-05 -2.313084e-05
N 1.606591e+00 8.542020e-01 -7.730108e-01 3.138408e-05 3.968027e-05 -2.896424e-05
N -1.734008e-02 3.687737e+00 4.353101e+00 -2.779470e-05 3.253024e-05 -3.192951e-05
N -2.027911e-02 3.594420e+00 -5.969048e+00 -2.132834e-05 1.546644e-05 -4.190774e-05
N -2.587180e-02 3.683114e+00 -7.933989e-01 8.968481e-06 3.159341e-05 -2.327041e-05
N 3.155573e+00 -1.931354e+00 4.330529e+00 -2.708758e-05 1.933128e-05 -2.967272e-05
N 3.163560e+00 -1.877525e+00 -5.912367e+00 3.593628e-06 1.818699e-05 -4.220789e-05
N 3.119838e+00 -1.902129e+00 -7.110047e-01 1.648963e-05 2.137661e-05 -5.872578e-05
N -4.761557e+00 9.071072e-01 4.348055e+00 -2.019676e-06 1.249348e-05 -5.995468e-05
N -4.801913e+00 8.831811e-01 -5.920111e+00 8.477317e-06 1.770100e-05 -5.061615e-05
N -4.843421e+00 9.005159e-01 -7.979714e-01 1.501000e-05 2.229035e-05 -4.451987e-05
N -6.445308e+00 3.663019e+00 4.381350e+00 -1.256174e-07 9.246617e-06 -3.292162e-05
N -6.358133e+00 3.662665e+00 -5.895936e+00 -5.285506e-06 1.735552e-05 -1.477646e-05
N -6.388486e+00 3.638801e+00 -6.984311e-01 -2.581410e-05 7.847974e-05 -2.446206e-05
N -3.160835e+00 -1.911210e+00 4.415281e+00 -1.045732e-05 4.502855e-05 -5.762356e-05
N -3.164550e+00 -1.855980e+00 -5.975540e+00 -1.095871e-05 2.790269e-05 -1.225860e-05
N -3.207439e+00 -1.922090e+00 -7.972304e-01 -4.261659e-06 3.731831e-05 -4.560577e-05
N -1.652123e+00 8.516526e-01 4.425028e+00 -2.882212e-06 2.887147e-05 -1.210856e-05
N -1.570792e+00 8.565519e-01 -5.940238e+00 -1.186776e-05 2.518942e-05 2.650991e-06
N -1.606856e+00 8.811544e-01 -7.673711e-01 -1.134682e-05 1.908612e-05 -5.346040e-05
N -3.161589e+00 3.611828e+00 4.411978e+00 3.401931e-05 6.351912e-05 -1.264938e-05
N -3.246504e+00 3.664150e+00 -5.913806e+00 8.220547e-06 2.635476e-06 -3.543029e-05
N -3.207417e+00 3.692790e+00 -7.125414e-01 4.799614e-06 8.922926e-06 -3.975735e-05
N -6.667845e-02 -1.850920e+00 4.336681e+00 1.948712e-05 3.018479e-05 -2.646057e-05
N -6.658482e-02 -1.898994e+00 -5.882720e+00 7.231213e-06 1.596638e-05 -3.290221e-05
N 2.222637e-02 -1.904974e+00 -7.382253e-01 -1.313497e-05 2.154153e-05 -2.995284e-05
N 1.836013e-02 1.829866e+00 1.847874e+00 -1.843556e-05 2.464988e-05 -9.704528e-06
N -2.345415e-02 1.799254e+00 6.994123e+00 -9.075844e-05 -1.057259e-04 1.189046e-05
N 2.748647e-02 1.828883e+00 -3.371503e+00 -1.262647e-05 -1.901662e-06 -3.498760e-05
N 3.211488e+00 -3.699478e+00 1.786013e+00 2.117309e-05 -1.592702e-06 -3.235923e-06
N 3.210951e+00 -3.743561e+00 6.904719e+00 -3.065887e-05 1.755209e-05 -2.614844e-07
N 3.206517e+00 -3.741856e+00 -3.317074e+00 -7.652224e-06 1.152286e-05 -3.675161e-05
N 1.567289e+00 -9.596859e-01 1.801170e+00 -3.654278e-05 -1.933010e-05 -3.086705e-05
N 1.566935e+00 -9.116727e-01 6.965335e+00 -1.647091e-05 4.585357e-06 -2.114933e-05
N 1.570966e+00 -9.044221e-01 -3.316733e+00 -2.901609e-06 2.288880e-06 -2.980479e-05
N 3.163794e+00 1.745733e+00 1.776487e+00 8.815643e-06 2.818891e-06 -4.834573e-06
N 3.114985e+00 1.771103e+00 6.965661e+00 1.243391e-05 1.188715e-05 -3.905141e-05
N 3.157005e+00 1.753598e+00 -3.296014e+00 3.774255e-08 6.074287e-06 -3.212170e-05
N 6.297856e+00 -3.738727e+00 1.750066e+00 1.540586e-06 2.105871e-05 3.604634e-05
N 6.300284e+00 -3.698501e+00 6.936938e+00 -3.041068e-05 -3.164448e-05 6.985377e-06
N 6.305101e+00 -3.691101e+00 -3.307832e+00 1.454332e-05 -2.270781e-06 -2.049062e-05
N 4.717501e+00 -9.358256e-01 1.853326e+00 6.000957e-06 -1.402965e-05 -1.247071e-04
N 4.794751e+00 -9.857695e-01 6.952543e+00 -7.361212e-06 1.081894e-05 -3.211268e-05
N 4.797979e+00 -9.368167e-01 -3.297295e+00 -1.113519e-05 3.492315e-06 -3.109205e-05
N -3.249967e+00 1.771454e+00 1.827579e+00 1.415427e-05 5.205333e-06 -3.688817e-05
N -3.163788e+00 1.769419e+00 6.922087e+00 1.597816e-06 6.111732e-06 -3.336208e-05
N -3.249614e+00 1.779469e+00 -3.317677e+00 -5.911918e-06 6.219514e-06 -4.323881e-05
N -2.131765e-02 -3.670482e+00 1.791298e+00 1.494883e-05 1.547158e-05 -6.178718e-05
N -2.530373e-02 -3.715278e+00 6.947063e+00 1.512481e-06 -1.804285e-07 -4.291126e-05
N -2.444647e-02 -3.720808e+00 -3.384316e+00 1.443477e-05 5.036293e-06 -3.320555e-05
N -1.578163e+00 -9.844179e-01 1.823703e+00 -1.334427e-05 -2.576459e-06 -3.469898e-05
N -1.653687e+00 -9.366724e-01 6.933999e+00 5.645704e-07 6.556843e-05 1.097858e-05
N -1.661921e+00 -9.844115e-01 -3.387399e+00 1.225221e-05 -2.515540e-06 -2.335588e-05
