108
Energy=-802866.853775 Lattice="9.466140 0.000000 0.000000 -4.740306 8.187112 0.000000 0.005912 0.001993 15.246096" Stress="0.000034 0.000025 -0.000003 0.000025 0.000044 -0.000001 -0.000003 -0.000001 0.000070" Properties=species:S:1:pos:R:3:forces:R:3
Al 1.562543 0.882940 2.408981 -0.000823 -0.004662 -0.000242
Al 1.558917 0.875894 7.477079 0.000033 -0.000313 0.000049
Al 1.550957 0.891004 -2.719614 0.000961 -0.007425 0.000503
Al 0.006006 3.591396 2.406995 0.026456 -0.012775 0.008206
Al -0.011333 3.594599 7.480391 -0.000517 -0.002330 0.000518
Al -0.011664 3.594300 -2.706404 -0.000418 -0.000061 0.002519
Al 3.171125 -1.857019 2.431041 -0.002949 -0.003749 -0.001496
Al 3.155440 -1.873936 7.484502 0.000054 0.003288 -0.002388
Al 3.152313 -1.861529 -2.719003 0.002140 -0.003598 -0.001639
Al -4.766070 0.882228 2.411017 -0.001499 -0.003310 0.002312
Al -4.774162 0.890936 7.475963 0.000548 -0.009212 -0.000591
Al -4.776661 0.870826 -2.731069 0.000939 0.003786 0.004611
Al -6.332527 3.606185 2.406185 -0.006202 -0.003144 -0.000828
Al -6.343165 3.599741 7.477913 -0.001221 -0.001429 0.001791
Al -6.345848 3.599086 -2.708349 -0.000200 -0.001451 0.005088
Al -3.178613 -1.858761 2.418414 -0.004938 -0.006317 -0.003403
Al -3.170449 -1.874085 7.479000 -0.001323 0.003015 0.000989
Al -3.169417 -1.872001 -2.707292 -0.000315 0.000521 0.003897
Al -1.632814 0.894745 2.407760 0.010029 -0.008189 -0.006016
Al -1.635903 0.878236 7.478009 0.009364 0.007073 0.002503
Al -1.644580 0.888233 -2.712971 0.009589 -0.004316 0.000951
Al -3.210828 3.601432 2.443256 0.023972 0.001283 -0.014776
Al -3.208142 3.599279 7.483426 0.008677 0.002124 0.001721
Ga -3.208120 3.598656 -2.715839 0.010372 0.004128 0.001765
Ga -0.037222 -1.890604 2.405971 0.008940 0.010254 -0.003317
Ga -0.030423 -1.850691 7.485201 0.010804 0.004890 -0.001544
Al -0.044467 -1.868973 -2.716062 0.008305 0.003482 0.000154
Al -0.005787 1.793109 4.947042 -0.006495 -0.003937 0.000780
Al -0.015215 1.786895 -5.245475 -0.008523 -0.004532 0.000314
Al -0.012122 1.782303 -0.157822 -0.008526 -0.002265 -0.000049
Ga 3.155667 -3.685173 4.952004 -0.005704 -0.002892 -0.002060
Al 3.153808 -3.690784 -5.249629 -0.006365 -0.003777 0.000923
Ga 3.151971 -3.683264 -0.154640 -0.003035 -0.006347 0.008612
Al 1.573185 -0.964598 4.942367 0.002707 0.010259 -0.000726
Al 1.587140 -0.971802 -5.236780 -0.009059 0.007062 -0.000584
Al 1.589000 -0.964072 -0.218171 -0.010252 0.006784 0.016901
Al 3.123522 1.790955 4.947201 -0.000574 -0.002693 0.000756
Al 3.118153 1.794420 -5.247269 -0.000431 -0.001955 0.002359
Al 3.112451 1.791199 -0.139809 0.004296 0.000235 -0.004961
Al 6.299657 -3.683969 4.948730 -0.000628 -0.000196 0.000452
Al 6.293912 -3.685921 -5.241893 -0.001070 -0.000844 0.003194
Al 6.298839 -3.683601 -0.152610 -0.001178 0.001111 0.003475
Al 4.724383 -0.965015 4.957831 -0.001955 0.008526 -0.000703
Ga 4.726415 -0.969388 -5.235980 -0.000760 0.010652 -0.000110
Ga 4.722793 -0.947492 -0.166155 0.001037 0.009129 0.008564
Al -3.207041 1.797453 4.952804 -0.000441 -0.002994 -0.000579
Al -3.208614 1.792160 -5.251287 0.002238 -0.001179 0.001823
Al -3.205354 1.783160 -0.134820 -0.000111 0.001765 -0.006228
Al -0.030227 -3.690047 4.959167 -0.002927 0.006155 -0.000464
Al -0.040601 -3.679352 -5.242104 0.001530 -0.000955 0.001664
Al -0.041475 -3.667329 -0.139865 0.002838 -0.006360 -0.007061
Ga -1.596031 -0.954699 4.957062 -0.001090 0.009299 -0.002499
Al -1.602039 -0.967247 -5.237461 -0.001732 0.010927 0.000783
Al -1.597121 -0.962746 -0.161090 -0.003677 0.007984 -0.003363
N 1.553150 0.891121 4.344372 0.000762 -0.007597 -0.001743
N 1.550863 0.884991 -5.842909 0.000590 -0.009983 0.000371
N 1.551098 0.889760 -0.787105 0.001225 -0.008943 0.002743
N 0.002264 3.594328 4.341810 0.011266 -0.008335 -0.005423
N -0.015688 3.596223 -5.843898 -0.000535 0.000534 -0.001905
N -0.004271 3.591592 -0.770077 0.012039 -0.007885 -0.009375
N 3.153551 -1.856741 4.353990 -0.002243 0.014658 -0.006059
N 3.143446 -1.881689 -5.841017 -0.014835 -0.005886 -0.007610
N 3.148148 -1.865066 -0.800863 -0.014377 0.007794 -0.007497
N -4.773603 0.890499 4.348890 0.002371 -0.007507 -0.000087
N -4.780078 0.901646 -5.850693 0.000574 0.004074 -0.004186
N -4.776035 0.925571 -0.815813 -0.000674 -0.000819 0.010150
N -6.339005 3.601913 4.345320 0.001280 0.002009 -0.003215
N -6.348369 3.601751 -5.843779 0.000788 0.000895 -0.002244
N -6.342258 3.600753 -0.764356 -0.000501 0.001556 -0.000604
N -3.178902 -1.874930 4.348506 -0.011246 -0.005217 -0.006943
N -3.161744 -1.880478 -5.843838 0.012938 -0.006477 -0.006809
N -3.161583 -1.873339 -0.772950 0.010533 -0.006333 -0.006584
N -1.637003 0.915146 4.339913 0.008718 0.006590 -0.005989
N -1.642991 0.888111 -5.844527 0.009732 -0.005841 0.002507
N -1.642931 0.891471 -0.774505 0.009805 -0.005732 0.004534
N -3.232814 3.602115 4.321168 0.001327 -0.004216 0.005563
N -3.213722 3.602167 -5.842744 0.007182 0.004280 -0.000040
N -3.225329 3.583917 -0.770996 -0.001900 0.003228 0.018598
N 0.000052 -1.856691 4.358670 0.008277 -0.012577 0.008259
N -0.037132 -1.865580 -5.823739 0.008321 0.003309 0.015290
N -0.039511 -1.865417 -0.785223 0.009353 0.002530 0.003906
N -0.000862 1.785657 1.784405 -0.008628 -0.007585 0.000646
N -0.008373 1.783117 6.877356 -0.008419 -0.003252 -0.000235
N -0.015370 1.788119 -3.317231 -0.008418 -0.004913 0.000570
N 3.349307 -3.666721 1.831116 -0.073830 0.011698 -0.001659
N 3.157884 -3.687526 6.894948 -0.009614 -0.003123 0.015334
N 3.184312 -3.679102 -3.335223 -0.000941 0.005216 0.000655
N 1.599760 -0.943738 1.830408 0.003315 -0.001178 -0.021460
N 1.614845 -0.930021 6.863529 -0.001433 -0.001068 -0.000162
N 1.586510 -0.968633 -3.315695 -0.009602 0.004979 0.003784
N 3.133867 1.789721 1.792663 -0.000634 -0.000472 -0.000433
N 3.124502 1.790359 6.876269 0.000967 0.000710 -0.001886
N 3.121751 1.789557 -3.320442 -0.000051 -0.000702 -0.001929
N 6.304681 -3.670921 1.790726 0.007331 -0.002964 0.000801
N 6.296644 -3.683528 6.877169 0.001257 0.001442 -0.001983
N 6.293334 -3.683497 -3.312079 0.000599 0.000856 -0.001484
N 4.706766 -0.950692 1.847725 0.008598 0.010853 -0.001604
N 4.727238 -0.969205 6.883810 -0.000327 0.007644 -0.000188
N 4.735623 -0.944141 -3.291092 -0.003939 -0.002632 0.011972
N -3.201534 1.800272 1.796113 0.003022 -0.002492 -0.000506
N -3.203111 1.788989 6.879232 0.001551 0.001911 -0.003748
N -3.208861 1.775646 -3.328720 0.002266 -0.014921 -0.007721
N -0.009182 -3.730861 1.782710 0.000299 -0.001346 -0.004723
N -0.034005 -3.686198 6.879889 0.002125 -0.012955 -0.007999
N -0.048676 -3.676411 -3.319786 -0.011596 0.008716 -0.006319
N -1.636044 -1.003139 1.755011 -0.002700 0.027015 0.004751
N -1.612466 -0.921782 6.898052 -0.012726 0.001244 0.006880
N -1.605575 -0.966964 -3.313289 -0.000134 0.008680 0.000486
