108
Energy=-1626826.681917 Lattice="9.547503 0.000000 0.000000 -4.786280 8.263606 0.000000 -0.068956 0.007001 15.400355" Stress="0.000008 -0.000006 -0.000015 -0.000006 0.000005 0.000002 -0.000015 0.000002 -0.000008" Properties=species:S:1:pos:R:3:forces:R:3
Al 1.559107 0.869799 2.432733 0.000217 -0.000053 0.000129
Al 1.524757 0.885413 7.540929 0.000678 -0.000196 -0.000314
Al 1.589673 0.866993 -2.722291 -0.000044 -0.000224 0.000103
Al -0.032656 3.649443 2.426714 0.000915 0.000037 -0.000444
Al -0.043724 3.633526 7.507396 -0.000078 0.000134 0.000129
Ga -0.003398 3.627858 -2.682130 -0.000243 0.000236 0.000336
Al 3.163603 -1.863457 2.405909 -0.000930 0.000052 -0.000288
Ga 3.128326 -1.868405 7.542639 -0.000165 0.000206 0.000179
Ga 3.187984 -1.854497 -2.698371 -0.000254 0.000067 0.000350
Al -4.815589 0.862643 2.394622 -0.000017 -0.000140 0.000151
Ga -4.850238 0.875281 7.574282 0.000138 -0.000116 0.000664
Al -4.784750 0.861739 -2.713121 0.000095 -0.000286 -0.000123
Ga -6.431041 3.636802 2.434951 -0.000210 -0.000060 0.000441
Al -6.444332 3.644090 7.530354 0.000241 0.000196 0.000028
Ga -6.393098 3.617090 -2.709395 -0.000038 0.000042 0.000529
Al -3.228124 -1.876441 2.392738 -0.000875 -0.000987 0.001371
Al -3.235556 -1.890148 7.545582 0.000027 0.000127 0.000086
Al -3.193983 -1.861403 -2.690336 0.000039 0.000226 0.000311
Ga -1.628566 0.877056 2.409231 0.000082 -0.000021 0.000250
Ga -1.628967 0.878423 7.537410 0.000152 -0.000249 0.000279
Al -1.607534 0.867671 -2.684422 0.000012 -0.000353 -0.000176
Ga -3.209489 3.635519 2.424702 -0.000093 -0.000012 0.000369
Ga -3.247358 3.651511 7.526079 -0.000014 -0.000004 0.000017
Ga -3.187839 3.616982 -2.680584 0.000162 -0.000062 0.000334
Ga -0.022557 -1.855837 2.421898 0.000096 -0.000063 0.000508
Al -0.051779 -1.870746 7.535120 0.000022 0.000064 -0.000017
Ga -0.003900 -1.846549 -2.696915 0.000052 0.000086 0.000399
Al -0.033210 1.811232 4.970804 0.000526 -0.000610 -0.000179
Ga 0.022324 1.785875 -5.275660 -0.000190 0.000033 0.000179
Ga -0.019440 1.789626 -0.140576 -0.000099 0.000287 -0.000110
Al 3.153995 -3.705908 4.962855 -0.000701 0.000774 -0.001225
Ga 3.202588 -3.704368 -5.290064 -0.000217 0.000087 0.000307
Al 3.179342 -3.699073 -0.111866 0.000194 -0.000338 -0.000178
Al 1.546041 -0.956932 4.978874 -0.000388 -0.000413 -0.000105
Al 1.607130 -0.947484 -5.298723 -0.000372 0.000278 -0.000131
Al 1.585235 -0.953644 -0.129929 -0.000189 0.000303 0.000259
Ga 3.115739 1.798776 4.980859 -0.000046 -0.000180 0.000294
Al 3.172807 1.777498 -5.287976 0.000028 -0.000338 -0.000321
Ga 3.161443 1.773814 -0.137054 0.000066 0.000119 -0.000038
Al 6.312362 -3.711631 4.990183 0.000430 0.000944 -0.000522
Ga 6.369869 -3.710740 -5.305880 0.000035 0.000001 0.000286
Al 6.335924 -3.689043 -0.130057 -0.000210 -0.000069 0.000481
Ga 4.724497 -0.973079 4.953550 -0.000198 -0.000254 0.000155
Al 4.775881 -0.958718 -5.265994 -0.000075 0.000251 0.000171
Al 4.763017 -0.962904 -0.139351 0.000084 0.000033 0.000154
Ga -3.234199 1.807282 4.974518 -0.000172 -0.000111 0.000130
Ga -3.196047 1.783600 -5.253559 0.000164 0.000000 -0.000104
Al -3.206448 1.779593 -0.152737 -0.000094 -0.000188 -0.000340
Al -0.043598 -3.696756 4.998694 -0.000039 0.000070 0.000208
Ga 0.002288 -3.709197 -5.295531 0.000078 0.000052 0.000035
Ga -0.010750 -3.703688 -0.137369 -0.000012 -0.000129 -0.000415
Ga -1.631580 -0.975379 4.991504 -0.000134 -0.000280 0.000178
Ga -1.590978 -0.967797 -5.280394 -0.000042 0.000086 0.000274
Al -1.627653 -0.958320 -0.153344 -0.000200 0.000135 0.000172
N 1.500831 0.849797 4.347140 0.000149 0.000259 0.000046
N 1.631901 0.851829 -5.935198 -0.000080 0.000070 0.000466
N 1.574654 0.825636 -0.809374 0.000021 -0.000048 0.000164
N -0.045813 3.637915 4.361049 -0.000023 0.000090 -0.000450
N -0.001907 3.621516 -5.976259 0.000066 0.000114 -0.000039
N -0.025436 3.680927 -0.710211 -0.000144 0.000133 -0.000338
N 3.090887 -1.895433 4.330691 0.001003 0.000249 0.000628
N 3.193180 -1.828388 -5.871393 -0.000005 -0.000011 -0.000473
N 3.166434 -1.871692 -0.703030 0.000365 -0.000286 -0.000011
N -4.827378 0.879823 4.301391 0.000550 -0.000122 -0.000475
N -4.816450 0.848690 -5.848472 0.000195 -0.000068 -0.000122
N -4.757604 0.846999 -0.786044 -0.000512 0.000099 0.000339
N -6.422258 3.687423 4.415236 -0.000166 -0.000068 -0.000213
N -6.369908 3.578279 -5.943353 -0.000113 0.000542 0.000199
N -6.440267 3.650959 -0.732195 0.000230 -0.000124 -0.000764
N -3.223091 -1.925999 4.312399 0.000047 -0.000245 -0.000844
N -3.222661 -1.851992 -5.941468 -0.000006 -0.000083 -0.000290
N -3.205164 -1.876007 -0.760863 -0.000213 -0.000035 -0.000004
N -1.596071 0.898880 4.386049 -0.000326 0.000145 -0.000459
N -1.587446 0.880835 -5.896339 0.000245 -0.000174 -0.000104
N -1.649951 0.854991 -0.764739 0.000294 -0.000222 0.000036
N -3.237548 3.688939 4.405824 0.000633 -0.000604 -0.000286
N -3.182740 3.628820 -5.905836 0.000021 -0.000092 -0.000261
N -3.156470 3.610232 -0.702198 -0.000386 0.000418 -0.000290
N -0.000484 -1.894311 4.398347 0.000050 0.000421 -0.000070
N 0.050729 -1.849759 -5.941603 0.000003 -0.000176 -0.000041
N -0.010662 -1.817491 -0.716218 -0.000125 -0.000264 -0.000420
N 0.012961 1.823135 1.839094 -0.000271 0.000080 0.000618
N -0.008919 1.822260 6.893282 -0.000074 0.000310 0.000295
N -0.007994 1.746471 -3.282749 -0.000053 0.000289 -0.000246
N 3.202838 -3.685183 1.805934 -0.000307 0.000164 -0.000134
N 3.180937 -3.726159 6.876505 -0.000017 -0.000031 0.001006
N 3.188312 -3.712601 -3.322615 0.000036 0.000175 -0.000274
N 1.605808 -0.926323 1.786534 0.000207 -0.000035 -0.000236
N 1.500394 -0.927646 6.904227 0.000359 0.000022 -0.000184
N 1.591301 -0.915309 -3.381281 -0.000313 0.000197 -0.000066
N 3.140631 1.751106 1.843215 0.000054 -0.000373 -0.000171
N 3.082285 1.820921 6.960370 -0.000332 -0.000719 -0.000294
N 3.172474 1.744439 -3.353664 -0.000206 0.000291 0.000178
N 6.294454 -3.685291 1.783539 -0.000249 0.000163 0.000320
N 6.313822 -3.703337 6.919750 -0.000048 -0.000140 -0.000022
N 6.361544 -3.659337 -3.325056 0.000001 -0.000219 -0.000478
N 4.746209 -0.956106 1.791567 -0.000230 -0.000146 -0.000105
N 4.763987 -0.976970 6.927131 -0.000231 0.000020 -0.000334
N 4.815997 -0.941203 -3.340939 -0.000251 -0.000060 0.000108
N -3.261555 1.774052 1.762679 0.000373 0.000028 0.000286
N -3.249492 1.792098 6.933879 0.000143 0.000051 -0.000204
N -3.192134 1.745534 -3.274486 0.000245 0.000261 -0.000286
N -0.032022 -3.710447 1.816738 0.000372 0.000068 0.000182
N -0.097258 -3.681931 6.919438 0.000562 -0.000046 -0.000142
N 0.000264 -3.708635 -3.317643 -0.000207 -0.000079 -0.000158
N -1.665954 -0.982484 1.763729 0.000716 0.000340 -0.000452
N -1.648729 -1.008745 6.968407 -0.000140 0.000235 -0.000135
N -1.640384 -0.938383 -3.291489 -0.000108 0.000047 -0.000210
