108
Energy=-2.221903e+06 Lattice="9.484809e+00 0.000000e+00 0.000000e+00 -4.744204e+00 8.210207e+00 0.000000e+00 -4.349263e-04 4.011686e-04 1.529739e+01" Stress="-6.783745e-02 6.052709e-03 -7.230704e-05 6.052986e-03 -6.141464e-02 -3.788556e-04 -7.879932e-05 -3.783140e-04 -6.171345e-02" Properties=species:S:1:pos:R:3:forces:R:3 Config_type=AlGaN_super3_39_1_1.xyz
Al 1.562234e+00 9.022546e-01 2.470053e+00 -5.182247e-04 -1.374178e-02 -7.822553e-03
Al 1.563570e+00 9.008669e-01 7.507838e+00 -1.596810e-03 -1.271475e-02 -4.026163e-03
Ga 1.564904e+00 9.005572e-01 -2.750290e+00 -1.552180e-03 -1.714601e-02 -3.139216e-03
Al -1.190776e-03 3.611530e+00 2.475014e+00 -3.611307e-03 -3.710117e-04 -7.211364e-03
Al -3.234652e-03 3.612518e+00 7.508323e+00 -2.317418e-03 -2.308639e-03 -1.888022e-03
Ga -1.531709e-03 3.612805e+00 -2.754395e+00 -2.761505e-03 -9.548032e-04 -9.592235e-04
Ga 3.174646e+00 -1.882069e+00 2.473462e+00 -3.788239e-03 5.688540e-04 -8.883495e-03
Ga 3.175225e+00 -1.883112e+00 7.508487e+00 -2.900578e-03 1.718946e-03 -2.455023e-03
Al 3.175061e+00 -1.883731e+00 -2.755103e+00 -2.929206e-03 1.592042e-03 -2.122772e-03
Ga -4.787399e+00 9.017461e-01 2.469302e+00 -3.297334e-05 -1.509380e-02 -8.240563e-03
Al -4.787193e+00 9.007342e-01 7.507462e+00 1.633476e-03 -1.190437e-02 -3.196520e-03
Ga -4.787618e+00 9.013921e-01 -2.749960e+00 4.567673e-04 -1.582547e-02 -2.238522e-03
Al -6.355383e+00 3.614280e+00 2.469986e+00 2.007853e-04 7.874843e-05 -5.697933e-03
Ga -6.354693e+00 3.612960e+00 7.509036e+00 -5.959140e-04 -5.362375e-04 -7.494779e-04
Al -6.353615e+00 3.613392e+00 -2.751131e+00 -1.903374e-04 9.839476e-05 4.915577e-04
Ga -3.176445e+00 -1.883782e+00 2.468810e+00 2.709979e-04 2.118910e-03 -6.386501e-03
Ga -3.177109e+00 -1.881870e+00 7.508775e+00 -3.804872e-04 2.629579e-03 -1.565436e-03
Ga -3.176198e+00 -1.884066e+00 -2.749845e+00 -6.249443e-04 2.920668e-03 -2.338360e-04
Ga -1.652610e+00 9.032244e-01 2.470577e+00 1.559141e-02 -8.576706e-03 -1.061088e-02
Al -1.653681e+00 9.022223e-01 7.507298e+00 1.324438e-02 -6.751144e-03 -5.185379e-03
Ga -1.653484e+00 9.017124e-01 -2.750181e+00 1.539173e-02 -8.673570e-03 -5.325008e-03
Ga -3.221855e+00 3.613930e+00 2.474553e+00 1.434051e-02 8.609032e-03 -9.131805e-03
Ga -3.219651e+00 3.613754e+00 7.509079e+00 1.405523e-02 6.451857e-03 -3.632930e-03
Ga -3.221027e+00 3.614339e+00 -2.753547e+00 1.388886e-02 7.498559e-03 -2.739415e-03
Al -4.364883e-02 -1.881912e+00 2.469573e+00 1.197821e-02 7.049679e-03 -8.027337e-03
Ga -4.331890e-02 -1.880809e+00 7.509467e+00 1.393778e-02 9.982312e-03 -4.195489e-03
Ga -4.266079e-02 -1.883301e+00 -2.749632e+00 1.421975e-02 1.007538e-02 -2.936857e-03
Al -3.018615e-03 1.804618e+00 4.991435e+00 -1.117251e-02 -7.599821e-03 -3.040223e-03
Ga -2.663991e-03 1.804126e+00 -5.273751e+00 -1.388714e-02 -9.908263e-03 -5.080544e-03
Ga -2.945161e-03 1.805190e+00 -2.236882e-01 -1.352971e-02 -9.918411e-03 3.400819e-02
Ga 3.176166e+00 -3.693860e+00 4.992336e+00 -1.432059e-02 -7.283096e-03 -4.537289e-03
Al 3.175422e+00 -3.692813e+00 -5.272911e+00 -1.121885e-02 -5.393353e-03 -2.319635e-03
Al 3.175687e+00 -3.693662e+00 -2.470393e-01 -1.165126e-02 -4.905757e-03 3.183421e-02
Ga 1.608060e+00 -9.783237e-01 4.991317e+00 -1.496522e-02 8.428603e-03 -6.823940e-03
Ga 1.609222e+00 -9.812199e-01 -5.270853e+00 -1.514815e-02 8.899709e-03 -5.890695e-03
Ga 1.610169e+00 -9.828388e-01 -2.239522e-01 -1.509469e-02 8.929086e-03 3.137675e-02
Ga 3.130714e+00 1.804229e+00 4.990651e+00 3.320318e-04 -3.056821e-03 -1.301078e-03
Ga 3.131181e+00 1.804847e+00 -5.272162e+00 2.974597e-04 -3.759128e-03 -8.812501e-04
Ga 3.131157e+00 1.805035e+00 -2.232378e-01 1.519693e-04 -2.930625e-03 3.684037e-02
Ga 6.307235e+00 -3.692572e+00 4.991344e+00 8.381426e-05 7.054012e-05 -6.315940e-04
Ga 6.308390e+00 -3.692653e+00 -5.271235e+00 -6.995846e-04 -2.889430e-04 2.117909e-04
Ga 6.307348e+00 -3.693067e+00 -2.248384e-01 1.724958e-04 -7.876739e-04 3.824884e-02
Al 4.742197e+00 -9.777230e-01 4.991718e+00 -1.388113e-03 1.243808e-02 -1.964842e-03
Ga 4.741524e+00 -9.805153e-01 -5.270855e+00 -9.566965e-04 1.600513e-02 -2.859519e-03
Ga 4.740627e+00 -9.821749e-01 -2.243224e-01 -1.252118e-03 1.594191e-02 3.424874e-02
Al -3.219931e+00 1.804584e+00 4.992054e+00 2.691337e-03 -1.563612e-03 -1.780858e-03
Ga -3.219337e+00 1.805384e+00 -5.273010e+00 2.706206e-03 -2.008002e-03 -2.413527e-03
Ga -3.218723e+00 1.806660e+00 -2.243054e-01 2.641295e-03 -1.897832e-03 3.601732e-02
Ga -4.328279e-02 -3.691729e+00 4.990534e+00 2.920913e-03 1.168857e-03 -1.992159e-03
Ga -4.234785e-02 -3.691715e+00 -5.270380e+00 3.131639e-03 1.014349e-03 -3.341793e-04
Ga -4.095569e-02 -3.691984e+00 -2.250759e-01 2.351161e-03 8.382725e-04 3.705474e-02
Ga -1.610141e+00 -9.769006e-01 4.991067e+00 1.473572e-03 1.670770e-02 -4.428533e-03
Ga -1.609075e+00 -9.786920e-01 -5.270992e+00 1.613954e-03 1.728897e-02 -3.988251e-03
Ga -1.608921e+00 -9.792314e-01 -2.207874e-01 1.847810e-03 1.707835e-02 3.364384e-02
N 1.560956e+00 9.026315e-01 4.391070e+00 -1.877139e-02 -5.783260e-03 -1.035514e-02
N 1.564253e+00 9.002963e-01 -5.872315e+00 -9.399150e-04 -1.647797e-02 -1.718876e-02
N 1.564119e+00 9.001211e-01 -8.255851e-01 -1.292989e-03 -1.647329e-02 6.383741e-03
N -1.961158e-03 3.609713e+00 4.393232e+00 -1.803314e-03 -2.071938e-02 -1.399137e-02
N -4.702504e-03 3.614322e+00 -5.871278e+00 -1.934407e-02 1.065994e-02 -1.377888e-02
N -3.883235e-03 3.613527e+00 -8.323647e-01 -1.891447e-02 9.809819e-03 1.026248e-02
N 3.177368e+00 -1.880989e+00 4.395614e+00 1.498534e-02 1.141735e-02 7.703164e-03
N 3.175235e+00 -1.886903e+00 -5.868575e+00 -2.599992e-03 -1.868081e-02 7.559309e-03
N 3.175158e+00 -1.886722e+00 -8.353721e-01 -2.444029e-03 -1.806428e-02 -1.143782e-02
N -4.784715e+00 8.997958e-01 4.393987e+00 1.882331e-02 -2.246682e-02 1.715151e-02
N -4.786901e+00 9.007905e-01 -5.872299e+00 5.352920e-04 -1.613561e-02 -1.710581e-02
N -4.786753e+00 9.009150e-01 -8.255181e-01 7.939424e-04 -1.612090e-02 6.612122e-03
N -6.354465e+00 3.613878e+00 4.390573e+00 -7.047013e-04 2.513436e-04 -2.145383e-02
N -6.353561e+00 3.613699e+00 -5.869054e+00 -2.979703e-04 8.744099e-04 1.344671e-03
N -6.353509e+00 3.613790e+00 -8.288283e-01 -4.118304e-04 6.023193e-04 -1.840262e-02
N -3.179322e+00 -1.881287e+00 4.393443e+00 -1.836652e-02 1.184770e-02 6.985938e-03
N -3.176245e+00 -1.883379e+00 -5.868394e+00 -8.220415e-04 1.905023e-03 3.998763e-04
N -3.176094e+00 -1.883903e+00 -8.252070e-01 -6.689051e-04 2.062669e-03 2.810475e-03
N -1.653828e+00 9.055266e-01 4.394744e+00 1.248255e-02 9.656196e-03 2.073055e-02
N -1.653523e+00 9.016763e-01 -5.872931e+00 1.514073e-02 -9.067672e-03 -1.378759e-02
N -1.653372e+00 9.017136e-01 -8.259923e-01 1.545490e-02 -9.028988e-03 9.696641e-03
N -3.221323e+00 3.610984e+00 4.396065e+00 1.434251e-02 -1.305483e-02 1.160609e-02
N -3.217670e+00 3.615814e+00 -5.867969e+00 2.883426e-02 1.621703e-02 1.035019e-02
N -3.218059e+00 3.615254e+00 -8.316809e-01 2.870957e-02 1.565952e-02 1.278254e-02
N -4.349297e-02 -1.881871e+00 4.390054e+00 1.339377e-02 9.170168e-03 -1.797579e-02
N -4.276856e-02 -1.882696e+00 -5.868007e+00 1.369285e-02 9.051081e-03 3.982014e-03
N -4.262102e-02 -1.883024e+00 -8.254555e-01 1.347450e-02 9.312220e-03 6.006764e-03
N 4.800337e-05 1.807062e+00 1.871401e+00 3.549384e-03 7.357894e-04 -1.630684e-02
N -2.435179e-03 1.804532e+00 6.910953e+00 -1.049046e-02 -6.739232e-03 2.209976e-03
N -1.967309e-03 1.803509e+00 -3.351568e+00 -1.372653e-02 -9.377472e-03 3.564667e-03
N 3.177477e+00 -3.694513e+00 1.887007e+00 3.536967e-03 -1.817529e-02 -4.000427e-02
N 3.177676e+00 -3.694351e+00 6.912363e+00 3.062169e-03 -1.722294e-02 1.214212e-02
N 3.175597e+00 -3.690544e+00 -3.354674e+00 -1.410444e-02 1.249356e-02 -9.094738e-03
N 1.605059e+00 -9.782752e-01 1.871396e+00 -3.008015e-02 1.783479e-02 -1.533971e-02
N 1.607945e+00 -9.767636e-01 6.912329e+00 -1.558706e-02 2.526470e-02 1.323819e-02
N 1.611096e+00 -9.816022e-01 -3.349446e+00 1.656956e-03 -1.077322e-03 1.522126e-02
N 3.127738e+00 1.807068e+00 1.871465e+00 -1.625816e-02 8.077112e-03 -1.978695e-02
N 3.130713e+00 1.802257e+00 6.912491e+00 1.060756e-03 -2.216992e-02 1.447924e-02
N 3.131251e+00 1.807379e+00 -3.349232e+00 1.080252e-03 1.871653e-02 7.043165e-03
N 6.307327e+00 -3.695852e+00 1.872515e+00 3.629858e-04 -2.047812e-02 -2.026252e-02
N 6.305654e+00 -3.693440e+00 6.912407e+00 -1.708996e-02 -9.914341e-03 7.872255e-03
N 6.311394e+00 -3.694036e+00 -3.349537e+00 1.848849e-02 -1.044418e-02 7.649932e-03
N 4.741319e+00 -9.795371e-01 1.866295e+00 -2.558118e-04 1.652479e-02 -2.978178e-02
N 4.741725e+00 -9.761451e-01 6.909765e+00 -1.007804e-03 3.256288e-02 -1.201104e-02
N 4.739761e+00 -9.808678e-01 -3.349333e+00 -1.764796e-02 6.058715e-03 1.160873e-02
N -3.219862e+00 1.806453e+00 1.867637e+00 2.858307e-03 -2.215734e-03 -3.457663e-02
N -3.220201e+00 1.802865e+00 6.910507e+00 1.975982e-03 -2.157154e-02 -7.348819e-03
N -3.220033e+00 1.804842e+00 -3.350903e+00 2.656131e-03 -1.610196e-03 -1.619819e-04
N -4.546188e-02 -3.689834e+00 1.872047e+00 -1.574856e-02 9.772755e-03 -2.016142e-02
N -4.312698e-02 -3.691135e+00 6.911405e+00 2.229725e-03 4.693160e-04 4.007570e-04
N -4.532429e-02 -3.693223e+00 -3.348969e+00 -1.577406e-02 -1.021618e-02 7.535753e-03
N -1.606506e+00 -9.799918e-01 1.869020e+00 1.776990e-02 6.966871e-03 -2.316236e-02
N -1.609580e+00 -9.755477e-01 6.912125e+00 5.576993e-04 3.276293e-02 9.378628e-03
N -1.609126e+00 -9.789103e-01 -3.349253e+00 1.103063e-03 1.624583e-02 3.657378e-03
