108
Energy=-5.282136e+05 Lattice="9.463450e+00 0.000000e+00 0.000000e+00 -4.735866e+00 8.194369e+00 0.000000e+00 4.487025e-02 -1.845796e-02 1.519856e+01" Stress="1.749918e-02 3.573775e-03 2.360772e-03 3.569257e-03 2.268223e-02 -8.137927e-04 2.357712e-03 -8.160385e-04 2.027442e-02" Properties=species:S:1:pos:R:3:forces:R:3 Config_type=AlGaN_super3_2_0_3.xyz
Al 1.576151e+00 8.847616e-01 2.430221e+00 2.511908e-03 -1.292924e-02 -4.671404e-03
Al 1.582572e+00 8.803076e-01 7.457812e+00 -2.290854e-04 -1.033004e-02 -2.182202e-03
Al 1.541300e+00 9.023528e-01 -2.714445e+00 -1.580078e-03 -9.537801e-03 -3.164597e-03
Al 1.339324e-02 3.596543e+00 2.416143e+00 -1.718814e-03 2.847171e-03 -2.057404e-03
Al 1.701545e-02 3.592971e+00 7.457730e+00 -1.540968e-03 -7.739796e-04 -5.572308e-04
Al -2.527134e-02 3.609846e+00 -2.709515e+00 -1.977328e-03 -2.325567e-03 -7.596741e-04
Al 3.181137e+00 -1.883973e+00 2.423698e+00 -2.268787e-03 2.200598e-03 -3.812014e-03
Al 3.188103e+00 -1.888192e+00 7.456684e+00 -1.614119e-03 9.890877e-04 -1.589504e-03
Al 3.148756e+00 -1.870667e+00 -2.718792e+00 -1.521922e-03 2.612399e-04 -1.685008e-03
Al -4.752615e+00 8.837056e-01 2.418696e+00 1.902476e-04 -1.117823e-02 -3.626754e-03
Al -4.748652e+00 8.824903e-01 7.458118e+00 1.412846e-03 -9.719144e-03 -1.382954e-03
Al -4.790901e+00 9.002007e-01 -2.710728e+00 3.505092e-03 -8.773521e-03 -1.171625e-03
Al -6.317138e+00 3.595570e+00 2.419796e+00 -5.510972e-04 6.915036e-04 -2.228383e-03
Al -6.314202e+00 3.594905e+00 7.458503e+00 -1.925320e-04 2.305282e-05 -2.850264e-04
Al -6.356263e+00 3.611848e+00 -2.709099e+00 -4.900932e-04 -1.461590e-05 7.733199e-04
Al -3.144313e+00 -1.880410e+00 2.418125e+00 -1.378262e-02 -4.844965e-03 2.731304e-03
Al -3.143960e+00 -1.885648e+00 7.457409e+00 -2.883528e-04 1.689880e-03 -1.077962e-03
Al -3.193384e+00 -1.868461e+00 -2.716731e+00 1.500276e-03 2.442460e-03 -1.347994e-03
Al -1.616481e+00 8.841294e-01 2.423814e+00 6.621722e-03 -8.059578e-03 2.296457e-03
Al -1.617186e+00 8.851230e-01 7.458556e+00 1.049542e-02 -6.013133e-03 -2.877274e-03
Al -1.660383e+00 9.039999e-01 -2.725194e+00 1.041163e-02 -5.345478e-03 -5.476397e-02
Al -3.185318e+00 3.599482e+00 2.420857e+00 8.502740e-03 5.298803e-03 -3.597563e-03
Al -3.181804e+00 3.597078e+00 7.458377e+00 9.120447e-03 3.521548e-03 -1.381642e-03
Al -3.223232e+00 3.612775e+00 -2.710353e+00 9.648506e-03 1.438351e-03 -1.370342e-03
Al -2.511148e-02 -1.884031e+00 2.445476e+00 1.010234e-02 5.168920e-03 -7.194959e-03
Al -1.156431e-02 -1.883621e+00 7.459048e+00 8.886294e-03 5.280280e-03 -2.298218e-03
Ga -5.468705e-02 -1.867252e+00 -2.716658e+00 9.058353e-03 7.557748e-03 -4.670220e-03
Al 1.565463e-02 1.785254e+00 4.945078e+00 -9.463559e-03 -5.088856e-03 -1.350672e-03
Al -2.588574e-02 1.801780e+00 -5.229504e+00 -8.810351e-03 -5.239795e-03 -1.291827e-03
Al -2.263357e-02 1.802551e+00 -1.697310e-01 -8.420015e-03 -5.052096e-03 -1.385291e-03
Al 3.187249e+00 -3.697464e+00 4.944107e+00 -9.100694e-03 -3.069451e-03 -1.655358e-03
Al 3.144076e+00 -3.680463e+00 -5.228308e+00 -9.126873e-03 -3.659267e-03 -1.643931e-03
Al 3.147923e+00 -3.678048e+00 -1.771756e-01 -8.101466e-03 -3.910852e-03 1.036663e-02
Al 1.622003e+00 -9.844263e-01 4.947286e+00 -1.043693e-02 5.691963e-03 -4.346557e-03
Al 1.580824e+00 -9.650526e-01 -5.230694e+00 -1.110914e-02 5.978876e-03 -3.777610e-03
Al 1.584265e+00 -9.667592e-01 -2.142048e-01 -9.833391e-03 6.126144e-03 2.072862e-02
Al 3.147626e+00 1.786458e+00 4.944139e+00 3.094085e-04 -1.520559e-03 -9.061508e-04
Al 3.105428e+00 1.803780e+00 -5.228097e+00 2.102078e-04 -1.936929e-03 -5.740984e-04
Al 3.110081e+00 1.803327e+00 -1.770770e-01 2.487427e-03 -2.261830e-03 1.142258e-02
Al 6.318128e+00 -3.694811e+00 4.942729e+00 1.923094e-05 1.272116e-03 -5.177286e-04
Al 6.275380e+00 -3.677935e+00 -5.227885e+00 -7.245339e-05 1.615241e-04 -2.000533e-04
Al 6.281076e+00 -3.673109e+00 -1.750505e-01 2.060323e-03 -6.006221e-04 1.210941e-02
Al 4.753795e+00 -9.816198e-01 4.943806e+00 -7.567682e-04 8.759564e-03 -1.966012e-03
Al 4.710277e+00 -9.640098e-01 -5.229716e+00 -1.305318e-03 9.877236e-03 -1.695464e-03
Al 4.708638e+00 -9.658219e-01 -1.810479e-01 -1.774316e-04 1.033385e-02 1.186699e-02
Al -3.182813e+00 1.788225e+00 4.942284e+00 1.878201e-03 -1.183876e-03 -1.076328e-03
Al -3.226400e+00 1.806243e+00 -5.229869e+00 1.373888e-03 -8.065067e-04 3.705814e-04
Al -3.211124e+00 1.800727e+00 -1.826669e-01 -1.528624e-03 7.853748e-05 3.289471e-03
Al -1.267767e-02 -3.694903e+00 4.946967e+00 1.277016e-03 7.180610e-04 -1.032014e-03
Al -5.517694e-02 -3.677795e+00 -5.229986e+00 1.744407e-03 1.400632e-03 -1.270625e-03
Al -4.853985e-02 -3.677446e+00 -1.727815e-01 1.831541e-03 1.024674e-03 1.264321e-02
Al -1.577751e+00 -9.799870e-01 4.948002e+00 -9.161835e-04 1.014562e-02 -3.848390e-03
Al -1.623047e+00 -9.612907e-01 -5.232224e+00 6.285347e-04 1.001116e-02 -1.716498e-03
Ga -1.628297e+00 -9.154174e-01 -2.222302e-01 1.126153e-03 4.465898e-03 2.051970e-02
N 1.579763e+00 8.837023e-01 4.350929e+00 -2.675850e-04 -9.566963e-03 5.948113e-04
N 1.539049e+00 8.988594e-01 -5.824785e+00 2.594741e-04 -1.009364e-02 1.846784e-03
N 1.542151e+00 9.004147e-01 -7.907158e-01 -1.766609e-03 -1.035488e-02 5.370551e-03
N 1.567154e-02 3.595046e+00 4.343362e+00 -1.230885e-03 -1.211051e-03 -2.255944e-03
N -2.658388e-02 3.611505e+00 -5.824561e+00 -1.197729e-03 4.395592e-05 1.396552e-05
N -2.192965e-02 3.612542e+00 -7.807307e-01 -1.153462e-03 -1.112553e-03 2.575865e-03
N 3.187878e+00 -1.887872e+00 4.347841e+00 -1.751193e-03 8.408295e-04 -8.771983e-04
N 3.144286e+00 -1.869906e+00 -5.825676e+00 -1.528169e-03 5.207408e-04 2.319009e-04
N 3.147361e+00 -1.870963e+00 -7.976017e-01 -1.890876e-03 2.782402e-04 3.585304e-03
N -4.750674e+00 8.826180e-01 4.344245e+00 1.307649e-03 -9.166960e-03 3.424174e-04
N -4.793197e+00 9.003228e-01 -5.824196e+00 8.662509e-04 -1.007238e-02 2.065862e-03
N -4.786639e+00 8.990585e-01 -7.852610e-01 -8.488800e-05 -9.504723e-03 5.242570e-03
N -6.315989e+00 3.595559e+00 4.345083e+00 7.343778e-05 -2.633855e-04 -9.973569e-04
N -6.358489e+00 3.612804e+00 -5.824549e+00 -2.916544e-04 3.757950e-05 7.474564e-04
N -6.352663e+00 3.615281e+00 -7.822264e-01 2.988292e-06 -1.461948e-05 1.871754e-03
N -3.144486e+00 -1.884521e+00 4.344359e+00 -1.801729e-03 1.999719e-04 8.963216e-04
N -3.188861e+00 -1.868066e+00 -5.825767e+00 -7.983379e-04 6.454439e-04 1.785782e-04
N -3.195869e+00 -1.866455e+00 -7.949959e-01 -1.376313e-02 -8.101760e-03 -2.442577e-03
N -1.617313e+00 8.859330e-01 4.347757e+00 1.103757e-02 -4.671214e-03 3.112528e-03
N -1.661455e+00 9.034579e-01 -5.824503e+00 1.072239e-02 -5.957096e-03 3.667958e-03
N -1.699127e+00 9.217105e-01 -9.851899e-01 1.916716e-02 8.293539e-03 9.219457e-02
N -3.182995e+00 3.598322e+00 4.345575e+00 9.004186e-03 3.389812e-03 3.310268e-04
N -3.225666e+00 3.615393e+00 -5.824877e+00 9.424695e-03 4.284361e-03 1.740568e-03
N -3.219502e+00 3.614148e+00 -7.846326e-01 8.653136e-03 5.158488e-03 5.277802e-03
N -1.364421e-02 -1.886793e+00 4.357874e+00 8.828397e-03 5.323646e-03 2.496402e-03
N -5.574425e-02 -1.865366e+00 -5.823354e+00 9.059789e-03 4.685889e-03 1.530118e-03
N -5.250734e-02 -1.862489e+00 -7.857032e-01 2.289136e-02 -2.773263e-03 1.889069e-02
N 1.462388e-02 1.786497e+00 1.814277e+00 -1.456425e-02 -7.303262e-03 -1.420841e-02
N 1.670972e-02 1.783735e+00 6.862865e+00 -8.655671e-03 -4.942186e-03 1.507801e-03
N -2.466126e-02 1.802164e+00 -3.313329e+00 -6.311336e-03 -4.161042e-03 3.738431e-04
N 3.181617e+00 -3.693650e+00 1.810710e+00 -9.733319e-03 -3.892056e-03 -9.315297e-03
N 3.187510e+00 -3.698455e+00 6.862142e+00 -9.186372e-03 -3.923091e-03 1.551351e-03
N 3.145176e+00 -3.681350e+00 -3.310420e+00 -9.106477e-03 -3.360038e-03 3.608327e-03
N 1.605519e+00 -9.773263e-01 1.854931e+00 -1.116022e-02 5.616760e-03 -1.875442e-02
N 1.622842e+00 -9.847148e-01 6.864101e+00 -1.056810e-02 6.225492e-03 3.606931e-03
N 1.590815e+00 -9.604716e-01 -3.315933e+00 1.958979e-03 1.308615e-02 1.175329e-03
N 3.144364e+00 1.786294e+00 1.813113e+00 -1.387387e-03 -1.252461e-04 -1.129075e-02
N 3.149410e+00 1.786030e+00 6.862060e+00 5.000851e-04 -1.191831e-03 -4.696708e-04
N 3.107146e+00 1.804926e+00 -3.308733e+00 6.294566e-04 -1.426732e-03 1.201836e-03
N 6.318535e+00 -3.691032e+00 1.810503e+00 -2.732015e-03 -1.175856e-03 -1.079567e-02
N 6.319215e+00 -3.695418e+00 6.861297e+00 1.327589e-04 -2.711218e-04 5.547582e-05
N 6.275772e+00 -3.678450e+00 -3.309615e+00 5.175450e-04 -1.692146e-04 1.842814e-03
N 4.750062e+00 -9.785542e-01 1.809932e+00 -4.094257e-03 9.468480e-03 -9.679297e-03
N 4.754674e+00 -9.817223e-01 6.861837e+00 -1.363197e-03 1.008831e-02 1.820388e-03
N 4.710603e+00 -9.642786e-01 -3.313002e+00 -1.762139e-03 1.035261e-02 2.814141e-03
N -3.184404e+00 1.788474e+00 1.812044e+00 5.196098e-03 -1.958557e-03 -1.605868e-02
N -3.182273e+00 1.787883e+00 6.861366e+00 1.523952e-03 -8.670303e-04 -8.209386e-04
N -3.225323e+00 1.806055e+00 -3.312169e+00 -1.667278e-03 8.692546e-04 -4.295399e-03
N -1.678457e-02 -3.690030e+00 1.820072e+00 6.445856e-04 4.127427e-04 -1.238297e-02
N -1.181811e-02 -3.694635e+00 6.863578e+00 1.273668e-03 2.032884e-04 -1.231774e-04
N -5.389046e-02 -3.688314e+00 -3.314271e+00 1.509052e-03 -1.604419e-02 -4.450429e-03
N -1.621691e+00 -1.001294e+00 1.887668e+00 1.797012e-02 2.668659e-02 -2.059299e-02
N -1.577569e+00 -9.798838e-01 6.864219e+00 1.606484e-04 1.024331e-02 1.796848e-03
N -1.631465e+00 -9.580236e-01 -3.319078e+00 -1.349632e-02 1.543990e-02 -5.459445e-03
