108
Energy=-2.267683e+06 Lattice="9.580159e+00 0.000000e+00 0.000000e+00 -4.805612e+00 8.285822e+00 0.000000e+00 -8.214607e-02 1.110043e-01 1.542671e+01" Stress="-2.379302e-02 1.833853e-03 -3.051742e-03 1.824906e-03 -2.296696e-02 4.109146e-03 -3.038285e-03 4.115703e-03 -2.832986e-02" Properties=species:S:1:pos:R:3:forces:R:3 Config_type=AlGaN_super3_40_1_3.xyz
Al 1.527918e+00 9.575211e-01 2.450131e+00 3.939540e-04 -7.218370e-03 -2.684915e-03
Al 1.530671e+00 9.576184e-01 7.565932e+00 3.611232e-04 -5.660297e-03 -7.543805e-04
Al 1.611340e+00 8.415451e-01 -2.747631e+00 8.988788e-04 -5.446180e-03 3.649430e-04
Al -5.533459e-02 3.706296e+00 2.441429e+00 -7.973985e-04 -9.811704e-04 -9.522620e-04
Ga -6.055237e-02 3.694856e+00 7.563173e+00 -9.169414e-04 -1.942888e-04 -1.182547e-04
Ga 2.224490e-02 3.587903e+00 -2.731570e+00 -2.001090e-03 -1.036427e-03 7.894393e-04
Al 3.156101e+00 -1.824471e+00 2.452166e+00 -2.340091e-03 -7.826660e-04 -2.533134e-03
Ga 3.151347e+00 -1.818841e+00 7.556081e+00 -2.648164e-04 -4.763599e-04 4.152526e-04
Ga 3.229223e+00 -1.936302e+00 -2.730823e+00 -1.455997e-03 1.747067e-04 3.416325e-05
Ga -4.876142e+00 9.434209e-01 2.442404e+00 1.405395e-03 -6.200112e-03 -1.430159e-03
Al -4.879740e+00 9.575258e-01 7.561636e+00 1.299462e-03 -5.876734e-03 -6.110397e-04
Ga -4.800184e+00 8.496803e-01 -2.739488e+00 -3.608582e-04 -6.798557e-03 -1.733500e-04
Ga -6.472192e+00 3.701073e+00 2.448187e+00 1.484034e-03 -8.799958e-04 -2.991950e-03
Al -6.463512e+00 3.698280e+00 7.570813e+00 -8.620819e-04 -1.567978e-04 7.848326e-04
Ga -6.388909e+00 3.590780e+00 -2.741228e+00 1.329241e-03 -9.035217e-04 3.324040e-03
Al -3.262408e+00 -1.838978e+00 2.439821e+00 1.066402e-03 -1.191831e-03 1.322859e-03
Ga -3.253121e+00 -1.819302e+00 7.557284e+00 -1.316195e-03 -1.096391e-04 3.503629e-05
Ga -3.171026e+00 -1.939542e+00 -2.734225e+00 -1.743812e-04 1.617578e-03 -1.474616e-04
Ga -1.694211e+00 9.589263e-01 2.449449e+00 1.041633e-02 -5.107608e-03 -5.909542e-03
Al -1.695028e+00 9.571341e-01 7.566674e+00 6.977704e-03 -2.434111e-03 -1.772360e-03
Ga -1.613771e+00 8.509322e-01 -2.724229e+00 8.406750e-03 -3.902568e-03 -4.242352e-04
Ga -3.281584e+00 3.705986e+00 2.431904e+00 7.631275e-03 1.415821e-03 5.608779e-04
Ga -3.296862e+00 3.703852e+00 7.570622e+00 8.065147e-03 2.787556e-03 -1.253205e-03
Ga -3.210568e+00 3.597106e+00 -2.741704e+00 6.546582e-03 4.246045e-03 -1.235085e-03
Ga -7.580819e-02 -1.820025e+00 2.446867e+00 8.700125e-03 3.249086e-03 -3.421723e-03
Ga -7.874088e-02 -1.820968e+00 7.571884e+00 7.718088e-03 3.570245e-03 -1.560518e-03
Ga 8.727945e-03 -1.932524e+00 -2.738007e+00 7.407468e-03 3.231333e-03 -1.070462e-03
Ga -5.868215e-02 1.866187e+00 5.004333e+00 -6.229279e-03 -2.663616e-03 4.749363e-04
Ga 2.878859e-02 1.753628e+00 -5.305147e+00 -7.761731e-03 -4.727344e-03 4.674664e-05
Ga 3.128838e-02 1.759500e+00 -1.604020e-01 -1.027846e-02 -1.731077e-03 1.066137e-02
Ga 3.158368e+00 -3.660693e+00 4.993681e+00 -7.160948e-03 -3.113910e-03 -7.853452e-04
Ga 3.231063e+00 -3.774865e+00 -5.296744e+00 -6.839896e-03 -3.600384e-03 -1.055405e-03
Ga 3.236699e+00 -3.783144e+00 -1.580248e-01 -9.159746e-03 8.295628e-04 1.180195e-02
Ga 1.568133e+00 -9.093335e-01 5.001844e+00 -7.519735e-03 3.109669e-03 -1.600787e-03
Ga 1.646958e+00 -1.022465e+00 -5.298471e+00 -8.794878e-03 4.700398e-03 -2.383788e-03
Ga 1.647910e+00 -1.026515e+00 -1.637176e-01 -1.069981e-02 8.823041e-03 1.176549e-02
Ga 3.116623e+00 1.865235e+00 5.011812e+00 4.922019e-04 -1.021059e-03 1.434472e-03
Al 3.198455e+00 1.761524e+00 -5.319094e+00 2.087287e-04 -6.010382e-04 1.375393e-03
Ga 3.191256e+00 1.759367e+00 -1.692864e-01 -2.709179e-03 3.455135e-03 1.280178e-02
Ga 6.328855e+00 -3.660010e+00 4.999277e+00 -4.549140e-04 9.379574e-04 1.690002e-03
Ga 6.419827e+00 -3.778571e+00 -5.307309e+00 8.006252e-04 -2.963122e-04 4.891315e-04
Al 6.394319e+00 -3.753644e+00 -1.780248e-01 2.237293e-03 -2.986782e-03 1.781094e-02
Al 4.738772e+00 -9.088371e-01 4.995277e+00 -5.555509e-04 4.189089e-03 7.493925e-04
Ga 4.817328e+00 -1.019334e+00 -5.302852e+00 -1.845663e-04 8.193252e-03 -2.521834e-04
Ga 4.827531e+00 -1.026484e+00 -1.586998e-01 -4.767283e-03 1.208695e-02 1.129947e-02
Ga -3.286861e+00 1.866165e+00 5.012698e+00 -2.165019e-04 1.226254e-03 1.423821e-03
Ga -3.211000e+00 1.764176e+00 -5.314545e+00 1.489633e-03 -1.611163e-03 2.905623e-04
Al -3.218489e+00 1.782308e+00 -1.874232e-01 2.264577e-03 -3.306928e-03 1.639455e-02
Ga -7.407741e-02 -3.661560e+00 5.009199e+00 2.156502e-03 3.863387e-04 9.203937e-04
Al 6.566875e-03 -3.776642e+00 -5.305298e+00 -1.721678e-04 5.202461e-04 4.913747e-04
Ga 8.824186e-03 -3.775331e+00 -1.685365e-01 -3.729813e-03 3.262666e-03 1.131465e-02
Ga -1.669222e+00 -9.065111e-01 5.005549e+00 -9.811563e-04 5.528190e-03 -4.725359e-04
Ga -1.579705e+00 -1.022998e+00 -5.301791e+00 6.836810e-05 8.915400e-03 -6.475455e-04
Ga -1.587102e+00 -1.028311e+00 -1.569503e-01 -1.729738e-03 1.360389e-02 9.878167e-03
N 1.527469e+00 9.569561e-01 4.371234e+00 3.777009e-04 -7.199662e-03 -1.034922e-02
N 1.627600e+00 8.544400e-01 -5.935204e+00 9.688477e-03 -2.296284e-03 -6.125137e-03
N 1.610814e+00 8.402743e-01 -8.177584e-01 -1.264347e-03 -6.481316e-03 -9.730952e-03
N -6.144247e-02 3.701992e+00 4.370354e+00 -7.976551e-04 -8.450069e-04 -1.267403e-02
N 1.692358e-02 3.591907e+00 -5.912158e+00 -1.253066e-03 6.649567e-04 -5.194133e-04
N 3.383671e-02 3.605346e+00 -7.730044e-01 8.013698e-03 5.949699e-03 2.994719e-03
N 3.168713e+00 -1.815749e+00 4.377453e+00 8.254558e-03 5.652779e-03 -8.110634e-03
N 3.231830e+00 -1.939731e+00 -5.915817e+00 -1.092072e-03 -1.235536e-04 -1.844286e-03
N 3.233653e+00 -1.944113e+00 -7.784407e-01 -1.276254e-03 1.183305e-03 -6.791879e-04
N -4.874074e+00 9.320442e-01 4.400979e+00 7.000269e-04 -1.595518e-02 3.998574e-03
N -4.813389e+00 8.546626e-01 -5.934960e+00 -8.695358e-03 -2.092818e-03 -6.800139e-03
N -4.781070e+00 8.605864e-01 -7.797029e-01 9.626752e-03 -2.275401e-03 5.323557e-03
N -6.465303e+00 3.703499e+00 4.395297e+00 -1.069456e-05 -7.361374e-04 -2.949807e-04
N -6.365243e+00 3.583987e+00 -5.922473e+00 9.349369e-03 -5.081688e-03 -4.475684e-03
N -6.408979e+00 3.608797e+00 -7.710736e-01 -1.122608e-02 7.138260e-03 6.610189e-04
N -3.271822e+00 -1.816833e+00 4.376837e+00 -9.243506e-03 5.974078e-03 -8.614911e-03
N -3.172462e+00 -1.937195e+00 -5.917028e+00 -7.740801e-04 2.422082e-04 -8.690889e-04
N -3.173952e+00 -1.956394e+00 -7.817835e-01 -4.529848e-04 -8.499019e-03 4.258290e-03
N -1.698105e+00 9.609128e-01 4.395459e+00 8.677458e-03 -4.298037e-03 2.504806e-03
N -1.614992e+00 8.488756e-01 -5.937810e+00 7.730442e-03 -3.941580e-03 -8.094403e-03
N -1.635445e+00 8.631755e-01 -7.613073e-01 -2.157430e-03 1.805691e-03 4.758783e-03
N -3.289570e+00 3.705869e+00 4.390971e+00 7.023310e-03 2.636069e-03 9.563069e-04
N -3.226634e+00 3.610987e+00 -5.904399e+00 -1.879806e-03 9.133712e-03 5.162949e-03
N -3.210936e+00 3.581717e+00 -7.879251e-01 7.300723e-03 -4.888384e-03 6.915228e-03
N -7.667480e-02 -1.823400e+00 4.396064e+00 7.326859e-03 3.634473e-03 1.847195e-03
N 6.957594e-03 -1.956980e+00 -5.901934e+00 7.572718e-03 -7.610922e-03 5.156916e-03
N 8.021170e-03 -1.937622e+00 -7.837838e-01 6.047404e-03 5.390041e-03 1.809072e-03
N -3.938408e-02 1.880278e+00 1.848540e+00 4.988112e-03 -2.125756e-03 -2.776137e-03
N -5.912905e-02 1.845240e+00 6.965557e+00 -5.936895e-03 -1.421243e-02 7.283493e-03
N 4.118652e-02 1.743866e+00 -3.342984e+00 1.592238e-03 -8.704898e-03 3.866672e-03
N 3.176374e+00 -3.648055e+00 1.849566e+00 4.058360e-03 -2.671531e-03 -2.526372e-03
N 3.153428e+00 -3.664793e+00 6.948016e+00 -7.496718e-03 -3.185290e-03 1.254810e-03
N 3.235497e+00 -3.776809e+00 -3.345609e+00 -6.564042e-03 -3.161682e-03 1.599415e-03
N 1.581622e+00 -8.953063e-01 1.854317e+00 3.699245e-03 2.970654e-03 -3.188332e-03
N 1.562300e+00 -8.893513e-01 6.958232e+00 -9.295562e-03 1.363187e-02 5.589599e-03
N 1.645513e+00 -1.001635e+00 -3.343807e+00 -8.315827e-03 1.323631e-02 5.497732e-03
N 3.096564e+00 1.857962e+00 1.838557e+00 -4.872960e-03 -1.035169e-02 -8.593134e-03
N 3.115732e+00 1.871279e+00 6.973627e+00 2.458868e-04 -4.004273e-04 1.098295e-02
N 3.179060e+00 1.749800e+00 -3.375084e+00 -9.047971e-03 -5.692615e-03 -9.970197e-03
N 6.323548e+00 -3.669890e+00 1.839008e+00 -1.059260e-02 8.008197e-03 -2.007287e-02
N 6.349161e+00 -3.673149e+00 6.958892e+00 1.034915e-02 -5.344975e-03 3.336989e-03
N 6.412093e+00 -3.774611e+00 -3.353544e+00 -3.502791e-04 5.912441e-04 -1.361662e-03
N 4.735359e+00 -9.407729e-01 1.843378e+00 3.427570e-03 -6.531588e-03 -2.299579e-03
N 4.738591e+00 -8.893385e-01 6.929519e+00 -6.500804e-04 1.699421e-02 -8.024377e-03
N 4.820355e+00 -1.022912e+00 -3.349221e+00 -3.930893e-04 7.592403e-03 6.937025e-04
N -3.275362e+00 1.856474e+00 1.815834e+00 -1.718001e-03 1.454246e-03 -2.731012e-02
N -3.285142e+00 1.852234e+00 6.972434e+00 1.021308e-03 -1.162013e-02 7.039683e-03
N -3.203731e+00 1.761172e+00 -3.356709e+00 1.262022e-03 -1.210445e-03 -1.374804e-03
N -7.379211e-02 -3.660753e+00 1.823488e+00 4.328726e-03 -3.655702e-03 -1.003234e-02
N -9.163643e-02 -3.670860e+00 6.963114e+00 -9.020439e-03 -4.494432e-03 3.378199e-03
N 7.767861e-03 -3.772123e+00 -3.374167e+00 2.622225e-04 5.891681e-04 -1.236483e-02
N -1.686086e+00 -9.230909e-01 1.841250e+00 -7.514004e-03 -2.725357e-03 -5.919609e-03
N -1.663156e+00 -8.860182e-01 6.961073e+00 2.374384e-04 1.681035e-02 3.220772e-03
N -1.581434e+00 -1.019620e+00 -3.346643e+00 -6.606504e-04 8.086473e-03 4.005698e-04
