108
Energy=-6.655416e+05 Lattice="9.423446e+00 0.000000e+00 0.000000e+00 -4.729121e+00 8.151949e+00 0.000000e+00 3.439902e-02 4.337896e-03 1.516334e+01" Stress="-2.754340e-04 -8.730685e-04 1.606960e-03 -8.728794e-04 -3.862716e-04 -3.946261e-05 1.603184e-03 -3.922830e-05 4.888588e-03" Properties=species:S:1:pos:R:3:forces:R:3 Config_type=AlGaN_super3_5_1_8.xyz
Al 1.548338e+00 8.698116e-01 2.372765e+00 2.015444e-03 -9.664905e-05 3.427131e-04
Al 1.559448e+00 8.788391e-01 7.408060e+00 6.285356e-04 -2.856682e-03 -2.801280e-03
Al 1.528718e+00 8.624569e-01 -2.644994e+00 8.013614e-04 1.189387e-03 2.785399e-04
Al -2.290295e-02 3.584259e+00 2.378222e+00 -5.959966e-05 9.973613e-04 7.169433e-04
Al -1.112755e-02 3.579193e+00 7.417523e+00 6.786012e-04 6.933870e-04 3.626487e-04
Al -2.903180e-02 3.579290e+00 -2.675917e+00 1.637381e-04 -2.554159e-04 1.293119e-03
Al 3.136624e+00 -1.848327e+00 2.384092e+00 4.303584e-04 -1.279290e-03 -7.490257e-04
Al 3.161983e+00 -1.854853e+00 7.417107e+00 -3.174216e-03 1.569210e-03 -2.437490e-03
Al 3.130445e+00 -1.850578e+00 -2.661358e+00 5.874914e-04 -9.347209e-04 1.013818e-03
Al -4.733911e+00 8.693706e-01 2.387721e+00 3.062897e-04 5.122590e-04 -1.160727e-03
Al -4.717907e+00 8.645235e-01 7.413518e+00 1.289641e-04 7.229546e-04 -3.559189e-04
Al -4.749423e+00 8.505638e-01 -2.661720e+00 1.329471e-03 1.193736e-03 -7.886083e-05
Al -6.307257e+00 3.588084e+00 2.382960e+00 1.311566e-04 -5.353030e-05 -1.160764e-03
Al -6.297693e+00 3.586330e+00 7.412057e+00 -4.783270e-04 5.282813e-04 1.881066e-04
Al -6.331444e+00 3.586426e+00 -2.658945e+00 1.044304e-04 1.321257e-04 1.372682e-04
Al -3.149309e+00 -1.843403e+00 2.378615e+00 1.368852e-04 -9.148488e-04 -4.410205e-04
Al -3.152643e+00 -1.846249e+00 7.411400e+00 1.499535e-03 -9.489506e-04 1.309068e-03
Al -3.171885e+00 -1.854322e+00 -2.655962e+00 7.177237e-06 -9.154895e-04 -7.583922e-05
Al -1.592688e+00 8.761163e-01 2.381178e+00 1.395112e-04 -9.899165e-04 -1.149069e-04
Al -1.584757e+00 8.869598e-01 7.404884e+00 8.301642e-04 -9.546886e-04 4.252940e-03
Al -1.608296e+00 8.655762e-01 -2.653316e+00 9.869875e-04 1.053218e-03 5.481955e-05
Al -3.163251e+00 3.592307e+00 2.385400e+00 8.249487e-05 -3.515576e-04 -2.080645e-03
Al -3.153879e+00 3.581217e+00 7.425259e+00 3.009499e-04 2.862555e-04 2.995832e-06
Ga -3.184007e+00 3.587358e+00 -2.658059e+00 1.030664e-03 -9.565413e-04 -9.554338e-04
Al -9.866303e-03 -1.836954e+00 2.387940e+00 4.522059e-04 -1.962538e-03 -1.290880e-03
Ga 1.054767e-03 -1.846505e+00 7.404940e+00 1.147929e-03 7.121949e-05 4.568115e-04
Al -3.107730e-02 -1.845590e+00 -2.644553e+00 8.286634e-04 -2.056003e-03 -4.458927e-04
Al -1.376359e-02 1.771458e+00 4.888581e+00 -2.961512e-04 1.478537e-03 8.882771e-05
Al -5.358380e-02 1.779804e+00 -5.202133e+00 8.051691e-04 6.288359e-04 1.133653e-03
Al -3.328162e-02 1.766056e+00 -1.426585e-01 1.311687e-05 1.405237e-03 1.373239e-03
Al 3.142445e+00 -3.664010e+00 4.900957e+00 -4.646222e-04 1.219582e-03 -9.255770e-04
Al 3.128863e+00 -3.674324e+00 -5.216524e+00 -2.225784e-03 5.113601e-04 3.705112e-04
Al 3.119868e+00 -3.674799e+00 -1.453700e-01 8.135764e-03 6.639019e-03 6.985019e-03
Al 1.573753e+00 -9.398753e-01 4.884827e+00 -5.001040e-04 -2.412509e-04 -2.475778e-03
Ga 1.556196e+00 -9.553966e-01 -5.186624e+00 -1.044214e-03 6.436183e-04 1.151231e-04
Al 1.555243e+00 -9.573017e-01 -1.371264e-01 -6.309221e-04 8.166228e-04 -6.120538e-04
Al 3.123410e+00 1.773848e+00 4.900517e+00 -4.148027e-04 5.612062e-04 -3.394987e-04
Ga 3.098028e+00 1.774107e+00 -5.207839e+00 9.065160e-04 1.391282e-04 1.034527e-03
Al 3.110863e+00 1.766639e+00 -1.391491e-01 -2.927828e-04 8.789564e-04 -1.642645e-03
Al 6.279927e+00 -3.658658e+00 4.896214e+00 -1.076119e-04 3.740196e-05 -7.529446e-04
Al 6.247802e+00 -3.663438e+00 -5.211291e+00 6.780465e-04 -1.893425e-04 1.520673e-03
Al 6.260076e+00 -3.667478e+00 -1.361853e-01 4.625904e-04 5.659752e-04 -1.819572e-03
Al 4.708683e+00 -9.415062e-01 4.896593e+00 -1.273443e-03 -7.399854e-04 -5.098367e-04
Al 4.690166e+00 -9.569975e-01 -5.208289e+00 -1.432604e-03 1.220495e-03 2.205655e-03
Al 4.691569e+00 -9.518831e-01 -1.310507e-01 -8.077176e-04 -1.857121e-04 -2.538750e-03
Al -3.157299e+00 1.778903e+00 4.896768e+00 -1.209348e-03 8.563555e-04 4.076558e-05
Al -3.176740e+00 1.769995e+00 -5.215158e+00 -4.018121e-03 2.683383e-03 2.368037e-03
Al -3.175111e+00 1.759341e+00 -1.270545e-01 -7.329563e-04 4.730522e-03 -2.845423e-07
Al -3.362470e-04 -3.663313e+00 4.887318e+00 -5.581420e-04 1.009720e-03 -9.701814e-04
Al -2.801158e-02 -3.675400e+00 -5.200715e+00 6.114371e-05 2.666550e-04 6.916352e-04
Al -2.404504e-02 -3.660993e+00 -1.267025e-01 -1.772631e-03 2.401816e-03 2.119404e-03
Al -1.580295e+00 -9.314974e-01 4.890553e+00 -7.078246e-04 -1.383300e-03 -5.924808e-04
Ga -1.614892e+00 -9.399839e-01 -5.187136e+00 -5.360545e-04 9.268816e-04 -2.576477e-04
Al -1.591604e+00 -9.469046e-01 -1.340505e-01 -8.950456e-04 -3.203068e-04 -2.191149e-03
N 1.553526e+00 8.700305e-01 4.291407e+00 1.303736e-03 1.125114e-03 -7.114633e-04
N 1.482398e+00 8.813667e-01 -5.849803e+00 -1.076584e-04 9.061323e-04 5.112147e-04
N 1.533137e+00 8.599369e-01 -7.292947e-01 1.620707e-03 3.993213e-04 -9.101317e-05
N -1.882530e-02 3.586308e+00 4.298110e+00 6.847810e-04 -3.170702e-04 -1.366855e-04
N -3.973856e-02 3.578405e+00 -5.816445e+00 5.646269e-04 -7.511755e-04 -9.406275e-04
N -3.659569e-02 3.577605e+00 -7.486336e-01 1.875778e-04 -4.063486e-04 -7.952366e-04
N 3.138917e+00 -1.849465e+00 4.297594e+00 1.401355e-03 -8.033306e-04 -2.210893e-04
N 3.153025e+00 -1.875025e+00 -5.829485e+00 1.191492e-03 -1.091835e-03 -1.689660e-03
N 3.124663e+00 -1.859234e+00 -7.437863e-01 8.573623e-04 1.155766e-04 1.140916e-03
N -4.731266e+00 8.694581e-01 4.303304e+00 1.049398e-03 7.932361e-04 2.167523e-04
N -4.717767e+00 8.378530e-01 -5.831183e+00 1.421040e-03 3.582495e-05 -8.706639e-04
N -4.743458e+00 8.573426e-01 -7.421869e-01 1.243969e-03 1.716362e-03 5.250805e-04
N -6.303852e+00 3.585719e+00 4.296520e+00 -3.525194e-04 -1.803332e-04 4.207466e-04
N -6.328021e+00 3.626617e+00 -5.832728e+00 -5.099577e-04 1.481557e-03 -1.088008e-03
N -6.318362e+00 3.584097e+00 -7.401141e-01 4.116459e-04 -5.227406e-04 6.679128e-04
N -3.147566e+00 -1.844667e+00 4.293947e+00 4.520844e-04 -6.679181e-04 6.688483e-05
N -3.208278e+00 -1.871345e+00 -5.828638e+00 -3.580221e-04 -2.017257e-03 -2.148778e-03
N -3.166554e+00 -1.854875e+00 -7.381963e-01 8.251729e-04 -2.584271e-04 7.848949e-04
N -1.591501e+00 8.768716e-01 4.297274e+00 1.070871e-03 -9.511908e-05 -8.581157e-04
N -1.620231e+00 9.186486e-01 -5.819480e+00 4.144765e-03 -2.112407e-03 -6.827128e-03
N -1.607729e+00 8.679921e-01 -7.330111e-01 4.824222e-04 4.511697e-04 -1.180929e-03
N -3.158665e+00 3.591512e+00 4.297046e+00 4.073064e-04 -1.388510e-03 3.524355e-04
N -3.187457e+00 3.584873e+00 -5.808286e+00 4.692599e-04 -3.883160e-04 -1.173451e-04
N -3.171124e+00 3.612051e+00 -6.796024e-01 -5.876267e-03 -1.373842e-02 -2.315081e-03
N -7.119865e-03 -1.838389e+00 4.302826e+00 -4.070519e-04 -1.599039e-03 1.058035e-04
N -3.298597e-02 -1.888578e+00 -5.794984e+00 4.725297e-04 -2.373085e-03 -8.036476e-05
N -2.326190e-02 -1.851980e+00 -7.328805e-01 2.729747e-05 -6.492563e-04 1.305557e-03
N -2.241224e-02 1.770137e+00 1.780318e+00 1.128009e-04 1.773828e-03 -5.003733e-04
N -9.810138e-03 1.772704e+00 6.804154e+00 -3.646681e-04 1.087038e-03 8.543997e-04
N -3.610026e-02 1.763136e+00 -3.269747e+00 -1.445062e-04 5.507899e-04 -1.183629e-03
N 3.138048e+00 -3.660094e+00 1.789315e+00 3.565042e-04 -1.494596e-04 -2.828864e-03
N 3.146303e+00 -3.667900e+00 6.822293e+00 -2.388617e-05 3.674730e-04 6.573336e-04
N 3.159073e+00 -3.646996e+00 -3.295908e+00 1.192125e-03 1.593948e-03 -8.737108e-04
N 1.566824e+00 -9.460556e-01 1.784112e+00 -1.206734e-03 5.373810e-04 -2.621519e-04
N 1.612650e+00 -9.252878e-01 6.775414e+00 3.505297e-03 2.005840e-03 8.564977e-03
N 1.551312e+00 -9.498365e-01 -3.212931e+00 -9.275131e-04 1.198240e-04 1.644464e-03
N 3.123208e+00 1.774980e+00 1.776044e+00 -8.957578e-04 2.234994e-04 1.536293e-03
N 3.132078e+00 1.777127e+00 6.821740e+00 3.173777e-04 -6.730109e-04 -8.326328e-05
N 3.102182e+00 1.767019e+00 -3.225815e+00 -3.124479e-04 1.378095e-04 2.125090e-03
N 6.275282e+00 -3.657048e+00 1.777043e+00 -4.076968e-04 -9.598074e-04 1.735319e-03
N 6.283859e+00 -3.658921e+00 6.813821e+00 -9.234748e-05 -2.202538e-04 4.957428e-04
N 6.260165e+00 -3.664171e+00 -3.278514e+00 2.013378e-04 5.740804e-04 -9.321598e-04
N 4.704700e+00 -9.385539e-01 1.778892e+00 -1.107861e-03 -7.459947e-04 2.180739e-03
N 4.715567e+00 -9.425059e-01 6.810444e+00 -1.076521e-03 1.244280e-04 -3.096385e-04
N 4.689489e+00 -9.479401e-01 -3.276398e+00 -4.814569e-04 -7.390957e-04 -1.572109e-03
N -3.164013e+00 1.773597e+00 1.789635e+00 -9.938292e-04 5.140628e-04 2.076194e-05
N -3.152001e+00 1.778062e+00 6.815304e+00 -1.219035e-03 4.007034e-04 -1.750501e-04
N -3.178195e+00 1.727672e+00 -3.289940e+00 -1.170797e-03 -1.153013e-03 -3.542161e-04
N -8.543468e-03 -3.651734e+00 1.793820e+00 -1.241942e-03 -7.610311e-04 2.832154e-05
N 5.553556e-03 -3.703092e+00 6.794310e+00 -2.836105e-05 -2.724503e-03 -3.303425e-04
N -6.148442e-02 -3.642292e+00 -3.282853e+00 -2.275977e-03 1.171655e-03 -9.882173e-04
N -1.577621e+00 -9.359564e-01 1.780287e+00 -1.628295e-03 -5.912761e-04 1.478290e-03
N -1.608207e+00 -9.149211e-01 6.801620e+00 -3.482882e-03 9.359847e-04 9.402412e-05
N -1.597345e+00 -9.420550e-01 -3.214371e+00 -1.459182e-03 -1.048590e-03 2.272181e-03
