108
Energy=-1.809929e+06 Lattice="9.561487e+00 0.000000e+00 0.000000e+00 -4.782057e+00 8.279363e+00 0.000000e+00 -1.401277e-03 1.110368e-03 1.546960e+01" Stress="-5.094031e-06 -1.158492e-05 3.763030e-05 -2.211466e-05 -2.918580e-05 4.997153e-05 2.432414e-05 4.433092e-05 -7.444631e-05" Properties=species:S:1:pos:R:3:forces:R:3 Config_type=AlGaN_super3_30_1_31.xyz
Al 1.579109e+00 8.947276e-01 2.443227e+00 4.086327e-06 1.372837e-05 -1.414015e-06
Al 1.581788e+00 8.860813e-01 7.581312e+00 1.253193e-04 -1.662807e-05 -5.545804e-07
Ga 1.568879e+00 8.755248e-01 -2.728277e+00 4.659781e-05 -1.247541e-05 3.703501e-06
Al -2.639092e-02 3.643074e+00 2.442277e+00 3.074636e-05 4.026279e-05 3.831171e-05
Al -1.023767e-02 3.651685e+00 7.571733e+00 1.169400e-05 -8.748242e-06 4.017043e-05
Ga -1.661388e-02 3.641759e+00 -2.722247e+00 2.079711e-05 -8.098070e-06 7.363383e-05
Al 3.178860e+00 -1.881046e+00 2.435239e+00 -5.785019e-06 6.446609e-05 9.546851e-05
Ga 3.172737e+00 -1.876962e+00 7.579184e+00 9.164018e-06 -6.734861e-06 4.107684e-05
Al 3.165898e+00 -1.876635e+00 -2.720645e+00 2.856699e-05 -8.819512e-06 9.895706e-05
Al -4.821376e+00 8.756763e-01 2.430044e+00 7.783815e-05 3.268334e-05 -6.710469e-05
Al -4.812232e+00 8.796332e-01 7.584200e+00 -2.860645e-05 1.309867e-05 7.077770e-05
Ga -4.799075e+00 8.768090e-01 -2.722494e+00 7.229727e-05 -1.521383e-05 3.541776e-05
Al -6.413692e+00 3.619119e+00 2.473130e+00 -1.904578e-05 9.018247e-05 1.253942e-04
Ga -6.423300e+00 3.631364e+00 7.576776e+00 -7.092204e-07 -9.009874e-05 -6.242611e-07
Al -6.401190e+00 3.646740e+00 -2.755669e+00 2.953971e-05 -3.140578e-06 1.826115e-05
Ga -3.218886e+00 -1.876419e+00 2.441300e+00 2.772221e-05 -3.134737e-05 1.723521e-04
Al -3.208409e+00 -1.888115e+00 7.578542e+00 3.052612e-06 8.175523e-06 2.423864e-05
Ga -3.211706e+00 -1.884153e+00 -2.731842e+00 1.422332e-05 7.212479e-06 7.001353e-05
Al -1.611067e+00 8.832444e-01 2.462942e+00 6.321359e-05 -2.978624e-05 8.824212e-05
Ga -1.624280e+00 8.728671e-01 7.587726e+00 1.201586e-04 -4.593502e-05 5.288316e-05
Al -1.622918e+00 8.790208e-01 -2.758038e+00 7.138559e-05 -4.410486e-05 2.450743e-05
Ga -3.192438e+00 3.641830e+00 2.430817e+00 4.116452e-05 4.662873e-05 4.251508e-05
Ga -3.202468e+00 3.631842e+00 7.596858e+00 8.734953e-05 -2.382367e-05 3.990857e-05
Ga -3.212691e+00 3.635221e+00 -2.729226e+00 3.094665e-05 -5.079278e-05 6.310704e-05
Ga -2.452873e-02 -1.866222e+00 2.445154e+00 -1.529228e-05 -5.492087e-05 8.735264e-05
Ga -3.154749e-02 -1.864098e+00 7.610892e+00 8.093876e-05 -6.377662e-05 5.298396e-05
Ga -2.037633e-02 -1.878523e+00 -2.757867e+00 3.740866e-05 -5.333369e-05 -4.259230e-06
Ga -1.352109e-02 1.813937e+00 5.005509e+00 1.015227e-05 1.095631e-04 6.025147e-05
Ga -2.365062e-02 1.796487e+00 -5.330045e+00 -5.341962e-06 7.156980e-05 4.316775e-05
Ga -4.146284e-02 1.802923e+00 -1.168924e-01 -1.808102e-05 7.850690e-05 2.415038e-05
Al 3.185325e+00 -3.717927e+00 5.006347e+00 4.660005e-05 2.465128e-05 -1.173279e-05
Ga 3.165043e+00 -3.718264e+00 -5.302318e+00 -2.219587e-05 7.695777e-05 9.945726e-05
Al 3.176163e+00 -3.699894e+00 -1.417502e-01 -6.968188e-06 6.198464e-05 6.533374e-05
Ga 1.576406e+00 -9.529705e-01 4.997457e+00 -8.624916e-05 5.653527e-05 6.073478e-05
Al 1.566841e+00 -9.621220e-01 -5.307260e+00 -5.404100e-06 5.337518e-05 3.104685e-05
Ga 1.596980e+00 -9.717637e-01 -1.258149e-01 -1.014623e-04 1.143287e-04 -2.425150e-06
Al 3.160550e+00 1.797442e+00 5.002396e+00 -6.367692e-04 7.187824e-04 5.204706e-04
Ga 3.169603e+00 1.805437e+00 -5.316329e+00 1.023626e-05 4.030041e-06 4.045292e-05
Ga 3.167624e+00 1.808070e+00 -1.269774e-01 2.219406e-05 8.273734e-05 2.778294e-05
Al 6.344327e+00 -3.721061e+00 5.004400e+00 -3.291272e-04 1.011259e-04 -2.119465e-04
Al 6.363666e+00 -3.710064e+00 -5.323898e+00 2.709591e-05 6.468878e-06 4.901015e-05
Ga 6.349889e+00 -3.723073e+00 -1.243463e-01 5.266824e-05 4.016385e-05 1.257764e-04
Ga 4.764128e+00 -9.608352e-01 5.015873e+00 3.307849e-05 -1.417751e-04 4.623353e-05
Ga 4.770908e+00 -9.611814e-01 -5.326917e+00 -4.565675e-05 2.010206e-05 5.011509e-05
Al 4.742660e+00 -9.702549e-01 -1.321502e-01 -2.692679e-05 3.752432e-05 9.015904e-05
Ga -3.218604e+00 1.793496e+00 4.996661e+00 1.363869e-04 6.769261e-05 1.065591e-04
Al -3.213940e+00 1.794164e+00 -5.309618e+00 -3.654941e-06 -7.377169e-06 2.550723e-05
Ga -3.201026e+00 1.789282e+00 -1.258014e-01 -2.532493e-05 3.732560e-05 5.594882e-05
Ga -3.494285e-02 -3.720173e+00 5.008940e+00 2.874602e-05 7.013122e-06 8.775886e-05
Al -3.002199e-02 -3.716134e+00 -5.305903e+00 1.400514e-05 3.866507e-07 1.337206e-05
Ga -3.060160e-02 -3.726746e+00 -1.384240e-01 2.219603e-05 7.835070e-05 8.350393e-05
Al -1.625469e+00 -9.640365e-01 5.021395e+00 -3.661986e-05 2.799943e-07 7.443134e-05
Al -1.620102e+00 -9.678057e-01 -5.310949e+00 -2.406276e-05 7.140782e-06 2.404797e-05
Ga -1.625251e+00 -9.451119e-01 -1.503126e-01 -2.188522e-05 6.249863e-05 5.172396e-05
N 1.611004e+00 9.084760e-01 4.353245e+00 5.985875e-05 -6.369894e-05 -4.973690e-06
N 1.576333e+00 8.318706e-01 -5.969556e+00 2.361654e-05 -3.035441e-05 -2.886932e-05
N 1.565338e+00 8.807304e-01 -7.536463e-01 7.446313e-05 -4.908546e-05 -6.185715e-06
N -2.545565e-02 3.691280e+00 4.364584e+00 7.229579e-05 -2.378809e-05 6.130959e-05
N 2.054793e-02 3.670790e+00 -5.975333e+00 2.100027e-06 -4.790346e-05 -7.728972e-05
N -6.056978e-02 3.661100e+00 -7.443239e-01 -1.643566e-05 -1.543692e-06 -5.224440e-05
N 3.171827e+00 -1.928084e+00 4.355966e+00 6.305777e-05 -6.559216e-06 -1.494348e-04
N 3.123282e+00 -1.858757e+00 -5.925863e+00 1.999775e-05 -4.804724e-05 -8.600479e-05
N 3.206736e+00 -1.900776e+00 -7.910540e-01 3.370433e-05 -6.165810e-05 -7.377926e-06
N -4.852073e+00 8.989709e-01 4.345884e+00 3.833085e-04 -2.310974e-04 -1.855238e-04
N -4.764705e+00 9.063146e-01 -5.970205e+00 4.269284e-05 -1.540742e-05 -1.782977e-05
N -4.803477e+00 8.326038e-01 -7.406449e-01 4.621398e-05 -4.593204e-05 -7.707482e-05
N -6.445587e+00 3.612753e+00 4.394348e+00 2.277471e-04 -4.627461e-04 -1.093359e-04
N -6.399781e+00 3.686446e+00 -5.914058e+00 -2.486222e-05 -6.084158e-06 -4.010150e-05
N -6.403379e+00 3.642131e+00 -8.380950e-01 -3.822659e-05 -6.254508e-05 -7.192446e-05
N -3.169707e+00 -1.902458e+00 4.420851e+00 -6.708991e-05 3.746798e-05 -5.211290e-05
N -3.162279e+00 -1.906962e+00 -5.961048e+00 1.884659e-05 -8.986889e-06 -3.983959e-05
N -3.254059e+00 -1.860423e+00 -7.459425e-01 -1.602113e-05 -3.065940e-05 -9.310902e-05
N -1.612854e+00 8.317318e-01 4.375977e+00 4.346202e-05 -9.682948e-05 -1.055016e-04
N -1.660943e+00 8.519804e-01 -5.904725e+00 5.527638e-05 -3.745442e-05 -4.958062e-05
N -1.617937e+00 8.857813e-01 -8.425048e-01 5.748984e-05 -6.599005e-05 -6.952878e-06
N -3.163693e+00 3.669598e+00 4.405440e+00 -2.741351e-05 -1.256629e-04 -3.303267e-05
N -3.249182e+00 3.616061e+00 -5.887888e+00 1.902003e-05 -5.518673e-05 -5.422288e-05
N -3.168821e+00 3.661455e+00 -7.383159e-01 6.429128e-05 -5.769242e-05 -9.310403e-05
N -6.648843e-02 -1.851924e+00 4.412034e+00 3.673592e-05 -6.000319e-05 -6.353189e-05
N -2.305520e-02 -1.876544e+00 -5.865401e+00 8.820206e-06 -3.726029e-05 -1.885622e-05
N -1.828661e-02 -1.877288e+00 -7.754020e-01 1.623616e-05 -1.067387e-04 -4.538762e-05
N -2.920537e-02 1.801157e+00 1.881122e+00 -5.173559e-05 4.913170e-06 -9.643699e-05
N 1.821858e-02 1.825529e+00 6.998967e+00 -8.940853e-05 5.861225e-05 -5.484994e-05
N -6.020114e-02 1.780282e+00 -3.351524e+00 -6.249884e-05 5.333103e-05 -3.111019e-05
N 3.212924e+00 -3.688361e+00 1.783336e+00 -2.562487e-05 -1.926202e-05 -2.806554e-05
N 3.207485e+00 -3.744886e+00 6.927096e+00 -6.607921e-05 4.348318e-05 -5.054420e-05
N 3.168574e+00 -3.672564e+00 -3.330337e+00 -3.748912e-05 4.775330e-05 -8.794415e-05
N 1.619234e+00 -9.351588e-01 1.859006e+00 -5.796864e-05 -7.888371e-06 -6.064595e-05
N 1.569011e+00 -9.122801e-01 6.971277e+00 -1.287488e-04 7.450729e-05 -6.704897e-05
N 1.620175e+00 -9.812222e-01 -3.387688e+00 -7.306205e-05 4.788532e-05 -1.715757e-05
N 3.163200e+00 1.809003e+00 1.859594e+00 -1.917456e-05 -6.038055e-05 -1.782336e-05
N 3.164308e+00 1.749967e+00 6.936671e+00 7.235879e-05 -8.318737e-05 -1.622889e-04
N 3.165416e+00 1.842254e+00 -3.341169e+00 -3.372368e-05 1.191465e-05 -1.936261e-05
N 6.357243e+00 -3.771097e+00 1.857485e+00 -1.664960e-05 -8.491483e-06 -1.438724e-04
N 6.307885e+00 -3.694263e+00 6.928112e+00 3.329557e-05 -3.822832e-05 1.961737e-04
N 6.387710e+00 -3.740811e+00 -3.401222e+00 -2.450388e-05 -1.918484e-07 -3.497103e-05
N 4.714523e+00 -9.375943e-01 1.796274e+00 -3.311685e-05 -7.455298e-06 -7.822746e-05
N 4.802471e+00 -9.340549e-01 7.000741e+00 -2.701288e-05 3.876949e-05 -6.822701e-05
N 4.718539e+00 -9.839938e-01 -3.349094e+00 -7.274552e-05 -4.779942e-06 -8.419565e-05
N -3.206227e+00 1.747242e+00 1.860016e+00 -8.365336e-05 -2.137844e-05 -6.992240e-05
N -3.254852e+00 1.774983e+00 6.968326e+00 -5.653241e-05 6.175754e-06 -4.841916e-05
N -3.176554e+00 1.776032e+00 -3.390611e+00 -6.862616e-05 4.091337e-05 -3.534377e-05
N -7.441943e-02 -3.747583e+00 1.844633e+00 2.306236e-06 -6.215599e-05 -1.230773e-04
N -2.455639e-02 -3.717188e+00 6.975640e+00 -3.213864e-05 3.268950e-05 -2.691658e-05
N -6.065894e-02 -3.746586e+00 -3.389098e+00 -2.391088e-05 1.893741e-05 -3.484856e-05
N -1.618973e+00 -9.041051e-01 1.820448e+00 -3.150424e-05 4.822000e-05 -1.285272e-04
N -1.657141e+00 -9.842534e-01 6.934878e+00 -7.610567e-05 2.880111e-05 -1.528198e-05
N -1.623529e+00 -9.170978e-01 -3.393333e+00 -6.753405e-05 3.933673e-05 -1.918342e-05
