108
Energy=-1397949.305606 Lattice="9.510654 0.000000 0.000000 -4.759301 8.234931 0.000000 0.005784 -0.003474 15.351184" Stress="0.000001 -0.000002 0.000001 -0.000002 -0.000001 -0.000001 0.000001 -0.000001 0.000001" Properties=species:S:1:pos:R:3:forces:R:3
Al 1.565289 0.890043 2.419586 0.000020 -0.000072 0.000073
Al 1.570645 0.871750 7.500995 0.000186 0.000166 -0.000249
Al 1.556848 0.879342 -2.697481 -0.000208 -0.000282 0.000253
Al -0.020302 3.610882 2.413490 0.000013 0.000088 0.000056
Al -0.025480 3.618719 7.489571 0.000151 0.000206 -0.000024
Al -0.027158 3.612265 -2.675770 -0.000079 0.000032 0.000338
Al 3.154094 -1.867979 2.422045 0.000003 -0.000302 -0.000052
Ga 3.136590 -1.878648 7.524976 0.000015 0.000131 0.000153
Ga 3.138714 -1.876989 -2.713213 -0.000155 0.000019 0.000043
Al -4.792661 0.878138 2.394219 -0.000275 0.000049 0.000295
Al -4.785757 0.886929 7.525981 -0.000113 -0.000171 0.000052
Ga -4.792053 0.884212 -2.681426 0.000231 0.000017 -0.000069
Al -6.378013 3.600855 2.409376 -0.000048 0.000105 -0.000093
Ga -6.366036 3.607483 7.523704 -0.000143 0.000001 0.000139
Ga -6.368656 3.615014 -2.702127 0.000095 0.000087 -0.000071
Ga -3.200323 -1.879300 2.415741 -0.000093 0.000061 0.000083
Al -3.180509 -1.877083 7.491690 -0.000115 -0.000086 -0.000041
Ga -3.194925 -1.880806 -2.667511 -0.000064 0.000095 0.000198
Al -1.596650 0.888108 2.421743 0.000020 0.000004 -0.000062
Ga -1.600538 0.876248 7.514916 0.000125 -0.000104 -0.000011
Ga -1.600951 0.891068 -2.698566 0.000346 -0.000106 0.000028
Ga -3.185578 3.618790 2.394074 0.000004 -0.000005 0.000032
Al -3.182380 3.623023 7.537138 0.000026 0.000221 0.000197
Ga -3.192506 3.629600 -2.694902 0.000084 -0.000135 0.000307
Ga -0.014301 -1.864256 2.433219 -0.000033 -0.000047 0.000236
Al -0.011148 -1.861245 7.515329 -0.000062 -0.000045 0.000110
Al -0.009486 -1.870470 -2.710955 0.000026 0.000004 0.000219
Al -0.006035 1.793710 4.951260 -0.000188 -0.000023 0.000053
Ga -0.009433 1.800998 -5.272718 -0.000100 0.000150 0.000161
Al -0.018681 1.808245 -0.129570 0.000094 -0.000147 0.000014
Al 3.163727 -3.702256 4.962003 0.000077 0.000203 -0.000167
Al 3.138196 -3.713497 -5.276390 -0.000035 -0.000004 0.000088
Al 3.165873 -3.706369 -0.130910 -0.000185 -0.000213 0.000038
Al 1.564561 -0.938820 4.961430 0.000172 -0.000183 0.000105
Al 1.555295 -0.950053 -5.270226 -0.000189 0.000140 -0.000167
Ga 1.573539 -0.950987 -0.138774 -0.000163 0.000231 0.000316
Al 3.130411 1.785459 4.948212 0.000039 -0.000047 0.000302
Al 3.145926 1.781004 -5.276344 -0.000015 -0.000231 0.000283
Al 3.142391 1.796615 -0.120181 -0.000273 -0.000118 -0.000186
Al 6.312901 -3.716084 4.958355 -0.000008 0.000206 0.000188
Ga 6.306972 -3.706669 -5.274528 -0.000120 0.000034 0.000241
Al 6.309261 -3.721866 -0.126140 0.000123 -0.000040 -0.000084
Ga 4.727168 -0.953138 4.969823 -0.000216 0.000084 -0.000000
Ga 4.727696 -0.939379 -5.293273 -0.000011 0.000018 -0.000047
Al 4.724270 -0.953903 -0.110778 -0.000186 -0.000077 -0.000235
Ga -3.190930 1.789222 4.964785 -0.000173 -0.000127 0.000082
Al -3.215399 1.814471 -5.289213 0.000085 0.000009 0.000060
Al -3.198619 1.792252 -0.113524 0.000251 0.000110 -0.000241
Ga -0.025384 -3.696539 4.983652 0.000016 -0.000111 0.000283
Al -0.002146 -3.695261 -5.289988 -0.000016 -0.000090 -0.000090
Al -0.028032 -3.711178 -0.136837 0.000222 0.000000 -0.000349
Al -1.593952 -0.951241 4.975322 -0.000013 0.000194 -0.000219
Ga -1.595652 -0.963864 -5.270453 -0.000143 -0.000009 0.000166
Ga -1.606561 -0.952268 -0.137503 -0.000010 0.000133 0.000115
N 1.562086 0.878303 4.341559 0.000100 -0.000037 -0.000017
N 1.602337 0.851777 -5.923528 0.000026 -0.000131 0.000025
N 1.562506 0.925636 -0.771393 0.000089 0.000188 -0.000038
N -0.024957 3.619106 4.340925 0.000047 -0.000053 -0.000000
N -0.070372 3.644140 -5.949989 0.000025 -0.000009 -0.000089
N -0.027510 3.617813 -0.751002 0.000051 -0.000006 -0.000021
N 3.108935 -1.895424 4.344100 -0.000166 0.000033 0.000141
N 3.098139 -1.896951 -5.844610 -0.000065 0.000042 -0.000018
N 3.190072 -1.897666 -0.732101 -0.000009 0.000100 -0.000126
N -4.820925 0.900977 4.305366 0.000100 -0.000021 -0.000425
N -4.787688 0.932349 -5.912130 0.000043 -0.000005 -0.000015
N -4.782789 0.878114 -0.690288 0.000079 0.000055 0.000011
N -6.404450 3.595600 4.335828 0.000025 -0.000041 -0.000099
N -6.328391 3.594624 -5.846565 0.000103 0.000241 -0.000067
N -6.365867 3.615979 -0.711321 -0.000079 -0.000137 0.000076
N -3.148675 -1.895032 4.392967 -0.000116 -0.000194 -0.000064
N -3.187973 -1.872280 -5.952288 0.000092 -0.000008 -0.000185
N -3.239069 -1.898808 -0.690650 0.000114 -0.000010 0.000025
N -1.563118 0.856162 4.345558 0.000138 -0.000113 0.000139
N -1.648782 0.902702 -5.863074 0.000239 -0.000106 -0.000180
N -1.610335 0.932281 -0.719315 0.000208 0.000001 -0.000064
N -3.154245 3.647001 4.357900 -0.000012 -0.000011 -0.000154
N -3.191586 3.626857 -5.890013 -0.000027 -0.000046 -0.000052
N -3.192763 3.619770 -0.696078 -0.000122 0.000100 0.000096
N -0.016911 -1.825250 4.397532 -0.000091 0.000038 -0.000023
N 0.022290 -1.884925 -5.914852 0.000075 0.000124 -0.000004
N -0.015587 -1.920272 -0.794517 0.000173 -0.000092 -0.000136
N -0.019346 1.791877 1.803261 0.000032 -0.000019 -0.000024
N 0.025911 1.811531 6.874657 0.000034 -0.000138 -0.000014
N 0.022647 1.819617 -3.290136 -0.000047 0.000227 -0.000199
N 3.201525 -3.673610 1.783935 0.000072 0.000060 -0.000116
N 3.149816 -3.748379 6.877769 0.000053 -0.000033 -0.000063
N 3.194901 -3.734888 -3.356549 0.000020 0.000109 -0.000104
N 1.605936 -0.926460 1.837876 0.000116 0.000149 -0.000013
N 1.528498 -0.928589 6.878844 0.000002 0.000070 -0.000259
N 1.518952 -0.923049 -3.338677 -0.000030 0.000202 0.000048
N 3.139595 1.789233 1.799137 -0.000114 0.000068 -0.000090
N 3.149525 1.740463 6.868656 -0.000112 -0.000066 -0.000099
N 3.101695 1.761031 -3.357774 0.000213 0.000159 -0.000268
N 6.316479 -3.755993 1.789272 0.000015 -0.000087 0.000141
N 6.284133 -3.686361 6.876782 -0.000065 -0.000012 -0.000162
N 6.271020 -3.724255 -3.299516 -0.000015 -0.000110 -0.000111
N 4.690064 -0.932925 1.802085 -0.000085 -0.000302 -0.000084
N 4.770107 -0.927492 6.948560 -0.000054 0.000153 -0.000002
N 4.738883 -0.949292 -3.325770 -0.000163 -0.000103 -0.000073
N -3.191025 1.738047 1.798034 0.000272 0.000137 -0.000039
N -3.234608 1.816432 6.940698 0.000028 -0.000209 -0.000110
N -3.205109 1.795584 -3.374633 -0.000048 -0.000004 -0.000074
N -0.068100 -3.719473 1.773710 -0.000033 -0.000007 0.000203
N 0.023452 -3.679689 6.957178 -0.000068 -0.000074 -0.000152
N -0.018813 -3.653100 -3.366155 0.000040 0.000014 0.000001
N -1.602975 -0.907181 1.824779 0.000055 0.000039 -0.000062
N -1.597924 -0.998508 6.889315 0.000038 -0.000037 0.000245
N -1.570918 -0.979030 -3.290703 -0.000185 -0.000116 -0.000107
