108
Energy=-1.672602e+06 Lattice="9.543596e+00 0.000000e+00 0.000000e+00 -4.773956e+00 8.264079e+00 0.000000e+00 -2.526342e-03 -6.282743e-03 1.543163e+01" Stress="1.578441e-04 -7.780974e-05 -1.964845e-04 -9.125594e-05 -1.509221e-04 -2.336514e-04 -1.742010e-04 -2.382498e-04 -5.383670e-05" Properties=species:S:1:pos:R:3:forces:R:3 Config_type=AlGaN_super3_27_2_30.xyz
Al 1.580446e+00 8.748352e-01 2.454818e+00 2.380552e-05 -2.518816e-06 -6.220990e-06
Al 1.578456e+00 8.865282e-01 7.555852e+00 -1.186699e-04 4.902775e-04 3.574079e-04
Al 1.563538e+00 8.965769e-01 -2.742067e+00 2.018934e-05 -2.315730e-05 1.700945e-05
Al -1.630200e-02 3.646821e+00 2.399321e+00 -5.341240e-05 -1.992083e-05 1.532935e-05
Al -1.789645e-02 3.634400e+00 7.591942e+00 5.086828e-05 -2.118751e-05 1.943360e-05
Ga -2.310661e-02 3.629441e+00 -2.722688e+00 -7.732614e-06 -2.780608e-05 4.222602e-06
Al 3.173167e+00 -1.870579e+00 2.414056e+00 -2.400665e-04 -3.233820e-07 -2.965170e-04
Al 3.162728e+00 -1.882183e+00 7.559196e+00 5.391905e-05 -6.811051e-05 3.292260e-05
Ga 3.166456e+00 -1.884572e+00 -2.698628e+00 -3.215632e-05 -9.211465e-06 8.239343e-05
Al -4.797956e+00 8.646213e-01 2.418269e+00 4.242557e-05 2.818238e-04 -1.570775e-04
Ga -4.819409e+00 8.755574e-01 7.563024e+00 3.688002e-05 -2.963007e-05 8.469298e-06
Ga -4.796172e+00 8.859867e-01 -2.710890e+00 7.065678e-06 -2.313106e-05 1.514930e-05
Ga -6.408374e+00 3.626595e+00 2.439580e+00 2.764598e-05 -3.323213e-05 7.596335e-06
Al -6.401307e+00 3.616834e+00 7.548695e+00 -1.543930e-04 1.883259e-04 -5.527286e-07
Al -6.394261e+00 3.629167e+00 -2.714515e+00 -2.334699e-05 -2.587155e-05 3.610307e-05
Al -3.224079e+00 -1.882499e+00 2.417646e+00 7.351128e-05 -7.620723e-05 3.037219e-05
Al -3.210358e+00 -1.891471e+00 7.550585e+00 1.754223e-05 -6.187479e-05 4.110869e-05
Al -3.201631e+00 -1.878659e+00 -2.692190e+00 -2.372318e-05 -2.137370e-05 -2.108108e-06
Ga -1.623205e+00 8.816904e-01 2.437904e+00 8.660568e-06 -1.989213e-05 -7.974810e-06
Ga -1.611355e+00 8.723377e-01 7.554019e+00 2.469210e-05 -2.500510e-05 2.285938e-05
Al -1.606617e+00 8.880353e-01 -2.714113e+00 3.826810e-05 -3.528685e-05 1.977290e-05
Ga -3.193867e+00 3.625173e+00 2.431780e+00 -2.531419e-05 -6.191394e-05 -4.841172e-06
Ga -3.204037e+00 3.635552e+00 7.555122e+00 5.778991e-06 -6.486291e-05 1.496104e-05
Al -3.192900e+00 3.630248e+00 -2.705040e+00 5.616484e-06 -3.160945e-05 2.120916e-05
Ga -1.611130e-02 -1.866156e+00 2.460096e+00 -2.207245e-06 -6.129898e-05 -3.741132e-05
Ga -2.728328e-02 -1.879485e+00 7.539302e+00 -6.783369e-05 -7.838229e-05 4.385778e-05
Ga -2.714108e-02 -1.872255e+00 -2.719891e+00 1.288024e-05 -6.853496e-05 5.331890e-06
Ga -1.278494e-02 1.791834e+00 4.996309e+00 -7.384277e-05 3.461702e-05 3.132260e-05
Al -1.212808e-02 1.803762e+00 -5.300337e+00 4.824725e-06 2.649238e-05 -1.739751e-05
Ga -2.346410e-02 1.806241e+00 -1.390246e-01 -4.513306e-06 2.312943e-05 2.288645e-05
Ga 3.156923e+00 -3.708847e+00 4.991767e+00 -4.020165e-05 -4.168724e-05 3.268147e-05
Al 3.164291e+00 -3.715270e+00 -5.301854e+00 -4.460270e-06 1.756279e-06 2.910357e-05
Al 3.166602e+00 -3.714021e+00 -1.306269e-01 -3.325403e-05 4.008523e-05 4.418307e-05
Al 1.574202e+00 -9.530055e-01 4.997760e+00 9.463357e-05 1.329408e-04 -3.854039e-05
Ga 1.584665e+00 -9.399854e-01 -5.308036e+00 -5.207138e-05 4.524589e-05 3.140018e-05
Ga 1.585015e+00 -9.494543e-01 -1.294149e-01 -5.489513e-05 3.205424e-05 4.872910e-05
Al 3.163938e+00 1.789816e+00 4.988252e+00 1.182667e-04 -2.799906e-06 -2.058585e-04
Al 3.139022e+00 1.807752e+00 -5.293544e+00 -2.314688e-05 -2.463066e-05 2.234879e-06
Ga 3.156883e+00 1.794856e+00 -1.380585e-01 1.333951e-05 -1.157415e-05 5.204320e-05
Ga 6.346018e+00 -3.712586e+00 5.014352e+00 -9.382971e-06 -2.514251e-05 6.025417e-05
Ga 6.341881e+00 -3.720861e+00 -5.305690e+00 1.750034e-05 -1.430798e-05 -5.965644e-06
Al 6.328596e+00 -3.699709e+00 -1.483698e-01 8.285219e-05 -3.790018e-05 -1.133152e-04
Ga 4.748155e+00 -9.480860e-01 4.980022e+00 1.808626e-05 1.530864e-05 5.712195e-05
Ga 4.746505e+00 -9.659444e-01 -5.300934e+00 -4.047304e-05 -2.234179e-05 3.638354e-05
Al 4.759534e+00 -9.674980e-01 -1.211886e-01 -3.700828e-05 1.879727e-06 -2.606517e-05
Al -3.222763e+00 1.791174e+00 4.988280e+00 1.547689e-05 -9.053225e-06 -2.392194e-05
Ga -3.195426e+00 1.809692e+00 -5.269132e+00 1.435816e-05 -4.794718e-05 2.200191e-05
Al -3.200976e+00 1.800180e+00 -1.595567e-01 -3.045607e-05 -2.118107e-05 3.861131e-05
Al -2.718091e-02 -3.718085e+00 5.004308e+00 -1.343498e-05 -5.294221e-05 1.792759e-05
Ga -2.261222e-02 -3.732399e+00 -5.280237e+00 2.047182e-05 -3.232715e-05 4.604270e-06
Ga -1.688008e-02 -3.726833e+00 -1.576020e-01 -1.627868e-05 -1.285526e-05 2.287419e-05
Al -1.618143e+00 -9.650349e-01 4.989694e+00 -3.641229e-05 2.265558e-05 1.687039e-05
Ga -1.622246e+00 -9.487516e-01 -5.274553e+00 -2.227716e-05 -8.942024e-06 5.768365e-05
Ga -1.638859e+00 -9.535190e-01 -1.458421e-01 -2.567788e-05 -2.342260e-06 -4.116907e-06
N 1.610422e+00 8.530378e-01 4.368701e+00 -5.380268e-05 -1.159721e-04 2.708928e-05
N 1.571474e+00 9.331229e-01 -5.946183e+00 4.152434e-05 -7.046780e-05 -1.582756e-04
N 1.566166e+00 8.834509e-01 -8.325937e-01 3.546971e-05 -8.501443e-06 -3.857903e-05
N -1.950568e-02 3.636458e+00 4.310159e+00 3.226142e-05 8.873674e-06 -1.941176e-05
N -6.411107e-02 3.611079e+00 -5.915824e+00 -2.603605e-05 -1.694950e-06 -6.019802e-06
N -2.661197e-02 3.680953e+00 -7.365189e-01 6.344832e-06 1.810843e-05 -1.149713e-05
N 3.118399e+00 -1.854337e+00 4.329449e+00 3.266319e-05 2.853363e-06 1.179293e-04
N 3.159413e+00 -1.923442e+00 -5.956712e+00 -2.396302e-06 1.449844e-05 -6.016986e-05
N 3.204269e+00 -1.901211e+00 -7.152582e-01 2.063414e-05 2.572041e-06 -1.630204e-05
N -4.795999e+00 9.237738e-01 4.344757e+00 -4.484085e-05 -1.981041e-05 4.922866e-05
N -4.837808e+00 9.106207e-01 -5.885414e+00 3.934245e-05 1.745142e-05 -5.396597e-05
N -4.758404e+00 8.505788e-01 -7.264604e-01 3.240795e-05 1.215133e-06 -2.928824e-05
N -6.352803e+00 3.609360e+00 4.414844e+00 3.292006e-05 1.318120e-05 -2.260898e-05
N -6.382118e+00 3.584604e+00 -5.962364e+00 6.457541e-06 -4.339244e-05 -3.755265e-07
N -6.434905e+00 3.652970e+00 -7.959552e-01 -4.366968e-05 6.568127e-05 1.454335e-05
N -3.167526e+00 -1.862188e+00 4.332190e+00 3.598038e-07 6.590518e-06 -4.354809e-05
N -3.197832e+00 -1.873143e+00 -5.976558e+00 -2.624332e-05 1.081614e-05 -3.177048e-05
N -3.251124e+00 -1.899235e+00 -7.751311e-01 -4.310495e-06 2.514892e-05 2.515157e-05
N -1.656617e+00 8.572680e-01 4.417393e+00 3.755643e-05 -4.238064e-05 -2.180568e-05
N -1.573656e+00 9.040385e-01 -5.901278e+00 4.624627e-05 -3.912713e-05 -2.404197e-05
N -1.646309e+00 9.072376e-01 -7.962445e-01 5.029070e-05 -3.641732e-05 -1.916079e-05
N -3.244327e+00 3.608752e+00 4.411352e+00 1.464531e-05 5.770317e-06 3.162640e-06
N -3.165544e+00 3.657591e+00 -5.907037e+00 1.094344e-05 -3.410147e-07 -2.255544e-05
N -3.152427e+00 3.614193e+00 -7.791016e-01 2.054770e-05 -8.982417e-07 -3.784698e-05
N -1.824293e-02 -1.875769e+00 4.450757e+00 -6.670715e-05 -4.411001e-05 -1.485710e-05
N -2.437774e-02 -1.876488e+00 -5.912348e+00 2.185112e-05 -2.562239e-05 -3.170249e-05
N -1.964974e-02 -1.869094e+00 -7.559444e-01 3.253474e-05 -3.331002e-05 -4.858734e-05
N 2.330053e-02 1.812171e+00 1.847775e+00 -3.480969e-05 8.067055e-05 -2.378030e-06
N 1.977151e-02 1.824007e+00 6.977175e+00 4.760171e-05 -7.320227e-05 -4.893101e-06
N -2.281053e-02 1.752932e+00 -3.369680e+00 -1.041025e-05 6.855110e-05 -2.121193e-05
N 3.195663e+00 -3.690834e+00 1.790874e+00 5.185393e-05 1.017085e-04 4.839443e-05
N 3.208180e+00 -3.694110e+00 6.970307e+00 -2.907517e-05 5.639697e-05 -2.789126e-05
N 3.120307e+00 -3.732205e+00 -3.381730e+00 -1.499682e-05 7.191712e-05 -4.480855e-05
N 1.607501e+00 -9.290500e-01 1.848645e+00 1.477657e-04 -5.288166e-05 1.242718e-04
N 1.615169e+00 -9.320540e-01 6.928692e+00 9.350792e-08 -2.025222e-04 -1.150942e-04
N 1.579375e+00 -9.094000e-01 -3.331319e+00 -2.749131e-05 5.148706e-05 -2.635524e-05
N 3.153296e+00 1.748278e+00 1.840510e+00 1.016137e-04 -6.490718e-05 6.436702e-05
N 3.113655e+00 1.813493e+00 6.907238e+00 4.636914e-05 -9.056171e-05 1.055740e-04
N 3.116314e+00 1.826809e+00 -3.364382e+00 7.512719e-06 2.342240e-05 -3.375313e-05
N 6.304341e+00 -3.686743e+00 1.775245e+00 -1.386005e-05 2.104345e-05 5.811681e-05
N 6.331481e+00 -3.720224e+00 7.002179e+00 8.117402e-05 -4.988801e-05 9.223087e-06
N 6.383972e+00 -3.683450e+00 -3.317950e+00 8.620799e-06 3.015316e-05 -3.280909e-05
N 4.752333e+00 -9.587301e-01 1.810944e+00 -9.284233e-06 5.070022e-05 2.768083e-05
N 4.746204e+00 -1.007494e+00 6.964900e+00 -3.478501e-05 3.224455e-05 -3.751400e-05
N 4.792567e+00 -9.839171e-01 -3.326174e+00 -1.305788e-05 1.106880e-06 -3.545206e-05
N -3.244829e+00 1.773703e+00 1.759955e+00 -1.214758e-04 -8.909704e-05 7.105050e-05
N -3.214876e+00 1.788971e+00 6.893720e+00 -3.760312e-06 1.336713e-05 -3.560771e-06
N -3.162271e+00 1.823300e+00 -3.292690e+00 -2.779121e-06 4.002173e-05 -1.786268e-05
N -2.453198e-02 -3.713792e+00 1.810730e+00 1.487900e-05 2.401550e-05 1.528321e-05
N -6.833307e-02 -3.744496e+00 6.913535e+00 2.420924e-05 2.620460e-05 -1.295858e-05
N -2.041552e-02 -3.767778e+00 -3.292069e+00 -4.401747e-06 3.924012e-05 -4.341656e-05
N -1.655031e+00 -9.827608e-01 1.827734e+00 -1.255174e-05 4.195106e-05 -1.056997e-05
N -1.663361e+00 -9.863966e-01 6.899851e+00 -1.701785e-06 1.778253e-05 -4.812313e-05
N -1.662168e+00 -9.312522e-01 -3.292451e+00 -2.716406e-05 4.208588e-05 -6.586403e-06
