108
Energy=-1947255.286935 Lattice="9.577610 0.000000 0.000000 -4.788646 8.295279 0.000000 -0.000030 -0.001910 15.510466" Stress="0.000000 -0.000000 -0.000000 -0.000000 0.000000 -0.000000 -0.000000 -0.000000 0.000000" Properties=species:S:1:pos:R:3:forces:R:3
Al 1.572746 0.875075 2.413139 0.000014 -0.000042 0.000101
Al 1.570359 0.881226 7.618290 -0.000004 0.000004 0.000135
Al 1.571884 0.869017 -2.722150 -0.000005 0.000037 0.000148
Al -0.013411 3.645160 2.425002 -0.000022 -0.000012 0.000146
Al -0.011932 3.647554 7.615948 0.000008 -0.000005 0.000127
Ga -0.011892 3.643941 -2.728333 0.000018 -0.000007 0.000065
Al 3.162011 -1.875745 2.412648 -0.000058 0.000043 0.000114
Ga 3.174086 -1.876336 7.627935 -0.000020 -0.000016 0.000071
Al 3.175467 -1.859468 -2.733692 -0.000002 0.000002 0.000120
Ga -4.830064 0.873399 2.426549 -0.000060 -0.000052 0.000048
Ga -4.808503 0.875571 7.631158 -0.000060 0.000007 0.000052
Ga -4.810456 0.862557 -2.740897 -0.000047 0.000037 -0.000004
Al -6.414465 3.648786 2.423714 0.000015 -0.000035 0.000116
Ga -6.429560 3.644884 7.607879 -0.000009 0.000000 0.000025
Al -6.412894 3.652642 -2.716870 -0.000056 -0.000037 0.000129
Ga -3.218824 -1.892467 2.428706 -0.000067 -0.000016 0.000049
Al -3.217091 -1.887951 7.606029 0.000023 -0.000025 0.000119
Al -3.227310 -1.879292 -2.723713 -0.000013 -0.000037 0.000087
Ga -1.602018 0.875415 2.464787 -0.000013 0.000011 0.000142
Ga -1.618915 0.877528 7.595020 0.000040 -0.000024 0.000013
Al -1.616230 0.878228 -2.742055 0.000019 0.000036 0.000111
Ga -3.219920 3.662522 2.429554 -0.000041 0.000049 0.000049
Ga -3.206316 3.635818 7.610604 -0.000009 0.000085 0.000021
Ga -3.218944 3.645158 -2.715212 0.000027 0.000018 -0.000005
Al -0.014676 -1.881824 2.409326 0.000042 -0.000028 0.000158
Ga -0.026447 -1.867102 7.618378 0.000031 -0.000009 0.000082
Ga -0.011117 -1.872394 -2.716406 -0.000010 -0.000026 -0.000117
Ga -0.019552 1.801573 5.023751 -0.000007 -0.000003 0.000097
Ga -0.020682 1.790675 -5.317025 0.000003 0.000006 0.000066
Ga -0.019383 1.786602 -0.142525 0.000050 -0.000040 -0.000025
Ga 3.175559 -3.728478 5.010923 -0.000039 0.000041 0.000067
Ga 3.168056 -3.714922 -5.303821 -0.000028 -0.000026 0.000044
Ga 3.163389 -3.695826 -0.142737 0.000000 -0.000033 -0.000038
Ga 1.564505 -0.957761 4.993324 0.000035 -0.000047 0.000044
Al 1.588071 -0.949396 -5.298019 0.000008 -0.000013 0.000121
Al 1.583850 -0.967800 -0.142758 0.000881 0.000707 0.000035
Ga 3.169636 1.799822 5.011039 0.000024 0.000004 0.000080
Ga 3.166102 1.786958 -5.293042 0.000011 0.000007 0.000074
Ga 3.165035 1.801009 -0.156782 -0.000040 -0.000111 -0.000099
Ga 6.360713 -3.721717 5.017210 0.000017 0.000013 0.000086
Ga 6.357725 -3.708437 -5.304772 0.000003 0.000001 0.000048
Ga 6.372852 -3.717614 -0.145213 -0.000025 -0.000004 -0.000086
Ga 4.774813 -0.958111 5.025666 -0.000042 -0.000012 0.000063
Al 4.769347 -0.964663 -5.307160 -0.000026 0.000004 0.000088
Al 4.750113 -0.970424 -0.160001 -0.000097 -0.000031 -0.000105
Al -3.213968 1.794729 5.017543 0.000001 0.000016 0.000187
Al -3.214716 1.794627 -5.297168 -0.000028 0.000019 0.000135
Ga -3.215176 1.796659 -0.153109 -0.000075 -0.000002 -0.000046
Ga -0.027928 -3.718015 5.000151 0.000016 -0.000013 0.000079
Ga -0.017096 -3.726780 -5.300350 0.000030 0.000026 0.000023
Al -0.029857 -3.717265 -0.135080 -0.000031 -0.000106 -0.000073
Al -1.618525 -0.964516 5.018354 0.000034 -0.000051 0.000165
Ga -1.635906 -0.956018 -5.296261 0.000034 -0.000025 0.000065
Ga -1.618432 -0.963295 -0.164187 -0.000151 0.000049 -0.000013
N 1.572756 0.881825 4.323824 0.000022 0.000016 -0.000069
N 1.575641 0.832078 -5.973669 -0.000001 -0.000002 -0.000111
N 1.570608 0.825842 -0.802951 -0.000066 -0.000172 -0.000008
N -0.020305 3.644046 4.337067 0.000015 0.000000 -0.000082
N -0.021682 3.647324 -5.976308 0.000021 0.000012 -0.000095
N -0.024534 3.645394 -0.762433 -0.000003 0.000022 -0.000056
N 3.172252 -1.878349 4.331945 0.000030 -0.000001 -0.000074
N 3.169040 -1.830224 -5.899636 0.000015 0.000039 -0.000054
N 3.165280 -1.826809 -0.803000 -0.000140 -0.000043 -0.000068
N -4.772620 0.900929 4.403448 0.000042 0.000062 -0.000071
N -4.769663 0.858394 -5.884598 0.000060 0.000028 -0.000090
N -4.812233 0.830492 -0.762496 0.000047 0.000020 -0.000063
N -6.410165 3.646374 4.339128 0.000009 -0.000007 -0.000085
N -6.410960 3.643813 -5.934777 0.000015 0.000002 -0.000048
N -6.364767 3.673669 -0.800860 0.000061 0.000053 -0.000058
N -3.175740 -1.857976 4.401950 0.000041 0.000012 -0.000079
N -3.254671 -1.856457 -5.980841 -0.000036 0.000007 -0.000096
N -3.263666 -1.858046 -0.804491 0.000030 0.000009 -0.000072
N -1.654409 0.855258 4.448916 -0.000046 0.000014 -0.000115
N -1.663085 0.902933 -5.933847 -0.000025 0.000010 -0.000086
N -1.617616 0.884332 -0.833446 0.000005 -0.000026 -0.000145
N -3.215672 3.600936 4.407903 -0.000012 -0.000082 -0.000067
N -3.213559 3.595325 -5.917261 -0.000005 -0.000061 -0.000041
N -3.258506 3.673281 -0.737740 -0.000037 0.000024 -0.000052
N -0.064351 -1.856352 4.337946 -0.000080 0.000014 -0.000073
N 0.018414 -1.850638 -5.905205 0.000005 -0.000014 -0.000060
N 0.028264 -1.904344 -0.731157 -0.000477 -0.000353 -0.000213
N 0.013986 1.821073 1.840152 0.000020 0.000058 -0.000038
N 0.024458 1.828705 7.017417 0.000026 0.000056 -0.000076
N -0.016375 1.752415 -3.329733 -0.000007 -0.000009 -0.000101
N 3.211851 -3.698270 1.840959 0.000100 0.000000 0.000000
N 3.214385 -3.745326 6.999704 0.000034 -0.000031 -0.000064
N 3.169767 -3.674745 -3.324693 -0.000014 0.000011 -0.000052
N 1.575883 -0.962228 1.795080 0.000039 0.000019 0.000036
N 1.574346 -0.914264 6.978267 -0.000010 0.000016 -0.000082
N 1.618289 -0.932807 -3.373920 0.000009 -0.000041 -0.000067
N 3.124529 1.829073 1.827743 -0.000019 0.000061 0.000101
N 3.128982 1.773968 6.998045 -0.000023 -0.000011 -0.000069
N 3.123049 1.827932 -3.305035 0.000001 0.000038 -0.000087
N 6.363919 -3.772419 1.833445 0.000006 -0.000016 0.000022
N 6.317026 -3.702262 7.006609 -0.000035 0.000024 -0.000084
N 6.405047 -3.696994 -3.319258 0.000044 0.000015 -0.000081
N 4.723535 -0.989912 1.759742 0.000028 0.000011 0.000102
N 4.803713 -0.984794 7.001140 0.000035 -0.000013 -0.000090
N 4.770199 -1.016387 -3.383140 0.000021 -0.000044 -0.000085
N -3.208964 1.797245 1.811563 0.000072 0.000003 0.000063
N -3.221633 1.799689 6.926880 -0.000005 0.000006 -0.000079
N -3.173336 1.782525 -3.380970 0.000049 -0.000008 -0.000086
N -0.069956 -3.702906 1.792219 -0.000035 0.000026 0.000050
N -0.024758 -3.722102 6.979334 -0.000011 -0.000023 -0.000046
N -0.063764 -3.745988 -3.330878 -0.000057 -0.000017 -0.000042
N -1.582056 -0.980866 1.810921 0.000060 0.000004 -0.000019
N -1.658213 -0.992466 6.945667 -0.000071 -0.000026 -0.000112
N -1.662336 -0.944099 -3.308970 -0.000041 -0.000024 -0.000066
