108
Energy=-1.306398e+06 Lattice="9.496999e+00 0.000000e+00 0.000000e+00 -4.751570e+00 8.223713e+00 0.000000e+00 -3.426352e-03 2.261631e-03 1.532398e+01" Stress="-7.777697e-04 -1.328902e-04 -1.232201e-04 -1.363377e-04 -8.564833e-04 1.558832e-04 -1.301647e-04 1.562158e-04 -1.855013e-04" Properties=species:S:1:pos:R:3:forces:R:3 Config_type=AlGaN_super3_19_0_20.xyz
Al 1.569054e+00 8.790706e-01 2.430005e+00 -1.359121e-04 1.763444e-04 -5.717813e-05
Al 1.567452e+00 8.730448e-01 7.525680e+00 9.273382e-06 2.884099e-05 -9.453756e-05
Al 1.551634e+00 8.730689e-01 -2.738291e+00 1.226348e-04 1.726882e-05 1.626131e-05
Al -2.989544e-02 3.623477e+00 2.413791e+00 9.947370e-05 7.438790e-05 -1.802156e-04
Al -1.866671e-02 3.625345e+00 7.496040e+00 -8.871013e-07 3.665789e-05 -6.483624e-05
Ga -2.123064e-02 3.602474e+00 -2.687644e+00 -1.081874e-04 4.155699e-05 5.039419e-05
Al 3.154043e+00 -1.876101e+00 2.427466e+00 -1.310529e-04 1.179087e-05 1.028851e-05
Al 3.155173e+00 -1.855080e+00 7.504948e+00 2.820048e-05 -2.422678e-04 -1.886595e-04
Ga 3.140402e+00 -1.863920e+00 -2.712085e+00 1.262392e-04 -1.514632e-05 2.746413e-05
Al -4.767361e+00 8.804384e-01 2.424966e+00 -1.960712e-05 -9.363202e-05 -1.420433e-04
Al -4.786350e+00 8.595256e-01 7.493321e+00 9.190740e-05 -2.024811e-04 1.339236e-04
Ga -4.773186e+00 8.778364e-01 -2.701717e+00 1.452708e-04 -1.331787e-04 6.094393e-05
Al -6.356468e+00 3.610495e+00 2.435359e+00 1.346215e-04 3.043919e-05 -7.914715e-05
Ga -6.358674e+00 3.615530e+00 7.497531e+00 -2.465689e-04 1.980479e-04 1.485176e-04
Al -6.342106e+00 3.618795e+00 -2.717656e+00 -1.420595e-04 -3.350013e-05 -3.258185e-05
Al -3.193210e+00 -1.863956e+00 2.427207e+00 2.085936e-04 -2.131663e-04 -1.036775e-05
Al -3.208749e+00 -1.866301e+00 7.491773e+00 4.751618e-05 -1.921954e-04 -1.386915e-04
Al -3.173506e+00 -1.860327e+00 -2.699263e+00 -6.422018e-05 6.271233e-06 1.695006e-04
Al -1.621773e+00 8.774487e-01 2.401221e+00 7.739293e-05 1.301831e-04 -1.769439e-04
Ga -1.607893e+00 8.779366e-01 7.512440e+00 3.663021e-04 -3.119617e-04 8.437134e-05
Al -1.599741e+00 8.691010e-01 -2.693702e+00 1.315290e-04 -9.360555e-05 4.046161e-05
Al -3.187704e+00 3.609666e+00 2.408120e+00 -1.847602e-05 -8.817516e-06 -2.383954e-04
Ga -3.192247e+00 3.627003e+00 7.485192e+00 -2.975640e-05 -4.163655e-06 2.808176e-04
Al -3.202664e+00 3.619738e+00 -2.676352e+00 6.110082e-05 -2.974635e-05 1.053145e-04
Ga -3.223090e-02 -1.872405e+00 2.395414e+00 2.937468e-04 8.947056e-08 -5.392485e-04
Al -1.530902e-02 -1.871681e+00 7.522759e+00 1.901253e-05 2.227264e-05 5.238922e-05
Al -2.672342e-02 -1.872992e+00 -2.698626e+00 -2.481340e-05 1.152967e-04 -6.160224e-05
Ga -2.110501e-02 1.804968e+00 4.946107e+00 -1.252700e-04 -6.783450e-05 6.995494e-05
Al -5.192332e-03 1.781877e+00 -5.258975e+00 -1.992602e-04 1.918748e-04 7.269740e-05
Ga -3.559782e-02 1.775124e+00 -1.235567e-01 -3.225215e-04 8.321790e-05 2.017045e-04
Al 3.148287e+00 -3.691079e+00 4.949072e+00 1.436450e-05 -9.396773e-05 6.253070e-05
Ga 3.143721e+00 -3.689596e+00 -5.270130e+00 -4.031424e-04 8.574515e-05 1.577907e-04
Al 3.124090e+00 -3.703720e+00 -1.205052e-01 2.229369e-05 9.995351e-05 6.198337e-04
Ga 1.577750e+00 -9.595661e-01 4.978709e+00 -4.471620e-04 2.716242e-04 -1.018855e-05
Al 1.563040e+00 -9.476759e-01 -5.276793e+00 -8.045371e-05 5.700484e-05 -2.011958e-04
Ga 1.556087e+00 -9.605477e-01 -1.422427e-01 -3.412154e-04 4.037775e-05 4.923629e-04
Al 3.154841e+00 1.790518e+00 4.952986e+00 -1.917975e-05 -1.072591e-04 2.115682e-04
Al 3.136804e+00 1.777064e+00 -5.268769e+00 6.185380e-05 4.249558e-05 -1.103251e-04
Ga 3.145418e+00 1.801365e+00 -1.264516e-01 1.568007e-04 -1.647788e-04 1.901584e-04
Al 6.304741e+00 -3.691585e+00 4.947375e+00 3.127629e-05 1.626310e-04 -2.739419e-05
Ga 6.313876e+00 -3.694983e+00 -5.259853e+00 6.835775e-06 -7.237740e-05 2.745866e-04
Ga 6.328487e+00 -3.684567e+00 -1.282431e-01 4.234392e-05 -4.103945e-05 -3.819926e-04
Al 4.726391e+00 -9.499871e-01 4.950529e+00 -2.561960e-04 -6.585545e-05 -7.160309e-05
Al 4.720380e+00 -9.472433e-01 -5.283924e+00 -1.371401e-04 1.403136e-04 3.839060e-05
Ga 4.743146e+00 -9.561758e-01 -1.103587e-01 -5.272794e-04 2.456170e-04 7.671488e-04
Al -3.209218e+00 1.794877e+00 4.935483e+00 -2.046202e-05 -3.069199e-05 1.701155e-04
Ga -3.205359e+00 1.792244e+00 -5.245704e+00 1.590306e-04 -1.730010e-05 4.520717e-04
Al -3.180904e+00 1.801903e+00 -1.356445e-01 1.162983e-04 -4.504837e-06 4.349542e-04
Al -2.226667e-02 -3.708887e+00 4.944674e+00 5.844252e-05 2.008243e-04 2.938299e-05
Al -1.759977e-02 -3.689218e+00 -5.236938e+00 1.092034e-04 -1.215591e-04 1.126726e-04
Al -1.503085e-02 -3.702645e+00 -1.503767e-01 -2.180835e-05 3.675915e-05 2.091366e-04
Ga -1.621377e+00 -9.600594e-01 4.970484e+00 -9.580773e-05 -8.659532e-05 1.945385e-04
Ga -1.596433e+00 -9.624484e-01 -5.251350e+00 -3.060211e-04 1.266195e-04 1.780854e-04
Al -1.610777e+00 -9.494701e-01 -1.574684e-01 2.012117e-06 -1.328868e-04 3.725343e-06
N 1.601690e+00 8.932864e-01 4.327994e+00 3.346131e-04 1.897303e-05 -7.979102e-05
N 1.561404e+00 8.760017e-01 -5.873414e+00 1.762894e-04 -1.599222e-04 1.077580e-04
N 1.560963e+00 8.769229e-01 -8.232950e-01 1.577870e-04 -1.281972e-04 -9.632129e-05
N -2.742473e-02 3.667413e+00 4.323373e+00 -1.384148e-04 1.326963e-04 6.829353e-05
N -2.008978e-02 3.568669e+00 -5.911555e+00 -1.294382e-05 -1.434501e-04 -2.488896e-04
N -6.227924e-02 3.636139e+00 -7.157447e-01 -2.991891e-04 1.554875e-04 7.293341e-05
N 3.183741e+00 -1.891358e+00 4.339679e+00 9.918483e-05 3.919632e-05 -5.416495e-05
N 3.147410e+00 -1.820619e+00 -5.897486e+00 -1.091262e-04 2.572028e-04 6.655847e-05
N 3.151736e+00 -1.912868e+00 -7.379676e-01 1.660649e-05 -3.183275e-04 -1.068343e-04
N -4.774170e+00 8.750328e-01 4.344358e+00 2.096166e-04 9.409043e-05 4.166650e-07
N -4.812964e+00 8.534527e-01 -5.901861e+00 -1.633368e-04 -6.666862e-05 -2.503100e-04
N -4.734668e+00 8.966606e-01 -7.306007e-01 4.499586e-04 -1.761161e-04 2.935628e-04
N -6.356441e+00 3.615302e+00 4.359331e+00 -1.974482e-04 -8.135450e-05 -2.450832e-04
N -6.307809e+00 3.593000e+00 -5.844186e+00 1.604409e-04 -1.495716e-04 2.131956e-04
N -6.312332e+00 3.635731e+00 -8.035049e-01 1.019942e-04 7.736453e-05 1.328613e-04
N -3.227623e+00 -1.887158e+00 4.336707e+00 -1.028340e-04 -1.381675e-04 2.775939e-05
N -3.227613e+00 -1.844670e+00 -5.920289e+00 -1.347531e-04 1.328185e-04 -2.271818e-04
N -3.152724e+00 -1.843727e+00 -7.912377e-01 -8.329142e-05 3.033596e-04 -2.807469e-05
N -1.652222e+00 8.949614e-01 4.313339e+00 1.549361e-04 1.456674e-05 1.674100e-04
N -1.571493e+00 9.013467e-01 -5.847003e+00 5.392614e-04 -2.812977e-04 -1.096800e-04
N -1.647693e+00 8.554544e-01 -7.697705e-01 2.622793e-04 -5.319957e-05 -2.044490e-05
N -3.188208e+00 3.619222e+00 4.338910e+00 2.365388e-05 -1.517018e-04 -1.033588e-04
N -3.234983e+00 3.639965e+00 -5.873692e+00 -2.434391e-05 1.238121e-05 -6.337270e-06
N -3.190312e+00 3.618918e+00 -7.477069e-01 1.466430e-04 -2.596524e-04 2.709206e-05
N -2.394925e-02 -1.908960e+00 4.357598e+00 2.599564e-04 -4.402459e-04 -1.074768e-04
N 1.927386e-02 -1.898730e+00 -5.881987e+00 1.713206e-04 -1.635024e-04 -6.758514e-05
N -6.149443e-02 -1.893363e+00 -7.681837e-01 -1.327419e-05 1.337505e-06 -1.909573e-04
N -2.099277e-02 1.782366e+00 1.861369e+00 -1.434785e-04 8.697249e-05 -6.549179e-05
N 2.102508e-02 1.811567e+00 6.920546e+00 -6.860379e-05 -6.670676e-05 1.984053e-04
N -2.646105e-02 1.743124e+00 -3.338716e+00 4.947699e-05 -7.551202e-05 -3.662565e-05
N 3.137802e+00 -3.694765e+00 1.804540e+00 -8.270380e-05 -4.506701e-05 -1.814863e-04
N 3.187070e+00 -3.666225e+00 6.873378e+00 -8.720856e-06 1.967815e-04 -3.435986e-04
N 3.103612e+00 -3.723172e+00 -3.303676e+00 -2.288680e-04 4.699698e-05 -3.515105e-05
N 1.604060e+00 -9.301763e-01 1.834601e+00 6.126500e-05 5.464789e-04 -2.880362e-04
N 1.560602e+00 -9.509596e-01 6.961824e+00 -7.586489e-05 6.992439e-05 1.866731e-04
N 1.518175e+00 -9.358222e-01 -3.347872e+00 -4.054463e-04 3.437352e-05 -8.965988e-06
N 3.141323e+00 1.791478e+00 1.856196e+00 -1.931955e-05 1.805841e-04 -1.503354e-04
N 3.138476e+00 1.740271e+00 6.874272e+00 -1.208627e-04 -2.670448e-04 -1.829741e-04
N 3.103118e+00 1.809232e+00 -3.348090e+00 -1.369472e-04 4.184481e-05 -2.581595e-05
N 6.317200e+00 -3.692605e+00 1.855030e+00 5.843649e-05 -4.792841e-05 7.407712e-04
N 6.270655e+00 -3.670781e+00 6.868638e+00 -1.205730e-04 2.719717e-04 2.928315e-05
N 6.348307e+00 -3.668746e+00 -3.281572e+00 3.931456e-04 -9.589067e-05 1.055048e-04
N 4.726661e+00 -9.511827e-01 1.870408e+00 4.046741e-04 4.280681e-05 -1.214612e-03
N 4.723723e+00 -9.493765e-01 6.877659e+00 -1.004554e-04 -6.926657e-05 -1.956354e-05
N 4.771918e+00 -9.760318e-01 -3.366609e+00 -9.214096e-05 -7.696269e-06 -1.824918e-04
N -3.191046e+00 1.793219e+00 1.795089e+00 -1.226570e-04 -1.806235e-04 -1.419357e-04
N -3.235793e+00 1.764468e+00 6.850850e+00 -7.587985e-05 7.341831e-07 -3.378473e-04
N -3.148966e+00 1.815577e+00 -3.270928e+00 1.075698e-04 2.193465e-04 1.115649e-04
N -2.677409e-02 -3.751351e+00 1.773608e+00 2.224012e-04 4.997691e-05 -2.291624e-04
N -2.570475e-02 -3.644850e+00 6.846059e+00 1.115126e-04 2.338808e-04 -4.448334e-04
N -1.472402e-02 -3.692507e+00 -3.310348e+00 2.466069e-04 3.410172e-05 -9.593111e-05
N -1.653326e+00 -9.294072e-01 1.767401e+00 -2.680983e-04 5.844986e-05 -1.026118e-04
N -1.604824e+00 -1.000932e+00 6.942832e+00 -1.384409e-04 7.248041e-05 2.659851e-06
N -1.600600e+00 -9.547027e-01 -3.265986e+00 4.927580e-05 4.593768e-05 1.603468e-04
