108
Energy=-1489500.345799 Lattice="9.521935 0.000000 0.000000 -4.763793 8.244520 0.000000 -0.015532 0.002859 15.372443" Stress="0.000000 -0.000001 -0.000003 -0.000001 -0.000002 0.000001 -0.000003 0.000001 -0.000004" Properties=species:S:1:pos:R:3:forces:R:3
Al 1.567737 0.880649 2.414055 -0.000330 0.000354 0.000797
Al 1.554185 0.888818 7.511751 -0.000048 -0.000013 0.000140
Al 1.561303 0.894964 -2.693475 0.000435 0.000138 0.000255
Al -0.014250 3.618670 2.417938 0.000424 -0.000129 -0.000057
Al -0.020043 3.620976 7.527242 0.000029 -0.000085 0.000064
Al 0.011098 3.611354 -2.709803 0.000180 0.000018 0.000036
Al 3.142180 -1.864381 2.421196 0.000048 0.000430 0.000498
Al 3.144952 -1.869479 7.527158 -0.000020 0.000026 -0.000043
Ga 3.171825 -1.857780 -2.701208 -0.000033 0.000086 0.000069
Al -4.790997 0.889026 2.431141 -0.000553 0.000205 0.000172
Ga -4.800572 0.884731 7.530962 0.000101 -0.000021 0.000058
Al -4.778102 0.873410 -2.720738 -0.000175 0.000186 -0.000045
Al -6.400907 3.606608 2.422910 -0.000192 -0.000155 0.000099
Al -6.409423 3.612796 7.527061 -0.000013 0.000067 0.000035
Al -6.393952 3.620743 -2.704828 -0.000066 -0.000057 0.000001
Ga -3.194328 -1.884122 2.420174 -0.000033 -0.000062 0.000130
Ga -3.208914 -1.887637 7.530231 0.000026 0.000034 0.000109
Al -3.202381 -1.888816 -2.707664 0.000035 -0.000088 0.000064
Al -1.613300 0.879522 2.396886 -0.000098 0.000200 -0.000297
Al -1.609754 0.890736 7.538147 0.000072 -0.000204 0.000108
Ga -1.601391 0.892614 -2.693073 0.000176 -0.000063 0.000087
Ga -3.186603 3.606293 2.434777 -0.000144 -0.000001 -0.000117
Ga -3.188340 3.617863 7.516812 0.000061 -0.000011 0.000062
Ga -3.198540 3.605266 -2.697927 -0.000037 -0.000123 -0.000003
Ga -0.019912 -1.845512 2.424904 -0.000154 0.000029 0.000140
Ga -0.024895 -1.851734 7.510842 0.000051 0.000019 0.000025
Ga -0.022475 -1.865419 -2.680622 0.000050 -0.000155 0.000044
Ga -0.034190 1.791047 4.962470 0.000074 -0.000039 -0.000023
Al -0.015874 1.802780 -5.294830 0.000197 0.000035 0.000012
Al -0.020756 1.790391 -0.125241 -0.000033 -0.000491 0.000071
Al 3.161520 -3.696638 4.972713 0.000220 0.000743 0.000079
Ga 3.184879 -3.712110 -5.279215 -0.000097 0.000033 0.000017
Ga 3.174217 -3.716599 -0.135335 -0.000058 0.000086 -0.000173
Al 1.572106 -0.947261 4.972397 0.000103 0.000347 0.000510
Ga 1.581081 -0.936146 -5.282425 -0.000115 0.000073 -0.000112
Al 1.557428 -0.936014 -0.127111 -0.000196 0.000172 -0.000065
Al 3.137176 1.797546 4.961195 0.000453 -0.000112 -0.000064
Ga 3.145392 1.794132 -5.260207 0.000015 -0.000002 0.000086
Ga 3.144410 1.790616 -0.148599 0.000006 -0.000043 -0.000066
Al 6.318272 -3.716544 4.974664 0.000155 -0.000192 -0.000023
Al 6.320295 -3.711499 -5.266529 0.000315 -0.000252 -0.000048
Al 6.325745 -3.712185 -0.155180 -0.000085 -0.000015 0.000275
Ga 4.724477 -0.952556 4.957305 -0.000125 0.000016 0.000083
Al 4.752501 -0.958017 -5.267535 -0.000050 0.000022 0.000048
Ga 4.753804 -0.948555 -0.128535 -0.000046 0.000054 0.000075
Al -3.195631 1.780767 4.964541 0.000163 -0.000318 0.000314
Al -3.184006 1.778734 -5.274444 0.000009 0.000030 0.000108
Al -3.190938 1.773379 -0.127727 0.000056 -0.000042 0.000038
Ga -0.043053 -3.710105 4.967626 -0.000116 -0.000068 0.000098
Ga -0.031347 -3.715978 -5.275965 -0.000020 -0.000035 0.000058
Ga -0.035793 -3.702473 -0.124333 -0.000092 -0.000009 -0.000115
Al -1.618658 -0.936507 4.976701 -0.000027 -0.000003 0.000182
Ga -1.623654 -0.940221 -5.265013 0.000004 -0.000008 0.000157
Al -1.613192 -0.947076 -0.149048 -0.000034 0.000067 0.000023
N 1.596944 0.854058 4.336279 -0.000126 -0.000342 -0.000367
N 1.531626 0.905197 -5.946146 -0.000002 0.000053 0.000084
N 1.515503 0.857303 -0.770652 0.000056 0.000035 -0.000159
N -0.026075 3.670520 4.335614 -0.000236 0.000100 -0.000101
N 0.029581 3.602057 -5.922797 -0.000082 0.000001 -0.000140
N 0.024961 3.587872 -0.784582 0.000031 0.000442 -0.000022
N 3.098772 -1.894600 4.335671 -0.000099 -0.000690 -0.000298
N 3.200134 -1.848921 -5.925377 0.000076 -0.000003 0.000023
N 3.114408 -1.844970 -0.732378 -0.000026 -0.000021 0.000012
N -4.789608 0.933510 4.347869 -0.000416 0.000154 -0.000294
N -4.743145 0.855308 -5.857475 0.000093 -0.000043 -0.000062
N -4.739088 0.898747 -0.803072 0.000049 0.000018 -0.000056
N -6.431067 3.599077 4.333647 0.000054 0.000177 -0.000072
N -6.418913 3.642725 -5.929074 -0.000106 0.000123 0.000118
N -6.414486 3.646469 -0.797341 -0.000040 0.000045 0.000016
N -3.154842 -1.901227 4.398391 0.000047 -0.000019 -0.000149
N -3.231863 -1.903383 -5.859245 -0.000007 0.000015 -0.000094
N -3.158881 -1.901658 -0.776326 -0.000044 -0.000047 -0.000093
N -1.656023 0.853642 4.314222 -0.000027 0.000149 0.000070
N -1.602746 0.926846 -5.910219 -0.000070 0.000018 -0.000166
N -1.604533 0.885798 -0.705076 -0.000030 0.000058 -0.000067
N -3.157117 3.600047 4.411072 0.000140 -0.000046 -0.000075
N -3.187840 3.576673 -5.877272 0.000028 -0.000115 -0.000087
N -3.197400 3.572156 -0.723069 0.000056 0.000002 0.000047
N -0.027334 -1.813901 4.405887 0.000099 -0.000067 -0.000081
N -0.019498 -1.864901 -5.894046 -0.000016 -0.000089 -0.000048
N -0.018179 -1.823355 -0.703928 -0.000020 -0.000032 -0.000032
N -0.021323 1.794137 1.809431 -0.000161 0.000094 -0.000005
N -0.035254 1.794460 6.950656 0.000037 0.000144 0.000031
N 0.024139 1.815035 -3.361191 -0.000164 -0.000142 -0.000242
N 3.199004 -3.682061 1.839462 -0.000214 0.000135 0.000075
N 3.197686 -3.675295 6.900627 -0.000083 -0.000084 -0.000144
N 3.206379 -3.731219 -3.298746 -0.000180 0.000151 0.000002
N 1.604925 -0.923025 1.786362 0.000342 -0.000630 -0.000108
N 1.608272 -0.924719 6.894495 0.000016 -0.000070 -0.000557
N 1.570400 -0.901591 -3.311060 -0.000082 0.000037 -0.000024
N 3.148058 1.790265 1.839547 0.000691 0.000080 0.000024
N 3.101888 1.818296 6.886365 -0.000043 -0.000108 -0.000127
N 3.149694 1.791105 -3.267157 -0.000101 -0.000136 0.000089
N 6.321850 -3.754755 1.765926 0.000161 0.000009 -0.000303
N 6.315825 -3.754863 6.886731 -0.000011 0.000046 0.000037
N 6.328458 -3.706987 -3.335986 0.000023 0.000063 -0.000016
N 4.700150 -0.927337 1.854670 -0.000158 -0.000117 -0.000192
N 4.690546 -0.974103 6.923032 -0.000021 -0.000050 -0.000049
N 4.786797 -0.934927 -3.342276 -0.000014 -0.000074 -0.000007
N -3.206285 1.741236 1.785502 0.000229 -0.000127 0.000159
N -3.161910 1.760299 6.874477 0.000023 0.000154 -0.000212
N -3.227455 1.764421 -3.367312 -0.000008 -0.000026 -0.000043
N -0.068473 -3.728689 1.851061 0.000056 -0.000029 -0.000010
N -0.077478 -3.731606 6.938450 -0.000019 -0.000023 -0.000048
N -0.063198 -3.727549 -3.298221 0.000016 0.000002 0.000002
N -1.616713 -0.911485 1.759561 -0.000052 0.000004 -0.000180
N -1.625172 -0.896561 6.889831 0.000022 0.000095 -0.000018
N -1.648705 -0.972459 -3.292828 -0.000157 0.000054 -0.000017
