108
Energy=-2.176133e+06 Lattice="9.611836e+00 0.000000e+00 0.000000e+00 -4.810856e+00 8.317046e+00 0.000000e+00 7.480411e-03 6.944268e-04 1.557115e+01" Stress="1.549668e-04 -1.341979e-04 2.152320e-04 -1.254049e-04 -1.999900e-04 1.674948e-05 2.301759e-04 1.727226e-05 -8.925723e-05" Properties=species:S:1:pos:R:3:forces:R:3 Config_type=AlGaN_super3_38_0_9.xyz
Al 1.568060e+00 8.865590e-01 2.433711e+00 3.008522e-04 -9.798192e-05 2.080350e-04
Al 1.577153e+00 8.903658e-01 7.648399e+00 3.361259e-04 4.530575e-05 4.210918e-04
Ga 1.565891e+00 8.731582e-01 -2.744786e+00 3.499788e-04 -2.001323e-04 -1.720317e-05
Al -1.831368e-02 3.635655e+00 2.460456e+00 2.007520e-05 2.697256e-05 4.764918e-05
Ga -8.237225e-04 3.639567e+00 7.641130e+00 -6.418508e-06 -2.366268e-05 2.051266e-04
Al -2.228913e-02 3.651434e+00 -2.758649e+00 1.827587e-04 -6.094886e-05 1.888092e-04
Ga 3.182997e+00 -1.883831e+00 2.440882e+00 5.077954e-05 -2.345535e-04 8.645548e-06
Ga 3.183019e+00 -1.875803e+00 7.647828e+00 2.367595e-04 -2.068369e-04 5.557860e-05
Ga 3.164823e+00 -1.881175e+00 -2.740381e+00 2.172791e-04 -1.733598e-04 1.069734e-05
Ga -4.841172e+00 8.767427e-01 2.466287e+00 2.603329e-04 -1.006078e-04 -1.967026e-04
Ga -4.836719e+00 8.891201e-01 7.645509e+00 2.716364e-04 -2.743419e-04 -1.443941e-04
Al -4.820311e+00 8.911035e-01 -2.761072e+00 1.980157e-04 4.354292e-05 2.448793e-04
Ga -6.435535e+00 3.650283e+00 2.429279e+00 2.532460e-04 1.959864e-05 1.906990e-04
Al -6.440477e+00 3.651372e+00 7.659112e+00 6.874916e-05 -1.606884e-04 4.062680e-05
Ga -6.441736e+00 3.660438e+00 -2.741553e+00 -3.185237e-05 -7.736984e-05 -2.193404e-05
Ga -3.233044e+00 -1.892683e+00 2.451067e+00 2.025430e-04 -1.306401e-04 -2.997597e-04
Ga -3.215818e+00 -1.896516e+00 7.666558e+00 -2.799736e-05 -8.052558e-05 9.619372e-05
Ga -3.215364e+00 -1.888694e+00 -2.769078e+00 1.115491e-04 -1.448675e-04 -2.033455e-04
Ga -1.605879e+00 8.960199e-01 2.451450e+00 4.729087e-04 -3.957166e-04 -4.684399e-05
Ga -1.610951e+00 8.882880e-01 7.660080e+00 5.746724e-04 -2.418459e-04 -2.210624e-07
Al -1.632725e+00 8.835232e-01 -2.769620e+00 2.648282e-04 -2.195297e-04 1.357923e-04
Ga -3.229952e+00 3.661450e+00 2.428214e+00 1.301996e-04 -1.032716e-04 -2.725759e-05
Ga -3.233818e+00 3.651782e+00 7.670202e+00 4.008417e-04 -1.335892e-04 -1.699630e-04
Ga -3.231019e+00 3.645216e+00 -2.744376e+00 2.638762e-04 -1.818491e-04 -2.997876e-04
Ga -1.137823e-02 -1.885278e+00 2.427895e+00 4.532653e-04 -3.648481e-04 4.107561e-04
Ga -1.655430e-02 -1.878712e+00 7.666047e+00 4.912443e-04 -1.987039e-04 -9.680875e-06
Al -1.889754e-02 -1.870637e+00 -2.751681e+00 -1.972045e-06 -1.671143e-04 3.196087e-04
Al -8.580282e-03 1.803864e+00 5.038384e+00 -2.135808e-04 4.693750e-04 4.066308e-04
Ga -2.872696e-02 1.798654e+00 -5.321896e+00 -3.712700e-04 2.889865e-04 2.170423e-04
Ga -2.325512e-02 1.810083e+00 -1.641899e-01 -2.460132e-04 7.978128e-05 -1.682893e-04
Ga 3.199124e+00 -3.741894e+00 5.037966e+00 -1.882926e-04 3.273426e-04 -2.591925e-04
Ga 3.187938e+00 -3.738479e+00 -5.320227e+00 -3.289270e-04 2.870178e-04 -1.947440e-04
Ga 3.185805e+00 -3.733936e+00 -1.517674e-01 -2.258198e-04 -2.541117e-06 -4.320595e-04
Ga 1.588183e+00 -9.461041e-01 5.041742e+00 -4.594875e-04 4.869191e-04 1.116267e-04
Al 1.563426e+00 -9.584778e-01 -5.335965e+00 -2.256807e-04 2.777951e-04 3.358734e-04
Al 1.568299e+00 -9.690135e-01 -1.502542e-01 -1.976590e-04 2.374018e-04 2.664951e-04
Ga 3.161527e+00 1.800263e+00 5.056958e+00 7.246293e-05 1.228417e-04 2.631271e-05
Ga 3.171473e+00 1.808165e+00 -5.344933e+00 -1.482285e-04 2.685283e-04 5.000579e-05
Ga 3.182205e+00 1.802398e+00 -1.540888e-01 -2.934992e-04 -6.745989e-05 1.981962e-05
Ga 6.382983e+00 -3.740368e+00 5.043933e+00 -1.522412e-04 3.644262e-04 2.998385e-05
Al 6.390979e+00 -3.738019e+00 -5.335140e+00 4.438233e-05 1.637110e-04 7.756125e-05
Ga 6.382195e+00 -3.738808e+00 -1.443375e-01 -5.215876e-05 -1.574312e-04 -9.582943e-05
Al 4.787517e+00 -9.671047e-01 5.058280e+00 -1.413452e-04 1.208428e-04 2.212200e-05
Ga 4.789076e+00 -9.615223e-01 -5.320129e+00 -3.346896e-04 3.117019e-04 -1.482791e-04
Ga 4.776563e+00 -9.518858e-01 -1.729560e-01 -2.279093e-04 -8.035254e-05 2.130516e-04
Ga -3.219925e+00 1.803017e+00 5.046102e+00 -2.033944e-04 1.364585e-04 -3.908264e-05
Al -3.227641e+00 1.794007e+00 -5.313476e+00 -6.068542e-05 2.961592e-04 1.105404e-04
Ga -3.234384e+00 1.807567e+00 -1.689818e-01 -1.750245e-04 2.496692e-07 1.627542e-04
Ga -2.123143e-02 -3.737426e+00 5.068188e+00 -4.502949e-05 2.177577e-04 3.132216e-04
Ga -3.628797e-02 -3.723460e+00 -5.327747e+00 -5.768379e-05 1.595104e-04 1.720253e-05
Al -1.651011e-02 -3.715436e+00 -1.782533e-01 -5.449921e-05 2.043758e-04 1.068878e-04
Ga -1.623923e+00 -9.567279e-01 5.049286e+00 -5.276206e-04 3.977607e-04 2.735378e-05
Al -1.618218e+00 -9.600004e-01 -5.312379e+00 -2.632156e-04 1.085336e-04 2.144920e-06
Ga -1.602968e+00 -9.635293e-01 -1.795258e-01 -5.047871e-04 1.306438e-04 1.182292e-04
N 1.537408e+00 9.082899e-01 4.362247e+00 1.818666e-04 -3.769838e-04 -3.163381e-04
N 1.567280e+00 8.394800e-01 -5.996116e+00 3.254873e-04 -3.782409e-04 -3.515144e-04
N 1.575466e+00 8.340140e-01 -7.676949e-01 3.637297e-04 -3.764717e-04 -1.782262e-04
N -2.018104e-02 3.603633e+00 4.385957e+00 8.259705e-05 -4.996008e-04 -1.605093e-04
N 1.475213e-02 3.674637e+00 -5.951207e+00 2.675616e-04 -1.364705e-04 -8.467220e-05
N -2.165483e-02 3.660374e+00 -8.452659e-01 8.727351e-05 -2.272334e-04 3.986210e-05
N 3.224892e+00 -1.861358e+00 4.429166e+00 2.161483e-04 -2.252000e-04 6.828385e-05
N 3.138031e+00 -1.861169e+00 -5.939717e+00 6.440371e-05 -1.752508e-04 -4.148730e-05
N 3.132421e+00 -1.860901e+00 -7.604946e-01 5.850070e-05 -2.000752e-04 8.889392e-05
N -4.834627e+00 8.373021e-01 4.449397e+00 1.586676e-04 -1.488196e-04 1.247821e-04
N -4.791543e+00 9.080854e-01 -5.949391e+00 2.887847e-04 -2.417465e-04 1.419646e-05
N -4.832673e+00 8.932667e-01 -8.497527e-01 2.648113e-04 -2.077929e-04 -6.189903e-05
N -6.426027e+00 3.656034e+00 4.406880e+00 -2.144080e-05 -2.382640e-04 -2.669988e-05
N -6.478322e+00 3.681135e+00 -5.991281e+00 -4.066196e-05 -8.215543e-05 -1.716930e-04
N -6.398190e+00 3.683876e+00 -7.598880e-01 2.834377e-04 -1.419096e-04 1.265685e-04
N -3.265216e+00 -1.862558e+00 4.433802e+00 4.874776e-05 -2.418581e-04 9.442069e-06
N -3.183515e+00 -1.909466e+00 -5.910059e+00 3.594765e-04 -2.236142e-04 1.342224e-04
N -3.222704e+00 -1.889113e+00 -7.953381e-01 2.150184e-04 -1.752152e-04 5.739411e-05
N -1.578421e+00 9.124614e-01 4.431535e+00 4.445510e-04 -4.649444e-04 -1.820161e-05
N -1.670165e+00 8.617059e-01 -5.919585e+00 2.591093e-04 -3.299803e-04 -3.580783e-05
N -1.629010e+00 8.906778e-01 -8.497022e-01 5.070060e-04 -4.233347e-04 -3.302335e-05
N -3.233121e+00 3.662085e+00 4.407348e+00 1.518033e-04 -3.327238e-04 -6.985126e-05
N -3.234395e+00 3.607514e+00 -5.920036e+00 1.374256e-04 -4.750695e-04 1.962147e-04
N -3.268224e+00 3.681953e+00 -7.660346e-01 6.377371e-05 -2.485584e-04 1.679098e-04
N -1.659515e-02 -1.889224e+00 4.409064e+00 3.493697e-04 -4.558932e-04 -2.053391e-04
N -2.802972e-02 -1.834080e+00 -5.925185e+00 9.268141e-05 -2.790680e-04 -1.243687e-04
N 2.460927e-02 -1.900810e+00 -8.152832e-01 4.732245e-04 -5.840954e-04 -2.692139e-04
N 1.845379e-02 1.831628e+00 1.826149e+00 -2.096730e-04 5.806563e-04 1.744705e-04
N 2.443725e-02 1.778595e+00 6.974445e+00 -2.332859e-04 7.204483e-05 -4.631201e-04
N -6.370617e-02 1.829077e+00 -3.340312e+00 -4.260352e-04 3.826901e-04 -3.360218e-05
N 3.235732e+00 -3.766711e+00 1.834778e+00 6.484768e-05 4.089547e-04 3.009052e-04
N 3.190424e+00 -3.741991e+00 7.020517e+00 -2.697202e-04 2.736200e-04 6.346781e-05
N 3.222887e+00 -3.758961e+00 -3.346030e+00 -7.580418e-05 2.086862e-04 7.345842e-05
N 1.582397e+00 -9.186280e-01 1.777626e+00 -6.039397e-04 4.603061e-04 -3.063227e-04
N 1.584218e+00 -9.122754e-01 7.024448e+00 -5.108824e-04 2.322102e-04 -8.251860e-05
N 1.537135e+00 -9.859499e-01 -3.419189e+00 -4.154420e-04 3.885399e-04 -2.346330e-04
N 3.142512e+00 1.775724e+00 1.829482e+00 -3.013518e-04 3.883337e-04 -7.404545e-05
N 3.135146e+00 1.831903e+00 7.055885e+00 -3.053721e-04 1.973675e-04 -1.819268e-05
N 3.212480e+00 1.785822e+00 -3.361973e+00 3.127814e-05 1.598126e-05 -1.135521e-04
N 6.340664e+00 -3.764394e+00 1.836613e+00 -1.356866e-04 2.780698e-04 1.917465e-04
N 6.434115e+00 -3.758588e+00 7.024752e+00 1.581001e-04 6.842425e-06 -1.431891e-04
N 6.347518e+00 -3.765951e+00 -3.416620e+00 -2.468282e-04 -3.383624e-05 -1.270215e-04
N 4.786457e+00 -9.626091e-01 1.798568e+00 -2.071792e-04 4.608608e-04 -1.637566e-04
N 4.794738e+00 -9.686325e-01 6.978236e+00 -2.509304e-04 1.666741e-04 -8.811085e-05
N 4.779189e+00 -9.188422e-01 -3.348576e+00 -2.213172e-04 4.558155e-05 7.458144e-05
N -3.230369e+00 1.797202e+00 1.811597e+00 -1.324298e-04 4.129160e-04 -6.367821e-05
N -3.220157e+00 1.807254e+00 7.014959e+00 -2.905972e-04 2.020183e-04 1.258346e-04
N -3.229667e+00 1.760674e+00 -3.390060e+00 -1.741722e-04 -8.635613e-05 -1.042644e-04
N -2.055843e-02 -3.732279e+00 1.741810e+00 -2.775691e-04 2.133922e-04 -3.633568e-04
N -5.903389e-02 -3.758674e+00 7.055109e+00 -3.095548e-04 8.629362e-05 5.532171e-05
N -2.619544e-02 -3.685649e+00 -3.351351e+00 9.217830e-06 2.732006e-04 1.426365e-04
N -1.622420e+00 -9.624514e-01 1.803165e+00 -3.518909e-04 5.309163e-04 -4.791119e-05
N -1.619476e+00 -9.632324e-01 7.021161e+00 -3.570086e-04 1.165452e-04 -8.131060e-06
N -1.576919e+00 -9.402505e-01 -3.385407e+00 -1.025071e-04 2.952911e-04 -9.042036e-05
