108
Energy=-985970.010951 Lattice="9.461023 0.000000 0.000000 -4.732222 8.192292 0.000000 -0.007738 0.000598 15.226674" Stress="0.000001 -0.000001 -0.000002 -0.000001 -0.000000 -0.000000 -0.000002 -0.000000 0.000001" Properties=species:S:1:pos:R:3:forces:R:3
Al 1.551422 0.881681 2.423017 0.000055 -0.000028 0.000026
Al 1.551512 0.870740 7.452594 0.000049 0.000062 0.000148
Al 1.552753 0.868711 -2.715872 0.000226 -0.000105 0.000010
Al -0.027476 3.600606 2.389086 -0.000037 0.000061 0.000080
Al -0.020086 3.593939 7.439518 0.000112 0.000027 0.000004
Al -0.022468 3.592972 -2.664884 -0.000105 -0.000133 0.000053
Al 3.138011 -1.865837 2.386555 0.000123 -0.000076 0.000015
Al 3.116954 -1.853418 7.466300 0.000123 -0.000021 -0.000108
Al 3.130755 -1.854291 -2.684100 -0.000035 -0.000020 -0.000030
Al -4.751643 0.873418 2.393277 -0.000008 -0.000042 -0.000065
Al -4.762838 0.880613 7.464704 0.000026 0.000047 0.000068
Al -4.758484 0.866015 -2.691159 0.000131 0.000018 -0.000017
Al -6.340259 3.595802 2.387863 0.000076 0.000077 0.000018
Al -6.350791 3.587072 7.463929 -0.000019 -0.000028 0.000070
Ga -6.332987 3.592961 -2.678652 0.000011 -0.000034 0.000096
Al -3.181968 -1.861145 2.384507 0.000009 0.000069 -0.000092
Ga -3.173156 -1.865051 7.471442 0.000039 -0.000047 0.000093
Ga -3.185935 -1.860228 -2.685262 -0.000041 0.000079 0.000232
Al -1.604683 0.879203 2.384653 -0.000012 -0.000026 -0.000004
Al -1.597700 0.874913 7.461589 0.000092 -0.000070 0.000062
Ga -1.589601 0.883227 -2.680164 0.000135 -0.000061 0.000051
Al -3.168365 3.592868 2.382617 0.000063 0.000012 0.000083
Ga -3.169653 3.592252 7.454936 0.000052 -0.000026 0.000056
Al -3.171385 3.599548 -2.665437 -0.000168 0.000009 -0.000013
Ga -0.026436 -1.855638 2.398555 -0.000028 -0.000031 0.000109
Al -0.018552 -1.836243 7.454871 0.000007 -0.000154 0.000083
Al -0.007105 -1.854222 -2.676669 0.000073 0.000026 0.000058
Al -0.030149 1.780613 4.922405 0.000011 0.000049 0.000115
Al -0.013127 1.780384 -5.250199 0.000007 0.000076 0.000033
Al -0.026268 1.788769 -0.128005 -0.000128 0.000143 0.000060
Al 3.139355 -3.683647 4.913014 -0.000170 -0.000044 -0.000231
Ga 3.155472 -3.680682 -5.205478 -0.000009 0.000045 0.000142
Al 3.137757 -3.688208 -0.152308 0.000005 -0.000046 0.000088
Al 1.557067 -0.939940 4.935060 -0.000024 0.000015 0.000057
Al 1.556454 -0.935199 -5.227026 -0.000111 0.000096 0.000139
Ga 1.556136 -0.946674 -0.152455 -0.000207 -0.000016 0.000118
Al 3.121816 1.782435 4.924554 -0.000119 0.000138 0.000123
Al 3.130490 1.768013 -5.239015 0.000007 -0.000030 0.000096
Ga 3.130155 1.776808 -0.133537 -0.000002 -0.000027 0.000074
Al 6.278532 -3.691237 4.908131 -0.000027 -0.000025 0.000096
Al 6.280007 -3.691763 -5.232239 0.000018 0.000005 -0.000079
Al 6.272628 -3.675873 -0.120870 -0.000041 0.000096 0.000035
Ga 4.702436 -0.947862 4.920617 -0.000035 0.000039 0.000164
Al 4.705267 -0.935481 -5.233860 -0.000037 0.000020 -0.000140
Al 4.716474 -0.952499 -0.130368 -0.000044 0.000033 0.000111
Al -3.168508 1.773429 4.910232 -0.000013 0.000162 -0.000011
Al -3.177204 1.760519 -5.219929 -0.000002 -0.000016 0.000103
Al -3.174547 1.782259 -0.134395 0.000079 -0.000058 -0.000094
Ga -0.030199 -3.686204 4.931716 0.000055 -0.000086 0.000044
Ga -0.028791 -3.670797 -5.228075 0.000013 -0.000028 0.000064
Al -0.016094 -3.681339 -0.140322 -0.000115 0.000085 -0.000048
Al -1.602409 -0.932164 4.927369 0.000040 -0.000050 0.000049
Al -1.589784 -0.938289 -5.233591 0.000005 -0.000028 -0.000110
Al -1.608187 -0.948425 -0.134872 0.000080 -0.000062 0.000093
N 1.548468 0.873051 4.339754 0.000043 -0.000036 -0.000180
N 1.557476 0.868890 -5.846266 0.000026 0.000004 -0.000099
N 1.508418 0.900751 -0.805692 0.000092 -0.000017 0.000087
N -0.027759 3.598061 4.310535 0.000003 -0.000039 -0.000131
N 0.017408 3.579283 -5.875133 -0.000023 -0.000101 -0.000036
N -0.018291 3.596018 -0.740694 0.000011 0.000026 -0.000101
N 3.086874 -1.884440 4.297238 0.000039 -0.000037 0.000019
N 3.128505 -1.816999 -5.844534 0.000078 -0.000077 -0.000044
N 3.177909 -1.880200 -0.767097 0.000041 0.000167 -0.000156
N -4.756461 0.919897 4.301444 0.000247 -0.000022 -0.000009
N -4.748678 0.876071 -5.842035 0.000044 0.000040 -0.000072
N -4.711866 0.844920 -0.768997 -0.000003 -0.000015 -0.000058
N -6.374347 3.577120 4.297574 0.000068 -0.000103 -0.000202
N -6.372023 3.573868 -5.846696 -0.000076 0.000109 -0.000128
N -6.338122 3.648481 -0.706854 0.000142 0.000006 -0.000007
N -3.135194 -1.882531 4.303439 0.000006 0.000097 0.000057
N -3.171393 -1.860999 -5.774017 -0.000029 -0.000043 0.000025
N -3.178545 -1.861666 -0.699393 0.000064 -0.000091 -0.000078
N -1.599584 0.872643 4.306182 0.000038 -0.000030 -0.000116
N -1.598747 0.875422 -5.837187 0.000003 -0.000038 -0.000068
N -1.596607 0.874644 -0.696641 -0.000120 0.000026 -0.000025
N -3.137350 3.578283 4.302921 0.000109 -0.000099 0.000091
N -3.166297 3.552707 -5.810099 0.000059 -0.000010 -0.000078
N -3.176506 3.596731 -0.742188 -0.000039 -0.000009 -0.000007
N -0.024444 -1.810617 4.363815 -0.000004 -0.000019 -0.000112
N -0.015176 -1.804317 -5.858448 -0.000044 -0.000034 -0.000086
N -0.064653 -1.879112 -0.759514 -0.000007 -0.000105 -0.000080
N -0.018299 1.780528 1.794968 0.000086 -0.000053 -0.000079
N -0.028468 1.778214 6.848681 -0.000040 -0.000018 -0.000110
N 0.017242 1.810630 -3.330979 -0.000192 0.000235 -0.000102
N 3.132520 -3.681568 1.773788 0.000041 0.000005 -0.000092
N 3.173200 -3.652260 6.829496 -0.000089 0.000181 0.000104
N 3.138458 -3.683528 -3.222718 0.000128 0.000048 -0.000019
N 1.596433 -0.917721 1.816819 -0.000107 0.000145 -0.000095
N 1.557908 -0.945861 6.852422 -0.000044 -0.000016 -0.000092
N 1.556665 -0.952567 -3.296279 -0.000038 -0.000012 -0.000028
N 3.125261 1.773544 1.840098 0.000042 0.000064 0.000046
N 3.128552 1.780227 6.850806 -0.000015 -0.000055 -0.000090
N 3.135136 1.732932 -3.319418 -0.000109 0.000003 -0.000021
N 6.278333 -3.681874 1.794415 0.000001 0.000007 -0.000052
N 6.283769 -3.725755 6.822252 -0.000031 0.000001 0.000062
N 6.240153 -3.709153 -3.326073 0.000015 0.000033 0.000017
N 4.705104 -0.946766 1.793755 -0.000012 -0.000005 -0.000013
N 4.665113 -0.925296 6.892706 -0.000148 -0.000068 0.000010
N 4.665851 -0.924755 -3.318951 -0.000087 -0.000073 0.000127
N -3.180492 1.780670 1.783192 0.000001 0.000016 -0.000013
N -3.178343 1.727271 6.825332 -0.000097 0.000006 -0.000069
N -3.216200 1.801863 -3.303176 -0.000055 -0.000045 -0.000022
N -0.019575 -3.726801 1.777221 -0.000084 -0.000080 -0.000052
N -0.069609 -3.657760 6.904374 0.000038 0.000112 -0.000006
N 0.020957 -3.655723 -3.252919 0.000067 -0.000157 0.000006
N -1.640910 -0.924470 1.772072 -0.000037 0.000038 0.000050
N -1.566382 -0.919562 6.840445 -0.000120 0.000079 -0.000113
N -1.553914 -0.969821 -3.323622 -0.000067 -0.000014 0.000065
