108
Energy=-9.401944e+05 Lattice="9.458349e+00 0.000000e+00 0.000000e+00 -4.729875e+00 8.186009e+00 0.000000e+00 -1.466424e-03 2.510925e-04 1.522099e+01" Stress="2.622202e-04 1.182321e-04 8.874248e-05 1.264769e-04 4.667262e-04 3.557784e-04 9.610956e-05 3.647945e-04 1.334801e-03" Properties=species:S:1:pos:R:3:forces:R:3 Config_type=AlGaN_super3_11_2_19.xyz
Al 1.558927e+00 8.787068e-01 2.392637e+00 -1.230831e-04 -1.054594e-03 -3.112065e-04
Al 1.558310e+00 8.702298e-01 7.474543e+00 3.936670e-04 -6.519784e-04 3.843995e-04
Al 1.559397e+00 8.842627e-01 -2.706869e+00 -3.412072e-04 -2.808732e-03 -1.763859e-03
Al -1.889915e-02 3.603421e+00 2.372407e+00 3.575997e-05 7.041507e-04 1.087996e-03
Al -2.784357e-02 3.599586e+00 7.489828e+00 -5.388006e-04 -7.147818e-04 4.243646e-04
Al -1.504905e-02 3.595171e+00 -2.702352e+00 -1.695077e-03 -7.016365e-04 3.942412e-04
Al 3.137013e+00 -1.860902e+00 2.425842e+00 -1.344609e-03 1.567935e-03 1.900989e-03
Al 3.133735e+00 -1.856525e+00 7.458427e+00 -3.788523e-05 5.432137e-05 1.283180e-04
Al 3.129173e+00 -1.852205e+00 -2.720916e+00 2.365101e-03 -1.213088e-03 -8.454628e-04
Al -4.764027e+00 8.694307e-01 2.400758e+00 2.345186e-03 -1.164565e-03 -3.023171e-03
Al -4.763057e+00 8.680863e-01 7.475008e+00 2.588297e-04 -2.147680e-04 9.332945e-05
Al -4.760977e+00 8.783776e-01 -2.712212e+00 1.935479e-04 -1.456471e-03 9.937164e-04
Al -6.340495e+00 3.588974e+00 2.403945e+00 -7.041084e-05 3.282897e-04 2.440018e-04
Al -6.325951e+00 3.593363e+00 7.471245e+00 6.527339e-04 -1.870370e-04 4.054662e-04
Al -6.342441e+00 3.584995e+00 -2.707811e+00 -1.740209e-03 -1.319328e-03 -1.181378e-04
Al -3.171986e+00 -1.859072e+00 2.403515e+00 -1.271602e-03 -2.227451e-03 3.175566e-03
Al -3.176537e+00 -1.849786e+00 7.473128e+00 -1.996971e-05 2.445744e-04 1.637505e-04
Ga -3.185458e+00 -1.868174e+00 -2.714815e+00 6.461702e-06 8.822019e-04 -3.021978e-04
Al -1.595200e+00 8.712397e-01 2.392046e+00 1.857229e-03 -2.691522e-03 -7.426974e-04
Al -1.598768e+00 8.686863e-01 7.485858e+00 -6.048735e-04 -9.992508e-04 4.039140e-04
Al -1.597195e+00 8.899549e-01 -2.706679e+00 1.740347e-03 -4.662354e-03 -1.164714e-03
Ga -3.161093e+00 3.604975e+00 2.396576e+00 -7.468474e-04 3.009946e-04 4.309046e-05
Al -3.175883e+00 3.608114e+00 7.474941e+00 2.102935e-05 -1.436810e-05 -2.178921e-04
Ga -3.167068e+00 3.585742e+00 -2.703828e+00 6.792362e-04 7.421162e-04 5.336193e-04
Al -2.355186e-02 -1.840652e+00 2.436905e+00 -1.769908e-03 -4.829568e-03 2.021412e-04
Al -2.198456e-02 -1.853384e+00 7.459024e+00 4.938883e-05 -8.686690e-05 9.574624e-05
Ga -1.635341e-02 -1.854807e+00 -2.727259e+00 -9.504990e-05 9.573260e-04 -3.075945e-04
Ga -1.833056e-02 1.774596e+00 4.942552e+00 -2.263046e-04 2.329844e-04 8.809513e-05
Al -2.131794e-02 1.779473e+00 -5.228601e+00 -1.898854e-04 2.978439e-04 -2.823604e-04
Al -2.222110e-02 1.794936e+00 -1.633526e-01 -9.769341e-04 -6.236139e-04 3.339453e-04
Al 3.131171e+00 -3.663246e+00 4.954627e+00 -5.597324e-04 6.858350e-04 7.483693e-04
Al 3.136604e+00 -3.674023e+00 -5.240936e+00 6.300286e-05 3.458513e-04 -5.544996e-05
Al 3.154690e+00 -3.678284e+00 -1.526325e-01 -1.804873e-03 -1.839796e-03 -2.125257e-03
Al 1.560801e+00 -9.523979e-01 4.936702e+00 3.927472e-05 -3.456904e-05 2.062488e-04
Al 1.563701e+00 -9.449017e-01 -5.247523e+00 -2.630380e-04 -3.085095e-04 -1.826224e-03
Ga 1.567670e+00 -9.449093e-01 -1.331631e-01 -6.632591e-04 3.750208e-04 3.638980e-04
Al 3.131540e+00 1.772474e+00 4.939461e+00 -1.016012e-04 -5.904265e-05 4.413718e-04
Al 3.129106e+00 1.780912e+00 -5.229039e+00 6.316803e-05 7.572912e-05 -3.134430e-04
Al 3.127625e+00 1.786620e+00 -1.606674e-01 -1.626313e-03 -7.785236e-04 6.026372e-04
Ga 6.281618e+00 -3.673741e+00 4.947436e+00 2.634373e-04 4.455835e-04 -3.577838e-04
Al 6.284482e+00 -3.682961e+00 -5.245302e+00 -2.288962e-04 -1.453359e-04 -1.336614e-03
Al 6.279989e+00 -3.701715e+00 -1.418939e-01 -6.590579e-04 -7.305147e-04 1.110478e-03
Al 4.699962e+00 -9.470720e-01 4.934338e+00 -5.906479e-04 -2.515125e-04 4.123300e-04
Al 4.702530e+00 -9.440954e-01 -5.240186e+00 -2.691310e-04 -3.082970e-04 -4.266696e-04
Ga 4.696107e+00 -9.516716e-01 -1.388414e-01 8.879123e-05 8.128413e-04 4.974757e-04
Ga -3.186657e+00 1.774051e+00 4.952079e+00 7.866504e-05 3.821858e-04 8.501397e-04
Al -3.178399e+00 1.776718e+00 -5.244892e+00 4.304386e-04 -2.907606e-04 -9.190846e-04
Al -3.172403e+00 1.772624e+00 -1.486680e-01 -3.183879e-04 5.406906e-04 -1.728308e-03
Al -2.668361e-02 -3.666669e+00 4.947069e+00 4.077137e-04 -5.537121e-04 -1.629603e-04
Al -2.665819e-02 -3.678970e+00 -5.252024e+00 -7.651317e-05 -2.663256e-04 -5.196242e-04
Ga -3.575375e-02 -3.696780e+00 -1.365620e-01 3.805699e-04 9.184978e-05 1.339358e-03
Al -1.597305e+00 -9.487284e-01 4.941179e+00 -6.651138e-04 -1.635075e-03 5.475213e-04
Al -1.597838e+00 -9.413085e-01 -5.248945e+00 -2.846497e-04 -1.056400e-04 -1.365651e-03
Ga -1.603342e+00 -9.381940e-01 -1.289194e-01 2.234085e-04 5.660672e-04 -7.300293e-05
N 1.594230e+00 8.515015e-01 4.310607e+00 3.591282e-04 -1.385387e-04 -3.448359e-04
N 1.556252e+00 8.743768e-01 -5.831311e+00 1.984010e-04 -1.302650e-05 3.297703e-04
N 1.550627e+00 9.124078e-01 -7.824096e-01 9.664953e-04 4.628055e-04 5.279290e-04
N -7.006175e-02 3.623922e+00 4.292753e+00 9.401574e-04 -7.059583e-04 -2.408540e-03
N -2.441076e-02 3.596815e+00 -5.825844e+00 -2.734455e-04 -2.400581e-04 -3.732333e-05
N -1.698256e-02 3.601569e+00 -7.691008e-01 -4.943814e-04 -6.647547e-04 3.020543e-04
N 3.132118e+00 -1.862790e+00 4.345781e+00 -4.707978e-04 2.700426e-04 2.228193e-04
N 3.133899e+00 -1.858110e+00 -5.847623e+00 1.226357e-04 7.373963e-06 -4.536094e-04
N 3.128167e+00 -1.906396e+00 -8.125886e-01 -9.578524e-05 1.215691e-03 5.894260e-04
N -4.795804e+00 8.505995e-01 4.310553e+00 2.138323e-04 1.938522e-04 3.915787e-04
N -4.759965e+00 8.714561e-01 -5.834242e+00 1.359554e-04 2.086362e-04 2.612122e-04
N -4.756739e+00 9.158686e-01 -7.767629e-01 1.181326e-03 -4.061108e-04 -2.522245e-03
N -6.293301e+00 3.570567e+00 4.323006e+00 4.914040e-04 4.449569e-04 -5.360297e-04
N -6.327269e+00 3.593448e+00 -5.840614e+00 4.359663e-05 -1.344506e-04 2.409658e-04
N -6.373872e+00 3.571489e+00 -7.867984e-01 6.634331e-05 9.167371e-04 -5.668253e-04
N -3.178710e+00 -1.813043e+00 4.329692e+00 1.462180e-03 2.581608e-04 -2.643641e-03
N -3.176630e+00 -1.855085e+00 -5.830053e+00 -1.341590e-04 1.204953e-04 -6.468253e-05
N -3.175993e+00 -1.912465e+00 -7.414103e-01 8.027472e-05 6.048208e-04 -2.214084e-05
N -1.601305e+00 8.285802e-01 4.297677e+00 8.108338e-05 7.263584e-04 -5.052493e-04
N -1.596701e+00 8.750116e-01 -5.830126e+00 2.906404e-04 -8.857871e-05 1.669530e-04
N -1.603509e+00 9.155931e-01 -7.850386e-01 2.245258e-03 3.537580e-04 1.893402e-04
N -3.169722e+00 3.646465e+00 4.373491e+00 -1.143522e-03 3.183962e-04 -1.155135e-04
N -3.172984e+00 3.604380e+00 -5.829324e+00 5.930854e-07 -2.662536e-04 2.689258e-04
N -3.134831e+00 3.574560e+00 -7.212307e-01 1.373862e-03 5.791942e-04 6.051020e-04
N -2.316048e-02 -1.852457e+00 4.355699e+00 4.449687e-05 -2.904857e-04 -1.420312e-05
N -1.920399e-02 -1.854139e+00 -5.841073e+00 1.733699e-04 -2.947514e-04 -1.062270e-04
N -2.157070e-02 -1.859346e+00 -7.681407e-01 2.321330e-04 -4.800069e-05 3.412194e-04
N -2.087793e-02 1.781052e+00 1.773749e+00 9.323140e-05 -3.944891e-04 -4.692049e-04
N -2.461816e-02 1.774656e+00 6.920172e+00 8.023345e-04 2.319396e-03 -5.805718e-04
N -2.061499e-02 1.783447e+00 -3.304497e+00 -1.356486e-04 -8.608700e-04 4.989466e-04
N 3.175257e+00 -3.630729e+00 1.757372e+00 7.739335e-04 -4.841935e-03 2.257206e-04
N 3.135792e+00 -3.678801e+00 6.871373e+00 -2.234132e-05 4.277931e-05 1.556613e-04
N 3.174891e+00 -3.655586e+00 -3.327437e+00 -1.854515e-04 -3.841092e-04 -1.750565e-05
N 1.553602e+00 -9.583259e-01 1.855215e+00 2.024752e-03 3.329865e-03 -7.133037e-04
N 1.556998e+00 -9.457139e-01 6.860387e+00 -2.222659e-04 2.766580e-04 -7.902220e-06
N 1.601373e+00 -9.309063e-01 -3.343089e+00 -1.776122e-03 5.063712e-03 2.976484e-03
N 3.130076e+00 1.781454e+00 1.769620e+00 3.098528e-04 -8.442109e-04 -6.052717e-05
N 3.127509e+00 1.779461e+00 6.859115e+00 -5.292339e-05 -2.088662e-04 -1.332423e-04
N 3.129566e+00 1.782329e+00 -3.311339e+00 1.640055e-04 -9.158505e-04 4.309555e-04
N 6.288506e+00 -3.679355e+00 1.788757e+00 -1.258252e-04 -5.964443e-04 6.715989e-05
N 6.281169e+00 -3.679738e+00 6.926368e+00 -3.518214e-04 3.889402e-04 -8.635434e-04
N 6.275651e+00 -3.733045e+00 -3.336436e+00 2.951430e-03 9.853449e-04 6.755146e-04
N 4.699812e+00 -9.645073e-01 1.847904e+00 1.280162e-03 6.202156e-03 -1.316893e-03
N 4.708795e+00 -9.456880e-01 6.858493e+00 -3.421904e-04 1.757502e-04 -1.243195e-05
N 4.666071e+00 -9.227727e-01 -3.329765e+00 -5.500332e-04 1.098285e-03 1.240726e-03
N -3.161867e+00 1.734005e+00 1.760834e+00 -6.035637e-03 -1.913481e-03 4.069613e-03
N -3.178568e+00 1.778592e+00 6.927850e+00 -7.457527e-05 2.271718e-05 3.319535e-04
N -3.171689e+00 1.726815e+00 -3.332104e+00 -2.727022e-03 1.176048e-03 -7.527503e-06
N -6.908841e-02 -3.655747e+00 1.838971e+00 8.606465e-04 2.439499e-03 -2.702974e-04
N -2.648833e-02 -3.675810e+00 6.868952e+00 1.004624e-04 1.957784e-05 -1.284105e-04
N -6.718762e-02 -3.714065e+00 -3.342041e+00 9.936587e-04 1.158971e-03 -6.831028e-04
N -1.598348e+00 -9.583479e-01 1.847875e+00 1.214116e-03 4.366260e-03 -2.367438e-04
N -1.600442e+00 -9.439296e-01 6.864942e+00 -1.551078e-04 -9.326088e-05 5.626501e-05
N -1.602664e+00 -9.048226e-01 -3.352435e+00 3.641888e-04 2.892443e-03 2.748829e-03
