108
Energy=-1.581051e+06 Lattice="9.533325e+00 0.000000e+00 0.000000e+00 -4.767187e+00 8.254100e+00 0.000000e+00 -7.183328e-04 8.390833e-03 1.540323e+01" Stress="1.253671e-04 -7.494511e-05 9.420104e-06 -7.809240e-05 -1.948214e-04 3.886919e-04 1.757198e-05 3.710183e-04 -2.584891e-04" Properties=species:S:1:pos:R:3:forces:R:3 Config_type=AlGaN_super3_25_1_64.xyz
Al 1.558857e+00 8.856813e-01 2.403463e+00 1.076753e-04 2.308424e-04 1.378391e-04
Al 1.562828e+00 8.988713e-01 7.562268e+00 1.019935e-05 -9.850120e-06 1.430000e-05
Al 1.557107e+00 8.779967e-01 -2.711152e+00 -9.057865e-05 9.123202e-05 8.109221e-05
Al -2.578318e-02 3.615927e+00 2.420943e+00 -4.073920e-04 1.655356e-04 -1.029712e-04
Al -2.770208e-02 3.617842e+00 7.551857e+00 -5.629208e-05 -7.549578e-05 -7.718468e-05
Ga -4.380099e-02 3.614447e+00 -2.715595e+00 1.320032e-05 -9.026966e-08 2.645009e-05
Al 3.163951e+00 -1.873539e+00 2.422019e+00 2.034579e-05 -5.734053e-05 2.449097e-05
Ga 3.153234e+00 -1.875057e+00 7.564849e+00 -4.907759e-06 -4.161764e-06 2.068442e-05
Al 3.147329e+00 -1.887511e+00 -2.727798e+00 3.517138e-06 -6.935563e-06 1.651361e-05
Al -4.784430e+00 8.767866e-01 2.409045e+00 1.012472e-04 1.008794e-04 9.581883e-06
Al -4.786772e+00 9.012249e-01 7.565356e+00 5.877989e-05 8.556830e-06 1.290978e-05
Ga -4.790551e+00 8.796491e-01 -2.717615e+00 -7.915590e-07 -1.963202e-05 2.292200e-05
Ga -6.372773e+00 3.626578e+00 2.423129e+00 2.272085e-05 -1.450413e-05 2.041605e-05
Ga -6.380466e+00 3.621423e+00 7.540533e+00 -1.862583e-05 -1.130565e-05 1.073621e-05
Ga -6.370100e+00 3.617914e+00 -2.699860e+00 -8.084579e-06 -8.799025e-06 3.321349e-05
Al -3.215144e+00 -1.869406e+00 2.430790e+00 8.486916e-06 1.672351e-05 1.486054e-05
Ga -3.204550e+00 -1.872202e+00 7.557582e+00 9.883453e-06 2.574195e-05 3.295701e-05
Al -3.191505e+00 -1.862616e+00 -2.718967e+00 9.652339e-06 3.391004e-06 9.866076e-06
Al -1.609067e+00 9.014955e-01 2.429464e+00 1.499215e-04 -2.728235e-04 2.809610e-05
Ga -1.613988e+00 9.068231e-01 7.561584e+00 -9.307928e-06 1.460913e-06 1.457582e-05
Al -1.601585e+00 8.750874e-01 -2.740225e+00 -2.385406e-05 -4.705648e-05 6.517922e-05
Al -3.199144e+00 3.621616e+00 2.429661e+00 5.988603e-05 8.664455e-05 -7.317682e-06
Al -3.196617e+00 3.616032e+00 7.550143e+00 1.637359e-04 -1.579728e-05 -1.623787e-05
Al -3.190610e+00 3.632187e+00 -2.723699e+00 1.476182e-05 2.667796e-05 1.162322e-04
Ga -1.275693e-02 -1.878835e+00 2.412092e+00 -3.005707e-05 1.108668e-05 1.463699e-05
Ga -1.817314e-02 -1.869405e+00 7.563572e+00 6.999329e-06 -1.257374e-06 2.306005e-05
Al -2.604417e-02 -1.868213e+00 -2.709291e+00 -1.053990e-05 2.775078e-06 3.461287e-05
Al -2.150771e-02 1.807843e+00 4.977719e+00 1.328325e-04 2.329597e-04 -9.307364e-05
Al -2.510859e-02 1.790340e+00 -5.284713e+00 4.496732e-05 -1.541915e-04 9.814943e-05
Al -1.731184e-02 1.785870e+00 -1.420852e-01 -1.030736e-04 6.621647e-06 -6.229565e-05
Ga 3.154839e+00 -3.731139e+00 4.971222e+00 2.455054e-05 7.073042e-06 3.430067e-06
Al 3.150375e+00 -3.737496e+00 -5.287777e+00 5.253253e-06 4.768760e-05 4.302812e-06
Ga 3.142152e+00 -3.717183e+00 -1.239042e-01 -1.021423e-05 2.812055e-05 6.077379e-05
Ga 1.560897e+00 -9.420839e-01 4.981592e+00 -7.787736e-06 1.926590e-05 2.697846e-05
Ga 1.559857e+00 -9.383716e-01 -5.250937e+00 -3.394007e-05 4.594563e-05 -6.626115e-06
Ga 1.567669e+00 -9.445791e-01 -1.650534e-01 -3.971914e-05 2.644945e-05 -3.370254e-05
Ga 3.153490e+00 1.796522e+00 4.981240e+00 -2.119846e-05 -8.094302e-06 -3.474468e-06
Al 3.149233e+00 1.783745e+00 -5.295511e+00 5.343343e-06 -7.287944e-06 -1.135540e-05
Al 3.143129e+00 1.795048e+00 -1.277702e-01 4.553475e-06 1.522565e-05 2.281097e-05
Al 6.324259e+00 -3.714299e+00 4.972998e+00 -1.319221e-05 3.058472e-06 3.651638e-05
Ga 6.322741e+00 -3.722100e+00 -5.271822e+00 2.115910e-05 1.908406e-05 3.281921e-05
Ga 6.337691e+00 -3.715762e+00 -1.385101e-01 -1.220937e-05 2.887452e-05 -1.462028e-05
Ga 4.751637e+00 -9.441272e-01 4.977934e+00 -8.608236e-06 -1.620671e-05 4.214236e-05
Ga 4.750444e+00 -9.466087e-01 -5.270191e+00 -1.597146e-05 1.546058e-05 -1.512444e-06
Ga 4.740639e+00 -9.578181e-01 -1.365858e-01 -4.377673e-05 1.170439e-05 -1.762082e-05
Al -3.203674e+00 1.808812e+00 4.970838e+00 2.000016e-04 -1.958465e-04 1.408350e-04
Al -3.191851e+00 1.799488e+00 -5.278968e+00 1.307037e-05 -8.695265e-05 -3.187408e-04
Ga -3.192879e+00 1.806495e+00 -1.417731e-01 -6.320652e-07 1.477868e-05 -1.012303e-05
Al -1.571799e-02 -3.720168e+00 4.994488e+00 -7.644851e-06 3.145848e-05 -2.093287e-05
Ga -6.623304e-03 -3.722632e+00 -5.269400e+00 -7.094661e-06 1.613238e-05 1.898440e-05
Al -1.352076e-02 -3.718535e+00 -1.632638e-01 9.773906e-06 2.035122e-05 1.812616e-05
Ga -1.615667e+00 -9.461596e-01 4.960545e+00 -1.441548e-05 2.561961e-05 -1.390640e-05
Al -1.610838e+00 -9.415687e-01 -5.248432e+00 -1.259312e-05 1.642973e-05 7.224259e-06
Ga -1.607690e+00 -9.467177e-01 -1.468194e-01 -2.939179e-05 3.731684e-05 2.270730e-05
N 1.520542e+00 9.092285e-01 4.316577e+00 8.734807e-05 -3.093515e-05 -8.561789e-05
N 1.560126e+00 9.239753e-01 -5.922289e+00 -1.974120e-05 -3.137465e-06 1.958703e-05
N 1.565661e+00 9.362924e-01 -7.856533e-01 7.545513e-05 -4.876242e-05 -1.044539e-04
N 1.867655e-02 3.601144e+00 4.338843e+00 3.770091e-05 -1.541028e-04 7.431489e-05
N -6.378300e-02 3.596264e+00 -5.921358e+00 3.025983e-06 6.793709e-05 -2.142066e-05
N -3.092812e-02 3.578345e+00 -7.415422e-01 1.263406e-05 -1.868225e-05 -8.930543e-06
N 3.154222e+00 -1.873926e+00 4.327818e+00 -5.541645e-06 -4.689561e-06 -3.130546e-05
N 3.150839e+00 -1.924258e+00 -5.865202e+00 5.694240e-06 -3.810348e-05 -2.314854e-07
N 3.158269e+00 -1.885295e+00 -8.173601e-01 1.515851e-05 -1.223092e-05 -1.386616e-05
N -4.749667e+00 9.083373e-01 4.320593e+00 6.436628e-05 -1.168245e-05 -2.564318e-05
N -4.782338e+00 9.284775e-01 -5.910120e+00 2.548283e-05 1.040863e-05 3.212536e-05
N -4.831026e+00 9.059736e-01 -7.415490e-01 2.415654e-05 -1.041292e-06 -2.912052e-05
N -6.375317e+00 3.678541e+00 4.407983e+00 2.589749e-06 -2.814517e-05 4.536146e-06
N -6.376692e+00 3.583011e+00 -5.887243e+00 -9.118196e-06 -2.724652e-06 -2.553611e-05
N -6.337262e+00 3.597412e+00 -7.187913e-01 -6.709868e-06 -9.336762e-06 -1.717680e-05
N -3.204274e+00 -1.920408e+00 4.337276e+00 2.965686e-06 -1.839310e-05 -1.848309e-05
N -3.153247e+00 -1.853927e+00 -5.875343e+00 4.636436e-06 -1.661019e-05 -6.860354e-06
N -3.197822e+00 -1.871332e+00 -8.130680e-01 5.734236e-06 -1.783740e-05 -2.043685e-06
N -1.608164e+00 9.417068e-01 4.353468e+00 -3.611768e-04 1.258508e-05 -7.284283e-05
N -1.612610e+00 8.767218e-01 -5.846731e+00 -4.120635e-06 -4.410152e-06 4.871558e-05
N -1.568018e+00 9.056676e-01 -8.153179e-01 8.472883e-05 4.933532e-05 8.341286e-05
N -3.248344e+00 3.607809e+00 4.344958e+00 -4.705765e-05 9.209540e-05 -6.832186e-05
N -3.161049e+00 3.595971e+00 -5.930504e+00 5.418103e-06 1.907075e-05 -9.407398e-05
N -3.232734e+00 3.648463e+00 -8.119444e-01 -1.532930e-05 -2.288040e-05 -7.906746e-05
N -2.012467e-02 -1.926523e+00 4.381713e+00 1.855505e-05 -5.997026e-05 -1.537098e-05
N -6.473601e-02 -1.851504e+00 -5.865402e+00 5.979254e-06 -3.837377e-05 -2.374848e-05
N -2.717677e-02 -1.918562e+00 -7.916992e-01 4.388172e-06 -4.419866e-05 -9.060878e-06
N -2.582955e-02 1.791183e+00 1.786232e+00 -4.345821e-06 1.156254e-05 -4.609606e-05
N 1.840452e-02 1.821018e+00 6.907641e+00 6.332105e-06 4.041287e-05 1.198401e-04
N -1.723381e-02 1.743811e+00 -3.366669e+00 1.378326e-04 3.007983e-05 -1.400011e-04
N 3.152065e+00 -3.711441e+00 1.865355e+00 1.354103e-04 -1.295517e-04 7.088333e-05
N 3.155489e+00 -3.757102e+00 6.957066e+00 -9.241843e-05 -4.672938e-05 4.810378e-05
N 3.113462e+00 -3.694157e+00 -3.366584e+00 7.491318e-06 -5.983412e-06 -2.173981e-05
N 1.611803e+00 -9.305207e-01 1.818770e+00 7.150767e-06 -3.455812e-05 -3.542014e-05
N 1.567919e+00 -8.978067e-01 6.956216e+00 -4.684190e-05 1.747321e-05 1.889807e-06
N 1.563255e+00 -9.510685e-01 -3.263501e+00 -1.088314e-06 2.990315e-06 -1.534018e-05
N 3.152685e+00 1.747882e+00 1.791112e+00 -1.229157e-04 -7.761347e-05 2.600412e-05
N 3.154280e+00 1.743053e+00 6.961220e+00 1.343075e-05 8.854880e-08 4.572538e-06
N 3.109542e+00 1.764604e+00 -3.380333e+00 -1.104224e-05 3.752401e-06 -9.195000e-06
N 6.291239e+00 -3.682513e+00 1.837831e+00 8.345549e-05 -1.949698e-05 8.568126e-06
N 6.283200e+00 -3.727814e+00 6.897449e+00 5.095163e-05 1.847784e-05 2.236331e-05
N 6.329913e+00 -3.669797e+00 -3.301754e+00 -1.002359e-06 2.015003e-05 -1.742682e-05
N 4.744407e+00 -9.576139e-01 1.849257e+00 2.781350e-05 -4.776755e-05 -2.963781e-05
N 4.742108e+00 -8.976393e-01 6.956213e+00 -2.423041e-05 -2.188008e-05 -1.890236e-05
N 4.743403e+00 -1.002251e+00 -3.296766e+00 -2.654095e-05 5.752825e-06 4.921322e-07
N -3.193869e+00 1.798312e+00 1.843945e+00 -2.332101e-04 -2.227782e-06 -8.128889e-06
N -3.243827e+00 1.820486e+00 6.903941e+00 -5.773170e-05 5.479723e-05 -4.034713e-05
N -3.160430e+00 1.819582e+00 -3.354532e+00 -4.337422e-05 2.426307e-05 1.095790e-04
N 2.605947e-02 -3.735533e+00 1.750259e+00 2.025054e-05 -3.108845e-05 6.401565e-06
N 2.495154e-02 -3.728134e+00 6.910619e+00 1.218348e-06 5.215387e-06 -2.973733e-06
N 2.011704e-02 -3.687749e+00 -3.295296e+00 -6.517056e-06 1.334037e-05 -3.035320e-06
N -1.654379e+00 -9.240612e-01 1.842138e+00 3.135807e-05 6.879949e-05 -7.384675e-06
N -1.612470e+00 -9.425695e-01 6.924097e+00 -2.810671e-05 1.264260e-06 -1.264913e-05
N -1.610181e+00 -9.560823e-01 -3.323659e+00 -2.117636e-05 5.755856e-06 -2.926657e-05
