108
Energy=-4.824398e+05 Lattice="9.405121e+00 0.000000e+00 0.000000e+00 -4.713855e+00 8.130839e+00 0.000000e+00 2.078436e-02 8.115815e-03 1.508442e+01" Stress="1.526573e-04 -5.014095e-04 1.008393e-03 -5.028173e-04 -1.919586e-03 3.994143e-04 1.004737e-03 3.993399e-04 1.364245e-03" Properties=species:S:1:pos:R:3:forces:R:3 Config_type=AlGaN_super3_1_0_10.xyz
Al 1.546762e+00 8.656479e-01 2.366605e+00 8.437343e-04 -5.136257e-04 1.665572e-05
Al 1.552380e+00 8.681338e-01 7.393051e+00 6.245868e-04 -4.021456e-04 -1.371734e-04
Al 1.535423e+00 8.607526e-01 -2.666107e+00 5.665673e-04 -4.048242e-04 -3.603815e-04
Al -2.128953e-02 3.576599e+00 2.367952e+00 6.971452e-05 4.557996e-04 4.346495e-05
Al -1.649567e-02 3.576755e+00 7.393154e+00 -3.627070e-06 1.274233e-05 -1.376122e-04
Al -3.215897e-02 3.570202e+00 -2.666651e+00 1.269625e-04 3.493875e-05 -2.481273e-04
Al 3.123313e+00 -1.845480e+00 2.369373e+00 2.203243e-04 -3.915725e-05 -4.640587e-04
Al 3.129291e+00 -1.844242e+00 7.393355e+00 1.588613e-04 -1.517777e-04 -9.520107e-05
Al 3.112770e+00 -1.849592e+00 -2.667087e+00 2.192584e-04 -1.577287e-04 -3.338756e-04
Al -4.723750e+00 8.675167e-01 2.368835e+00 -4.927820e-05 -5.861219e-04 -4.973181e-04
Al -4.720569e+00 8.702438e-01 7.394002e+00 4.141532e-04 -2.747969e-04 -3.130381e-04
Al -4.735626e+00 8.630506e-01 -2.665384e+00 6.945986e-04 -2.474087e-04 -6.431277e-04
Al -6.292984e+00 3.577978e+00 2.368372e+00 -1.846604e-04 4.469697e-05 -5.699504e-04
Al -6.287615e+00 3.578603e+00 7.394015e+00 -6.712562e-05 -2.828626e-05 -3.332454e-04
Al -6.304007e+00 3.573356e+00 -2.665741e+00 -4.055206e-05 1.335306e-04 -7.836389e-04
Al -3.155183e+00 -1.847098e+00 2.382082e+00 -2.278705e-04 -2.545449e-04 -5.843754e-04
Al -3.142180e+00 -1.841144e+00 7.393348e+00 7.487014e-05 -2.798464e-05 -2.862994e-04
Al -3.164236e+00 -1.850864e+00 -2.675379e+00 4.888921e-04 1.768682e-04 -3.743341e-04
Al -1.589165e+00 8.800064e-01 2.378929e+00 3.005420e-04 -2.405302e-03 -4.249442e-04
Al -1.586504e+00 8.723928e-01 7.392904e+00 8.963909e-04 -6.389393e-04 -2.476395e-04
Al -1.602147e+00 8.697326e-01 -2.676077e+00 5.006010e-04 -5.149947e-04 1.046923e-04
Al -3.160130e+00 3.579083e+00 2.369074e+00 4.224143e-04 2.699152e-04 -4.339109e-04
Al -3.154601e+00 3.582182e+00 7.394002e+00 4.404305e-04 -2.594548e-04 -3.204360e-04
Al -3.171535e+00 3.574392e+00 -2.665487e+00 4.657934e-04 -3.304609e-04 -5.617923e-04
Al -8.095891e-03 -1.845263e+00 2.380070e+00 5.346957e-04 -4.501548e-04 -2.753001e-04
Al -9.608105e-03 -1.838672e+00 7.392996e+00 5.385165e-04 -3.337765e-04 -2.575220e-04
Al -2.063358e-02 -1.848524e+00 -2.675186e+00 2.870049e-04 -1.529531e-04 -5.172445e-04
Al -1.563644e-02 1.769726e+00 4.881305e+00 -2.835965e-04 4.444796e-04 3.158876e-04
Al -3.256293e-02 1.762175e+00 -5.180534e+00 -5.669842e-04 3.441839e-04 -3.081554e-04
Al -2.087820e-02 1.775324e+00 -1.510480e-01 -1.701047e-03 -1.250588e-03 1.452146e-04
Al 3.128730e+00 -3.652477e+00 4.881204e+00 -5.388022e-04 3.688733e-04 -4.075443e-04
Al 3.111471e+00 -3.659349e+00 -5.178199e+00 -4.254354e-04 3.168606e-04 -3.408705e-04
Al 3.118797e+00 -3.655712e+00 -1.517315e-01 -4.253547e-04 4.566643e-04 1.839072e-04
Al 1.562164e+00 -9.419313e-01 4.884307e+00 -9.790019e-04 4.447916e-04 -4.393125e-04
Al 1.544548e+00 -9.485709e-01 -5.180909e+00 -9.452580e-04 5.813384e-04 -3.794111e-04
Al 1.559001e+00 -9.465711e-01 -1.507417e-01 -1.165353e-03 6.854875e-04 3.974017e-04
Al 3.116466e+00 1.770985e+00 4.879832e+00 -1.467789e-04 7.492840e-05 -2.856177e-04
Al 3.098990e+00 1.764225e+00 -5.177721e+00 -7.817805e-05 4.366912e-05 -9.225387e-05
Al 3.107092e+00 1.767544e+00 -1.523977e-01 -1.732995e-04 2.851405e-05 3.779840e-04
Al 6.261254e+00 -3.650856e+00 4.884658e+00 1.226690e-04 -1.876924e-04 -4.490857e-04
Al 6.244447e+00 -3.657836e+00 -5.180688e+00 7.228237e-05 -2.181314e-05 -3.919932e-04
Al 6.248188e+00 -3.659669e+00 -1.506018e-01 3.179539e-04 3.585045e-04 6.228644e-04
Al 4.692448e+00 -9.397720e-01 4.884648e+00 -7.120534e-04 3.113892e-04 -4.608729e-04
Al 4.675350e+00 -9.460220e-01 -5.180432e+00 -4.757435e-04 2.613258e-04 -4.241523e-04
Al 4.674658e+00 -9.445016e-01 -1.498419e-01 4.671390e-05 4.356246e-04 2.168203e-04
Al -3.155611e+00 1.774334e+00 4.883300e+00 -6.964598e-04 2.710437e-04 -3.986371e-05
Al -3.173747e+00 1.767107e+00 -5.181055e+00 -2.183830e-04 1.156350e-04 -6.672948e-05
Al -3.171879e+00 1.777995e+00 -1.447972e-01 1.443446e-03 -1.089290e-03 -2.000638e-03
Al -9.456364e-03 -3.648683e+00 4.883516e+00 -2.125167e-04 -9.325923e-06 -2.709083e-04
Al -2.717916e-02 -3.655408e+00 -5.180789e+00 -7.583313e-05 7.130160e-05 -2.740269e-04
Al -1.404722e-02 -3.657588e+00 -1.501592e-01 -5.888989e-04 2.150502e-04 2.568627e-04
Al -1.578106e+00 -9.370864e-01 4.880227e+00 -5.023034e-04 1.493203e-04 -2.308538e-04
Al -1.595092e+00 -9.445359e-01 -5.178627e+00 -5.868794e-04 3.279538e-04 -3.142998e-04
Ga -1.588239e+00 -9.448766e-01 -1.437412e-01 -4.798187e-04 9.775202e-04 -1.117672e-03
N 1.549302e+00 8.666057e-01 4.283096e+00 4.391515e-04 -1.698375e-04 2.132615e-04
N 1.532568e+00 8.609977e-01 -5.776733e+00 6.963224e-04 -2.941523e-04 1.599289e-04
N 1.538671e+00 8.631052e-01 -7.476346e-01 7.405290e-04 -6.674262e-05 8.795868e-05
N -1.831422e-02 3.577872e+00 4.283846e+00 9.224358e-06 -2.507540e-04 2.032249e-04
N -3.629597e-02 3.570235e+00 -5.777043e+00 4.085784e-05 -3.235701e-05 2.175870e-04
N -2.792221e-02 3.575160e+00 -7.494277e-01 -2.565745e-04 -2.033032e-04 -1.105954e-04
N 3.126210e+00 -1.843767e+00 4.283783e+00 2.800562e-04 -1.271217e-04 6.007575e-04
N 3.109114e+00 -1.851310e+00 -5.776996e+00 3.303790e-04 -2.346206e-04 2.624039e-04
N 3.115951e+00 -1.847775e+00 -7.512368e-01 2.547088e-04 -3.800349e-04 4.111250e-04
N -4.722092e+00 8.687189e-01 4.283272e+00 6.261662e-04 -1.541442e-04 5.770670e-04
N -4.740742e+00 8.626929e-01 -5.776440e+00 5.310065e-04 -1.285335e-04 1.757898e-04
N -4.732162e+00 8.646051e-01 -7.480833e-01 3.828868e-04 -4.843317e-05 5.041447e-04
N -6.290082e+00 3.579176e+00 4.282914e+00 -1.018820e-04 6.421751e-05 6.420326e-04
N -6.307144e+00 3.571142e+00 -5.776579e+00 -4.288775e-05 2.898977e-05 2.147109e-04
N -6.299811e+00 3.576248e+00 -7.492364e-01 1.100357e-04 -4.591689e-05 6.215821e-04
N -3.148627e+00 -1.843829e+00 4.292252e+00 1.056208e-04 9.458768e-05 6.526534e-04
N -3.162349e+00 -1.848630e+00 -5.775754e+00 1.348223e-04 -2.749228e-05 3.236147e-04
N -3.195412e+00 -1.868491e+00 -7.670224e-01 -1.071905e-03 -8.147346e-04 -2.764614e-04
N -1.589657e+00 8.767053e-01 4.291746e+00 1.008446e-03 -7.928566e-04 -1.625735e-04
N -1.606654e+00 8.653124e-01 -5.775545e+00 9.353193e-04 -5.152736e-04 2.757707e-04
N -1.599753e+00 9.104381e-01 -7.679474e-01 8.412615e-04 2.280677e-03 1.228104e-03
N -3.157402e+00 3.581841e+00 4.283320e+00 4.085319e-04 -4.573190e-04 5.300004e-04
N -3.173939e+00 3.575487e+00 -5.776725e+00 4.694229e-04 -3.145651e-04 1.769993e-04
N -3.167020e+00 3.578123e+00 -7.493434e-01 6.723649e-04 -4.140864e-04 3.362043e-04
N -8.954969e-03 -1.840801e+00 4.291438e+00 5.175223e-04 -2.940801e-04 5.336349e-04
N -2.956566e-02 -1.845666e+00 -5.775833e+00 6.496947e-04 -4.265930e-04 2.774835e-04
N 1.736912e-02 -1.865722e+00 -7.670786e-01 1.825270e-03 -1.154656e-03 -7.162836e-05
N -1.843456e-02 1.769785e+00 1.771649e+00 -9.399126e-04 -3.522190e-04 -8.447623e-04
N -1.359536e-02 1.768728e+00 6.796655e+00 -6.083787e-04 3.853933e-04 2.000217e-04
N -2.840355e-02 1.762968e+00 -3.266626e+00 -2.813860e-04 4.718967e-04 4.746443e-05
N 3.124183e+00 -3.653516e+00 1.769932e+00 -3.037507e-04 -5.009886e-05 -3.293247e-04
N 3.130368e+00 -3.652601e+00 6.795728e+00 -3.138910e-04 3.267689e-04 2.043766e-04
N 3.113941e+00 -3.659404e+00 -3.262232e+00 -3.547355e-04 3.979493e-04 4.624391e-04
N 1.557265e+00 -9.448806e-01 1.770512e+00 -1.195736e-03 6.124530e-04 -3.011794e-04
N 1.563589e+00 -9.421707e-01 6.798225e+00 -8.788197e-04 5.599429e-04 2.523792e-04
N 1.548448e+00 -9.476144e-01 -3.267449e+00 -6.896398e-04 6.612750e-04 3.007497e-04
N 3.113931e+00 1.769253e+00 1.769271e+00 -1.720432e-04 1.832553e-04 -3.500861e-04
N 3.118600e+00 1.771547e+00 6.794866e+00 -1.224226e-04 1.782481e-05 1.665889e-04
N 3.101911e+00 1.764933e+00 -3.261654e+00 4.782590e-06 1.760491e-06 4.923709e-04
N 6.257708e+00 -3.649804e+00 1.771160e+00 3.689962e-05 -5.307582e-04 -5.095715e-04
N 6.263530e+00 -3.650131e+00 6.798128e+00 6.660309e-05 -7.465946e-06 3.247146e-04
N 6.246633e+00 -3.658680e+00 -3.267554e+00 2.309720e-04 -1.935053e-04 2.925081e-04
N 4.689800e+00 -9.421721e-01 1.770652e+00 -4.627299e-04 2.864875e-04 -6.742168e-05
N 4.695185e+00 -9.390570e-01 6.798030e+00 -4.194203e-04 1.604473e-04 3.619371e-04
N 4.676980e+00 -9.448247e-01 -3.267268e+00 -5.599768e-04 3.816631e-04 2.475395e-04
N -3.157587e+00 1.771042e+00 1.770137e+00 -1.605627e-04 1.034724e-04 6.582732e-04
N -3.153688e+00 1.773735e+00 6.797542e+00 -1.806278e-04 1.155680e-04 2.736400e-04
N -3.171358e+00 1.767475e+00 -3.267180e+00 -3.676417e-04 2.096852e-04 2.889497e-05
N -1.268522e-02 -3.649861e+00 1.770213e+00 -1.946415e-04 -8.557065e-05 -1.351913e-04
N -8.106514e-03 -3.648139e+00 6.797324e+00 -3.689977e-05 9.002308e-05 3.846823e-04
N -2.445146e-02 -3.656904e+00 -3.267586e+00 1.130940e-05 -5.065094e-05 3.669925e-04
N -1.583213e+00 -9.460173e-01 1.824608e+00 1.881152e-04 2.958382e-03 3.318610e-03
N -1.575577e+00 -9.376238e-01 6.796141e+00 -6.393666e-04 3.971926e-04 2.776459e-04
N -1.592116e+00 -9.449804e-01 -3.262042e+00 -5.333339e-04 1.481617e-04 8.398028e-05
