108
Energy=-1672602.304223 Lattice="9.541537 0.000000 0.000000 -4.779512 8.254143 0.000000 -0.010084 -0.020022 15.417228" Stress="-0.000012 -0.000002 -0.000003 -0.000002 -0.000019 -0.000005 -0.000003 -0.000005 -0.000014" Properties=species:S:1:pos:R:3:forces:R:3
Al 1.576846 0.871606 2.454290 0.000713 0.000004 0.000152
Al 1.564362 0.881299 7.557697 0.002529 -0.002556 -0.001298
Al 1.563308 0.897417 -2.741442 0.000084 -0.000219 -0.000450
Al -0.026468 3.636858 2.394395 0.003651 -0.001020 0.001621
Al -0.020796 3.620760 7.584168 -0.000631 0.000469 0.000282
Ga -0.022671 3.626338 -2.723452 -0.000055 -0.000071 0.000836
Al 3.174087 -1.888536 2.399609 0.000074 0.006233 0.004048
Al 3.165302 -1.889702 7.553744 -0.000770 0.000312 -0.000063
Ga 3.173597 -1.880859 -2.703027 -0.000054 -0.000145 0.000862
Al -4.799706 0.862230 2.414389 -0.000505 -0.000376 0.000635
Ga -4.828829 0.869299 7.555606 0.000633 0.000268 0.000719
Ga -4.798154 0.891103 -2.708160 0.000708 -0.000193 -0.000058
Ga -6.406677 3.620103 2.434597 0.000023 -0.000769 0.001637
Al -6.408557 3.607705 7.543238 0.000530 0.000104 0.000215
Al -6.393298 3.629650 -2.714957 -0.000145 0.000160 0.000146
Al -3.213880 -1.897316 2.421293 -0.002022 0.004963 -0.001762
Al -3.208894 -1.895157 7.544743 0.000158 0.000353 0.000276
Al -3.194237 -1.872292 -2.694459 0.000008 0.000035 0.000455
Ga -1.630964 0.882293 2.438270 0.000579 -0.000561 0.000498
Ga -1.621081 0.871016 7.545578 0.000086 -0.000766 0.000846
Al -1.611342 0.893139 -2.713916 0.000567 -0.000310 -0.000611
Ga -3.200776 3.622580 2.425817 -0.000949 -0.001344 0.001865
Ga -3.212678 3.627630 7.546059 0.000061 -0.000279 0.001014
Al -3.196412 3.633152 -2.705020 0.000161 -0.000410 -0.000359
Ga -0.015557 -1.860553 2.461869 0.000019 -0.000256 -0.000627
Ga -0.029088 -1.882394 7.531907 0.000742 -0.000143 0.000394
Ga -0.024314 -1.862716 -2.712693 0.000521 -0.000324 -0.001931
Ga -0.017838 1.778397 4.994494 -0.000174 0.000784 -0.000745
Al -0.012551 1.805398 -5.295026 -0.000395 0.000236 0.000382
Ga -0.024989 1.798075 -0.140698 -0.000341 0.000513 0.000312
Ga 3.160997 -3.715591 4.989319 -0.000255 0.001020 0.000472
Al 3.171803 -3.707916 -5.299085 -0.000411 0.000340 0.000394
Al 3.171927 -3.714572 -0.133687 -0.000406 0.000428 -0.002247
Al 1.576383 -0.963441 4.995777 0.000044 0.000476 -0.000171
Ga 1.594486 -0.937499 -5.301256 -0.000965 0.000596 -0.000094
Ga 1.593589 -0.951226 -0.132231 -0.001279 0.000671 -0.000150
Al 3.152308 1.774145 4.990108 0.001506 0.003004 -0.001623
Al 3.137324 1.811603 -5.288807 0.000207 0.000264 0.000373
Ga 3.149673 1.793518 -0.140464 0.000630 0.000129 -0.000083
Ga 6.346765 -3.714257 5.009042 -0.000085 -0.000445 0.000592
Ga 6.346276 -3.710896 -5.301604 0.000279 0.000315 0.000740
Al 6.331831 -3.695769 -0.149778 0.000601 -0.000049 -0.001225
Ga 4.749791 -0.953800 4.979534 -0.000800 0.000075 -0.000677
Ga 4.754543 -0.958479 -5.297789 -0.000422 0.000005 0.000924
Al 4.762752 -0.966522 -0.125030 0.000059 0.000490 0.000501
Al -3.231018 1.787365 4.982519 -0.000215 0.000146 0.000498
Ga -3.199865 1.816382 -5.268088 0.000055 0.000106 0.000731
Al -3.206201 1.801380 -0.160302 -0.000126 -0.000166 -0.000716
Al -0.028119 -3.717151 5.000846 -0.000124 0.000286 -0.000029
Ga -0.018174 -3.717548 -5.276832 0.000052 0.000120 0.000319
Ga -0.013699 -3.719013 -0.159571 -0.000308 0.000355 -0.000806
Al -1.619749 -0.966788 4.989770 -0.000229 0.000027 -0.000758
Ga -1.613817 -0.939560 -5.273713 -0.000628 0.000154 0.000850
Ga -1.635661 -0.950212 -0.148507 -0.000334 0.000158 0.000964
N 1.602143 0.843099 4.367393 0.000581 -0.000342 -0.000117
N 1.571360 0.936780 -5.937624 -0.000371 -0.000166 0.000469
N 1.563380 0.880336 -0.836119 0.000213 0.000289 0.001046
N -0.022219 3.622730 4.308495 -0.000387 0.000240 -0.000862
N -0.061185 3.612477 -5.909952 -0.000253 -0.000569 -0.000277
N -0.026623 3.672660 -0.736651 -0.000170 0.000251 0.000018
N 3.123678 -1.861038 4.332367 -0.000786 -0.000720 -0.003746
N 3.167935 -1.914916 -5.947900 0.000147 -0.000545 -0.000539
N 3.208071 -1.900364 -0.719721 0.000556 -0.000728 0.000842
N -4.799578 0.915711 4.342518 -0.001062 0.000614 0.000205
N -4.839397 0.916146 -5.879614 0.000440 0.000064 -0.000480
N -4.763051 0.853499 -0.726325 0.000436 -0.000511 -0.000268
N -6.356191 3.604297 4.410897 -0.000300 -0.002936 0.000110
N -6.380727 3.588714 -5.953646 -0.000291 -0.000270 -0.000702
N -6.433103 3.650442 -0.797980 -0.000804 0.000084 0.000254
N -3.168118 -1.866064 4.332965 0.000869 -0.000169 -0.000194
N -3.189384 -1.864174 -5.968947 0.000031 -0.000175 -0.000474
N -3.244116 -1.895321 -0.777886 -0.000484 -0.000330 0.000402
N -1.666584 0.855508 4.417282 0.000858 -0.000639 -0.000312
N -1.579174 0.914158 -5.895607 0.001238 -0.000273 -0.000700
N -1.653572 0.909978 -0.799393 0.000871 -0.000232 0.000904
N -3.250967 3.605097 4.408455 0.000406 -0.000704 -0.001191
N -3.168628 3.663740 -5.901156 0.000582 -0.000376 -0.000687
N -3.158433 3.614562 -0.780966 0.000829 -0.000367 0.000248
N -0.020785 -1.875340 4.448167 0.000283 -0.000307 0.000459
N -0.018314 -1.864005 -5.908030 0.000389 -0.000416 -0.000173
N -0.016651 -1.861262 -0.757520 0.000016 -0.000633 0.000970
N 0.019013 1.804863 1.852205 -0.000337 0.000207 -0.001707
N 0.016055 1.811441 6.971695 -0.001433 0.001086 0.000040
N -0.022814 1.752567 -3.365536 -0.000337 0.000055 -0.000458
N 3.197269 -3.701226 1.784351 -0.000239 0.001880 0.000280
N 3.208740 -3.700787 6.967055 0.000519 0.000128 -0.000416
N 3.127793 -3.728083 -3.378855 -0.000329 0.000386 -0.000466
N 1.605145 -0.927416 1.845021 0.002626 -0.002585 0.000918
N 1.616149 -0.943456 6.924238 -0.000251 0.001641 0.000585
N 1.586905 -0.908345 -3.328102 -0.000578 0.000446 -0.000029
N 3.149266 1.746011 1.838656 -0.000039 -0.000508 0.000319
N 3.101330 1.804827 6.908450 0.000270 -0.000293 -0.000979
N 3.114314 1.828610 -3.360309 0.000049 -0.000020 -0.000563
N 6.311822 -3.691903 1.772431 -0.002536 0.000432 0.000617
N 6.330897 -3.720849 6.997094 -0.000227 -0.000399 -0.000325
N 6.386715 -3.675641 -3.313999 0.000231 -0.000157 -0.000829
N 4.754276 -0.956591 1.808803 0.000598 -0.004089 0.000323
N 4.746656 -1.011275 6.963899 -0.000287 -0.000401 -0.000835
N 4.798413 -0.978112 -3.322436 -0.000417 0.000207 -0.000787
N -3.248191 1.772707 1.757689 -0.000371 0.000139 0.000605
N -3.224179 1.782872 6.888018 -0.000164 -0.000001 -0.000185
N -3.165375 1.827538 -3.293036 -0.000237 -0.000083 0.000255
N -0.022735 -3.705759 1.806916 0.000327 0.000001 0.000840
N -0.070211 -3.745346 6.908673 -0.000213 -0.000049 -0.000193
N -0.016733 -3.754272 -3.292103 0.000168 -0.000349 0.000579
N -1.650380 -0.978957 1.830817 -0.001698 -0.001557 -0.000753
N -1.661683 -0.989372 6.897451 -0.000898 0.000208 -0.000378
N -1.654746 -0.925548 -3.292977 -0.000684 0.000345 0.000268
