108
Energy=-2450785.882420 Lattice="9.643838 0.000000 0.000000 -4.822564 8.351379 0.000000 0.000459 0.000344 15.647752" Stress="-0.000000 -0.000000 -0.000000 -0.000000 -0.000000 -0.000000 -0.000000 -0.000000 0.000000" Properties=species:S:1:pos:R:3:forces:R:3
Al 1.583223 0.887232 2.457762 -0.000027 0.000006 0.000013
Al 1.585567 0.889147 7.670693 -0.000024 0.000001 0.000002
Ga 1.582567 0.886630 -2.743217 -0.000013 -0.000002 0.000052
Al -0.024280 3.674167 2.448859 0.000006 0.000011 0.000006
Ga -0.022747 3.675305 7.676152 -0.000015 0.000011 0.000005
Ga -0.027008 3.677971 -2.746315 -0.000014 0.000000 -0.000009
Al 3.193244 -1.897683 2.448638 -0.000007 -0.000005 -0.000018
Ga 3.197096 -1.896998 7.676686 -0.000002 -0.000001 0.000010
Ga 3.194575 -1.901469 -2.746474 -0.000007 -0.000006 0.000013
Ga -4.849079 0.882899 2.440622 0.000022 0.000005 -0.000006
Ga -4.851490 0.880195 7.667063 -0.000010 0.000039 0.000021
Ga -4.839746 0.884143 -2.724536 -0.000010 0.000000 0.000017
Ga -6.466642 3.668029 2.452439 -0.000023 0.000008 0.000002
Ga -6.461344 3.669648 7.666962 0.000018 -0.000019 0.000019
Ga -6.459101 3.675045 -2.735227 0.000012 -0.000007 0.000008
Ga -3.260454 -1.909066 2.435865 -0.000003 0.000012 0.000027
Al -3.238861 -1.895468 7.670719 -0.000011 -0.000021 0.000005
Ga -3.244372 -1.900297 -2.721120 -0.000002 0.000016 0.000006
Ga -1.626337 0.908719 2.454056 -0.000026 0.000003 -0.000007
Ga -1.624157 0.881186 7.666596 0.000014 0.000022 0.000006
Ga -1.632759 0.892073 -2.733835 -0.000012 0.000004 0.000006
Al -3.224744 3.671113 2.443375 0.000005 0.000007 -0.000007
Ga -3.228827 3.677115 7.684579 -0.000005 -0.000003 -0.000021
Ga -3.228229 3.671642 -2.740682 -0.000001 0.000001 0.000002
Ga -0.003396 -1.895003 2.465418 0.000033 -0.000023 0.000025
Ga -0.026200 -1.887826 7.666855 -0.000033 -0.000017 0.000015
Ga -0.020146 -1.893858 -2.745317 -0.000011 -0.000004 0.000021
Ga -0.010224 1.820258 5.052079 0.000020 0.000005 0.000005
Ga -0.022425 1.821257 -5.371382 0.000005 0.000001 -0.000013
Ga -0.023353 1.828386 -0.120787 -0.000016 -0.000005 0.000006
Ga 3.192644 -3.752090 5.020942 0.000001 -0.000005 -0.000020
Al 3.192219 -3.751407 -5.355316 -0.000000 -0.000000 -0.000007
Ga 3.201845 -3.750434 -0.111862 0.000003 -0.000004 0.000026
Ga 1.596095 -0.958094 5.056272 0.000017 -0.000009 0.000011
Ga 1.590675 -0.969111 -5.374870 0.000008 -0.000005 0.000016
Ga 1.599516 -0.966300 -0.118936 -0.000029 0.000010 -0.000001
Ga 3.181017 1.808779 5.056491 -0.000007 -0.000002 0.000019
Ga 3.187052 1.812024 -5.363791 -0.000004 -0.000006 0.000016
Ga 3.197146 1.814474 -0.129285 0.000014 0.000018 0.000004
Ga 6.397567 -3.748794 5.066539 -0.000007 -0.000014 0.000009
Ga 6.396188 -3.742763 -5.373495 0.000043 0.000020 0.000011
Al 6.394317 -3.747334 -0.131488 -0.000014 -0.000009 0.000025
Ga 4.797175 -0.975265 5.062030 -0.000000 -0.000001 0.000022
Ga 4.801725 -0.979093 -5.368668 0.000033 0.000011 0.000001
Al 4.801228 -0.971555 -0.132767 0.000008 -0.000024 0.000017
Ga -3.239039 1.825860 5.055391 0.000003 -0.000003 0.000056
Ga -3.234530 1.823519 -5.360054 -0.000000 0.000013 0.000004
Al -3.241026 1.814205 -0.130339 0.000006 0.000002 0.000022
Ga -0.012878 -3.759341 5.052576 0.000000 0.000001 0.000011
Ga -0.013152 -3.753422 -5.357282 -0.000001 -0.000007 0.000059
Ga -0.022530 -3.761146 -0.130972 0.000016 0.000002 -0.000010
Ga -1.638104 -0.970976 5.066355 0.000014 0.000009 0.000025
Ga -1.640404 -0.971788 -5.364002 0.000001 -0.000008 0.000007
Ga -1.647926 -0.966990 -0.138689 -0.000036 0.000025 0.000072
N 1.583610 0.887134 4.369848 -0.000011 0.000000 -0.000009
N 1.584223 0.889024 -6.055222 -0.000014 -0.000002 -0.000014
N 1.581717 0.888062 -0.770721 -0.000009 -0.000003 -0.000054
N -0.016070 3.671884 4.369348 0.000007 0.000000 -0.000001
N -0.069444 3.697405 -5.984539 -0.000030 0.000005 -0.000014
N 0.012262 3.698189 -0.759797 0.000001 0.000001 0.000004
N 3.195132 -1.890241 4.369279 -0.000027 0.000012 -0.000009
N 3.193085 -1.948167 -5.983794 -0.000030 -0.000019 -0.000021
N 3.233138 -1.877526 -0.757954 0.000027 -0.000012 -0.000011
N -4.843875 0.884765 4.423418 0.000004 0.000003 -0.000010
N -4.844916 0.886963 -6.001051 0.000008 0.000004 -0.000011
N -4.800922 0.861916 -0.726583 -0.000010 -0.000003 0.000024
N -6.458184 3.673231 4.432202 0.000007 0.000018 -0.000014
N -6.452596 3.672148 -5.999553 0.000005 0.000003 -0.000002
N -6.498234 3.697554 -0.747260 -0.000035 0.000005 0.000027
N -3.241629 -1.898355 4.410957 -0.000005 -0.000007 -0.000042
N -3.238209 -1.894555 -6.058846 0.000001 -0.000011 -0.000006
N -3.283989 -1.922443 -0.729869 0.000011 -0.000013 -0.000002
N -1.629813 0.890733 4.433126 0.000035 -0.000004 -0.000017
N -1.630728 0.887152 -6.002179 0.000019 -0.000008 -0.000009
N -1.669501 0.917010 -0.745972 0.000012 -0.000003 -0.000006
N -3.237769 3.667406 4.359460 -0.000007 0.000000 -0.000011
N -3.192399 3.698136 -5.978216 -0.000007 -0.000006 0.000014
N -3.229375 3.626614 -0.753878 0.000003 0.000005 -0.000003
N -0.019784 -1.893301 4.441832 0.000007 0.000024 -0.000013
N -0.024976 -1.895778 -6.000200 0.000004 0.000004 -0.000012
N -0.018568 -1.893457 -0.764168 0.000036 -0.000017 -0.000031
N 0.021117 1.842230 1.864934 0.000021 0.000010 0.000002
N 0.023075 1.796283 7.045422 -0.000009 -0.000003 -0.000014
N -0.023205 1.816358 -3.386953 0.000011 0.000005 0.000015
N 3.194058 -3.750596 1.884326 -0.000000 -0.000012 -0.000013
N 3.192678 -3.751269 7.005232 0.000007 -0.000004 0.000023
N 3.191748 -3.751262 -3.431781 0.000009 0.000001 0.000001
N 1.629185 -0.942706 1.866016 -0.000015 0.000004 0.000010
N 1.591149 -0.918422 7.048909 0.000028 0.000007 -0.000010
N 1.587586 -0.966696 -3.392423 0.000005 0.000024 -0.000010
N 3.148247 1.791357 1.845369 0.000015 -0.000006 -0.000050
N 3.147154 1.789677 7.044705 -0.000007 -0.000011 -0.000002
N 3.194331 1.814058 -3.376443 0.000015 -0.000011 -0.000019
N 6.361141 -3.779602 1.786206 0.000013 -0.000001 -0.000022
N 6.401314 -3.703869 7.052554 -0.000014 0.000019 -0.000009
N 6.405124 -3.746520 -3.392049 0.000002 -0.000025 0.000002
N 4.752151 -0.992348 1.785150 -0.000011 0.000007 -0.000045
N 4.837900 -0.995615 7.048812 0.000017 -0.000034 -0.000018
N 4.802873 -0.968458 -3.385037 -0.000007 0.000016 0.000011
N -3.238673 1.863839 1.790318 0.000012 -0.000013 -0.000057
N -3.238265 1.821591 7.034910 0.000003 -0.000006 -0.000005
N -3.239728 1.815237 -3.381595 0.000011 -0.000003 0.000003
N 0.017647 -3.776877 1.849020 -0.000001 -0.000005 0.000009
N -0.017315 -3.755618 7.033852 0.000008 0.000004 -0.000058
N -0.021643 -3.754817 -3.374348 -0.000006 -0.000008 -0.000005
N -1.630020 -0.967698 1.833437 -0.000031 0.000024 -0.000073
N -1.674862 -0.993231 7.049918 -0.000013 -0.000007 -0.000000
N -1.638221 -0.969493 -3.374918 0.000003 -0.000002 -0.000020
