108
Energy=-2862765.642995 Lattice="9.699450 0.000000 0.000000 -4.849104 8.398451 0.000000 -0.001028 -0.000184 15.757999" Stress="-0.000000 0.000000 -0.000000 0.000000 0.000000 -0.000000 -0.000000 -0.000000 -0.000000" Properties=species:S:1:pos:R:3:forces:R:3
Al 1.593076 0.892369 2.478438 0.000004 0.000004 0.000011
Ga 1.592949 0.892940 7.730771 0.000008 0.000005 0.000009
Ga 1.593772 0.893128 -2.770973 0.000015 0.000011 0.000013
Ga -0.019101 3.684059 2.479140 0.000010 0.000013 0.000009
Ga -0.022955 3.690926 7.728610 0.000005 0.000000 0.000015
Ga -0.022672 3.690838 -2.768872 0.000015 0.000008 0.000026
Ga 3.204724 -1.899029 2.479277 0.000015 0.000013 0.000006
Ga 3.208186 -1.905398 7.728642 0.000004 0.000001 0.000017
Ga 3.208828 -1.905432 -2.768991 0.000008 0.000005 0.000010
Ga -4.882604 0.892526 2.479408 0.000020 0.000013 0.000006
Ga -4.875061 0.893454 7.728665 0.000006 0.000002 0.000016
Ga -4.873949 0.894145 -2.768917 0.000014 0.000005 0.000014
Ga -6.494395 3.683993 2.479316 0.000020 0.000012 -0.000000
Ga -6.490150 3.690949 7.728670 0.000008 -0.000001 0.000015
Ga -6.488894 3.690841 -2.768908 0.000015 0.000007 0.000015
Ga -3.257050 -1.907111 2.480712 0.000010 0.000004 0.000010
Ga -3.256911 -1.906511 7.732922 0.000004 -0.000001 0.000017
Ga -3.256081 -1.906431 -2.773915 0.000010 0.000003 0.000014
Ga -1.630857 0.892802 2.479203 0.000020 0.000003 0.000015
Ga -1.638664 0.893470 7.728702 0.000005 -0.000000 0.000008
Ga -1.637928 0.894060 -2.768920 0.000013 0.000005 -0.000006
Ga -3.256963 3.692033 2.481307 0.000022 0.000017 0.000009
Ga -3.256649 3.692427 7.732795 0.000004 -0.000001 0.000018
Ga -3.255721 3.692647 -2.772244 0.000013 0.000003 0.000013
Ga -0.019274 -1.898988 2.479108 0.000010 0.000009 0.000019
Ga -0.022692 -1.905352 7.728697 0.000003 -0.000003 0.000018
Ga -0.021434 -1.905556 -2.768893 0.000011 0.000005 0.000011
Ga -0.016394 1.821919 5.092679 0.000026 0.000006 0.000012
Ga -0.022598 1.826669 -5.399121 0.000016 0.000001 0.000007
Ga -0.017590 1.823567 -0.133239 0.000031 0.000020 0.000003
Ga 3.209056 -3.772902 5.104846 0.000024 0.000014 0.000012
Ga 3.210865 -3.772087 -5.398997 0.000015 0.000004 0.000015
Ga 3.209824 -3.772702 -0.144426 0.000033 0.000017 0.000017
Ga 1.592659 -0.965166 5.092878 0.000025 0.000021 0.000017
Ga 1.593849 -0.973115 -5.399077 0.000014 0.000004 0.000016
Ga 1.594012 -0.967184 -0.133342 0.000025 0.000018 0.000011
Ga 3.201991 1.821843 5.092772 0.000028 0.000018 0.000005
Ga 3.210600 1.826601 -5.399157 0.000018 0.000004 0.000012
Ga 3.205406 1.823551 -0.133363 0.000030 0.000021 0.000014
Ga 6.442096 -3.772644 5.104879 0.000031 0.000011 0.000013
Ga 6.443280 -3.773674 -5.399251 0.000019 0.000005 0.000016
Ga 6.443377 -3.771933 -0.144658 0.000020 0.000013 0.000007
Ga 4.826056 -0.973731 5.104969 0.000022 0.000014 0.000016
Ga 4.825863 -0.972479 -5.399194 0.000016 0.000003 0.000018
Ga 4.827385 -0.973233 -0.144898 0.000026 0.000018 0.000022
Ga -3.256934 1.826050 5.104753 0.000026 0.000011 0.000012
Ga -3.255798 1.825749 -5.399065 0.000020 0.000001 0.000008
Ga -3.255867 1.827069 -0.144480 0.000022 0.000019 0.000028
Ga -0.024237 -3.772936 5.104841 0.000024 0.000008 0.000013
Ga -0.023699 -3.772139 -5.399014 0.000016 0.000002 0.000015
Ga -0.022610 -3.772566 -0.144607 0.000027 0.000014 0.000018
Ga -1.640708 -0.973634 5.104891 0.000017 0.000015 0.000016
Ga -1.638329 -0.972477 -5.399176 0.000015 0.000002 0.000013
Ga -1.639583 -0.972923 -0.144791 0.000024 0.000005 0.000028
N 1.592886 0.892726 4.403491 -0.000026 -0.000021 -0.000017
N 1.594039 0.893634 -6.042892 -0.000018 -0.000013 -0.000009
N 1.593883 0.893489 -0.789258 -0.000027 -0.000021 -0.000011
N -0.023328 3.692636 4.462605 -0.000027 -0.000007 -0.000007
N -0.022381 3.692418 -6.043796 -0.000021 -0.000006 -0.000010
N -0.022497 3.690004 -0.782598 -0.000029 -0.000018 -0.000012
N 3.209356 -1.906231 4.462675 -0.000022 -0.000014 -0.000013
N 3.209819 -1.905661 -6.043639 -0.000019 -0.000010 -0.000019
N 3.207714 -1.904319 -0.782777 -0.000031 -0.000024 -0.000012
N -4.873579 0.893025 4.462604 -0.000019 -0.000014 -0.000009
N -4.872865 0.893995 -6.043681 -0.000020 -0.000010 -0.000013
N -4.874832 0.895469 -0.782751 -0.000030 -0.000026 -0.000010
N -6.489998 3.692556 4.462587 -0.000026 -0.000011 -0.000007
N -6.488609 3.692389 -6.043740 -0.000022 -0.000008 -0.000013
N -6.488455 3.689944 -0.782758 -0.000030 -0.000021 -0.000009
N -3.256979 -1.906361 4.463418 -0.000019 -0.000011 -0.000014
N -3.255913 -1.905927 -6.040184 -0.000020 -0.000010 -0.000018
N -3.255718 -1.905680 -0.789703 -0.000026 -0.000018 -0.000010
N -1.640152 0.893139 4.462405 -0.000014 -0.000016 -0.000019
N -1.638603 0.893978 -6.043806 -0.000014 -0.000008 -0.000009
N -1.636496 0.895542 -0.782631 -0.000024 -0.000021 -0.000009
N -3.256726 3.692612 4.463909 -0.000019 -0.000012 -0.000010
N -3.255560 3.693001 -6.040408 -0.000016 -0.000005 -0.000014
N -3.255528 3.693141 -0.788024 -0.000026 -0.000019 -0.000008
N -0.024037 -1.906314 4.462516 -0.000013 -0.000012 -0.000017
N -0.022199 -1.905700 -6.043727 -0.000013 -0.000008 -0.000017
N -0.019880 -1.904344 -0.782707 -0.000023 -0.000021 -0.000012
N 0.020574 1.800448 1.857726 -0.000011 -0.000010 -0.000007
N -0.020407 1.824114 7.080050 -0.000005 0.000010 -0.000010
N -0.022352 1.826071 -3.414784 -0.000015 -0.000001 -0.000009
N 3.209973 -3.772974 1.839641 -0.000020 -0.000009 -0.000019
N 3.209066 -3.773116 7.089176 -0.000002 0.000004 -0.000013
N 3.211053 -3.772345 -3.413133 -0.000014 -0.000008 -0.000016
N 1.592937 -0.923449 1.857738 -0.000015 -0.000006 -0.000008
N 1.592883 -0.970045 7.080203 -0.000008 0.000004 -0.000014
N 1.593884 -0.973224 -3.414764 -0.000018 -0.000002 -0.000011
N 3.165796 1.800107 1.857539 -0.000020 -0.000008 -0.000013
N 3.206430 1.824143 7.080131 -0.000004 0.000002 -0.000013
N 3.210444 1.826089 -3.414788 -0.000016 -0.000009 -0.000013
N 6.442219 -3.773340 1.837447 -0.000007 -0.000005 -0.000013
N 6.442331 -3.772702 7.089032 -0.000005 0.000004 -0.000012
N 6.443290 -3.774234 -3.413442 -0.000016 -0.000008 -0.000016
N 4.826265 -0.974385 1.837335 -0.000014 -0.000006 -0.000019
N 4.826237 -0.973826 7.089149 -0.000004 0.000005 -0.000015
N 4.825759 -0.972678 -3.413367 -0.000012 -0.000001 -0.000013
N -3.256722 1.824269 1.839589 -0.000016 -0.000008 -0.000023
N -3.256676 1.826039 7.088965 -0.000006 0.000007 -0.000017
N -3.255658 1.825121 -3.413196 -0.000017 -0.000004 -0.000010
N -0.025048 -3.772972 1.839542 -0.000017 -0.000012 -0.000019
N -0.023855 -3.773245 7.089098 -0.000002 0.000008 -0.000017
N -0.023828 -3.772412 -3.413107 -0.000016 -0.000007 -0.000015
N -1.640545 -0.974248 1.837426 -0.000013 0.000007 -0.000018
N -1.640587 -0.973809 7.089019 -0.000004 0.000006 -0.000017
N -1.638037 -0.972700 -3.413381 -0.000014 -0.000003 -0.000012
