108
Energy=-2.267684e+06 Lattice="9.638776e+00 0.000000e+00 0.000000e+00 -4.833355e+00 8.330597e+00 0.000000e+00 7.594504e-02 -1.297959e-02 1.561411e+01" Stress="3.629464e-03 2.242870e-04 2.832635e-03 2.134766e-04 1.044356e-03 -6.948198e-04 2.846969e-03 -6.910310e-04 5.625913e-03" Properties=species:S:1:pos:R:3:forces:R:3 Config_type=AlGaN_super3_40_1_5.xyz
Al 1.615650e+00 8.970914e-01 2.470375e+00 -7.790484e-04 9.469454e-04 1.125647e-04
Al 1.626497e+00 8.884815e-01 7.658248e+00 1.119156e-03 1.620380e-03 7.498101e-04
Al 1.555810e+00 8.749585e-01 -2.779799e+00 2.122198e-03 2.453559e-03 2.593222e-03
Al 1.737218e-02 3.682168e+00 2.457364e+00 -1.085244e-03 -1.463690e-03 -7.452582e-04
Ga 1.997468e-02 3.637830e+00 7.652173e+00 2.143499e-04 8.850276e-04 7.827354e-04
Ga -4.543849e-02 3.644385e+00 -2.738333e+00 6.682978e-05 3.520877e-04 2.129894e-03
Al 3.244977e+00 -1.869875e+00 2.478661e+00 -9.061797e-04 -1.762411e-03 -5.615287e-04
Ga 3.243495e+00 -1.875284e+00 7.639562e+00 1.097236e-03 -1.093580e-03 1.737816e-03
Ga 3.162363e+00 -1.889185e+00 -2.745518e+00 8.644819e-04 -7.306274e-04 1.104741e-03
Ga -4.822957e+00 8.850926e-01 2.466072e+00 -4.139610e-05 1.170595e-04 -3.581147e-04
Al -4.817899e+00 8.829864e-01 7.649062e+00 8.369432e-04 4.486991e-04 3.795719e-04
Ga -4.888944e+00 8.863077e-01 -2.754096e+00 2.677718e-04 4.492890e-04 1.989618e-03
Ga -6.449638e+00 3.675867e+00 2.445147e+00 4.863459e-04 -1.841615e-04 1.404464e-03
Al -6.410602e+00 3.641347e+00 7.670083e+00 -4.767144e-04 2.125421e-04 6.421173e-04
Ga -6.492269e+00 3.644666e+00 -2.769563e+00 1.129949e-03 -2.355836e-04 1.744015e-03
Al -3.219441e+00 -1.890741e+00 2.462312e+00 1.369094e-03 -1.127727e-03 1.626918e-03
Ga -3.192346e+00 -1.878429e+00 7.639174e+00 -5.069496e-04 -9.013218e-04 9.896592e-04
Ga -3.259442e+00 -1.902138e+00 -2.743328e+00 2.219747e-04 -1.678212e-04 9.511760e-04
Ga -1.607017e+00 9.106169e-01 2.443539e+00 1.733305e-03 -6.421821e-04 1.172215e-03
Al -1.591656e+00 8.837759e-01 7.656520e+00 3.661430e-04 1.690003e-03 3.449284e-05
Ga -1.663197e+00 8.878616e-01 -2.739824e+00 1.669425e-03 -1.586165e-04 2.308365e-04
Ga -3.204352e+00 3.676942e+00 2.452668e+00 4.572579e-04 -6.755023e-04 1.827106e-03
Ga -3.217992e+00 3.651383e+00 7.666957e+00 1.794999e-03 3.017455e-04 -1.043974e-04
Ga -3.278285e+00 3.654036e+00 -2.756344e+00 9.114062e-05 4.246841e-04 5.686123e-04
Ga 2.023359e-02 -1.860002e+00 2.469954e+00 3.609394e-04 -1.062467e-03 -6.849011e-04
Ga 1.512974e-02 -1.883080e+00 7.667269e+00 1.565801e-03 -7.805437e-04 -3.940485e-04
Ga -4.278121e-02 -1.886345e+00 -2.765419e+00 1.304812e-03 -1.580239e-03 3.367844e-04
Ga 1.611364e-02 1.807449e+00 5.054771e+00 -4.572744e-04 1.600109e-03 1.593902e-03
Ga -4.423013e-02 1.799338e+00 -5.367034e+00 -1.788939e-03 4.292508e-04 1.664563e-03
Ga -3.736968e-02 1.787931e+00 -1.437514e-01 1.276756e-03 3.710941e-03 3.262234e-03
Ga 3.247819e+00 -3.733190e+00 5.037750e+00 -9.400393e-04 6.676916e-04 3.769868e-04
Ga 3.160386e+00 -3.742940e+00 -5.350403e+00 -3.712369e-04 5.637397e-05 1.358227e-04
Ga 3.179595e+00 -3.769656e+00 -1.208017e-01 2.401547e-03 1.993343e-03 1.907287e-03
Ga 1.644938e+00 -9.528709e-01 5.056629e+00 -1.232681e-03 -2.344178e-04 1.307291e-03
Ga 1.566048e+00 -9.575616e-01 -5.360650e+00 -2.162113e-03 1.097734e-03 -3.253478e-04
Ga 1.569035e+00 -9.771072e-01 -1.313803e-01 1.520636e-03 2.512875e-03 1.121891e-03
Ga 3.221676e+00 1.805540e+00 5.073412e+00 -7.481195e-04 1.147380e-03 1.312702e-03
Al 3.154132e+00 1.813422e+00 -5.393239e+00 -3.966369e-04 8.687804e-04 2.482024e-03
Ga 3.148777e+00 1.792286e+00 -1.531518e-01 2.198573e-03 7.411657e-04 3.177863e-03
Ga 6.444372e+00 -3.731960e+00 5.050695e+00 -4.015196e-04 5.658392e-04 2.219300e-03
Ga 6.394564e+00 -3.750338e+00 -5.374085e+00 -3.432423e-05 1.942428e-04 9.484715e-04
Al 6.388956e+00 -3.750300e+00 -1.221476e-01 -5.763132e-04 -1.340585e-03 -3.952182e-04
Al 4.841240e+00 -9.547498e-01 5.042448e+00 -6.040297e-04 -3.377479e-03 2.054050e-03
Ga 4.766409e+00 -9.521691e-01 -5.362688e+00 -1.674951e-04 7.516404e-04 1.279461e-03
Ga 4.786917e+00 -9.911618e-01 -1.257098e-01 1.467025e-04 3.169599e-03 2.249827e-03
Ga -3.209502e+00 1.803584e+00 5.081271e+00 -8.381093e-04 1.483435e-03 2.091002e-03
Ga -3.289186e+00 1.814294e+00 -5.386438e+00 -1.608219e-04 -3.518646e-04 1.665735e-03
Al -3.262149e+00 1.803336e+00 -1.425640e-01 -2.071104e-03 -7.828329e-04 -1.741562e-03
Ga 1.385762e-02 -3.739126e+00 5.068535e+00 -4.692170e-04 1.356711e-04 8.726113e-04
Al -5.733943e-02 -3.750071e+00 -5.367480e+00 -1.693946e-03 2.585980e-04 9.278487e-04
Ga -4.754042e-02 -3.767181e+00 -1.587431e-01 1.352279e-03 1.555879e-03 3.972636e-03
Ga -1.600164e+00 -9.514327e-01 5.056483e+00 -1.632751e-03 -1.418663e-03 9.553964e-04
Ga -1.653804e+00 -9.619882e-01 -5.364191e+00 -1.343695e-03 1.024429e-03 9.601687e-04
Ga -1.660822e+00 -9.868362e-01 -1.403261e-01 5.019040e-04 2.069257e-03 3.288490e-03
N 1.616609e+00 8.932150e-01 4.387558e+00 1.347620e-03 2.218415e-04 -1.605936e-03
N 1.583366e+00 9.102947e-01 -6.031222e+00 2.449580e-03 9.637755e-05 -5.923749e-04
N 1.553410e+00 8.644040e-01 -8.500086e-01 1.352878e-03 1.077177e-05 -3.143321e-04
N 1.429371e-02 3.663203e+00 4.383143e+00 5.652368e-04 -4.106964e-04 -2.170637e-03
N -6.362857e-02 3.660617e+00 -5.984943e+00 2.362741e-04 2.087991e-04 -8.166559e-04
N -1.136453e-02 3.668412e+00 -7.416588e-01 1.794683e-03 6.875905e-04 -2.312742e-03
N 3.271995e+00 -1.857554e+00 4.405112e+00 1.464510e-03 1.966654e-04 -1.153205e-03
N 3.165701e+00 -1.887248e+00 -5.992830e+00 6.077857e-04 -9.428065e-04 -1.174266e-03
N 3.168879e+00 -1.908918e+00 -7.659448e-01 1.101910e-03 -3.899132e-04 -2.633301e-04
N -4.811528e+00 8.482974e-01 4.453138e+00 4.266751e-04 1.509581e-03 -1.626167e-03
N -4.924436e+00 9.068264e-01 -6.032193e+00 -3.519810e-04 3.990155e-04 -1.908039e-03
N -4.838783e+00 8.942440e-01 -7.539603e-01 2.442712e-03 1.440064e-04 -1.715126e-03
N -6.422988e+00 3.664942e+00 4.425564e+00 1.839458e-04 -5.913627e-04 -1.238576e-03
N -6.448924e+00 3.641128e+00 -6.005471e+00 1.744247e-03 -8.514079e-04 -1.170859e-03
N -6.524863e+00 3.668020e+00 -7.676605e-01 -8.493599e-04 9.233943e-04 -7.387740e-04
N -3.234398e+00 -1.862983e+00 4.402004e+00 -6.547460e-04 -7.961511e-07 -2.045231e-03
N -3.267419e+00 -1.883042e+00 -5.996583e+00 1.979849e-04 -7.401320e-04 -8.477180e-04
N -3.257792e+00 -1.952786e+00 -7.572167e-01 7.117312e-04 -9.266382e-04 -6.758713e-04
N -1.606296e+00 9.017469e-01 4.423671e+00 9.534373e-04 1.107154e-04 -1.384190e-03
N -1.669719e+00 8.938983e-01 -6.038518e+00 1.694763e-03 -3.152321e-04 -8.460127e-04
N -1.699270e+00 8.985223e-01 -7.513089e-01 1.265232e-03 -4.172633e-04 3.198862e-04
N -3.212136e+00 3.663668e+00 4.436688e+00 5.933516e-04 -9.293607e-04 -9.086116e-04
N -3.317584e+00 3.694760e+00 -5.967809e+00 3.877504e-05 1.529986e-04 -3.988634e-04
N -3.268791e+00 3.607446e+00 -7.652137e-01 1.314712e-03 -4.441275e-04 2.368764e-04
N 1.771750e-02 -1.876342e+00 4.444807e+00 9.132302e-04 -9.502319e-04 -5.525934e-05
N -5.183050e-02 -1.927308e+00 -5.964481e+00 1.515026e-03 -2.251655e-03 4.224522e-04
N -4.352675e-02 -1.900489e+00 -7.819492e-01 9.632921e-04 -3.990068e-04 4.478282e-04
N 5.550073e-02 1.845397e+00 1.867699e+00 -2.493703e-03 -1.623039e-03 -3.294142e-03
N 1.750414e-02 1.754582e+00 7.053367e+00 -3.132224e-05 -7.917777e-04 -7.037787e-04
N -1.493970e-02 1.774131e+00 -3.370963e+00 -6.102044e-04 3.649285e-04 -8.954060e-04
N 3.276895e+00 -3.704102e+00 1.885492e+00 -3.122009e-03 -5.773339e-04 -2.545863e-03
N 3.241482e+00 -3.748279e+00 7.020259e+00 -1.080457e-03 5.111477e-05 -7.329835e-04
N 3.173334e+00 -3.753572e+00 -3.370706e+00 2.250638e-05 4.829415e-04 -5.490139e-04
N 1.673538e+00 -9.219091e-01 1.872222e+00 -2.742242e-03 -2.420812e-03 -1.806726e-03
N 1.634543e+00 -9.186513e-01 7.043736e+00 -2.201827e-03 2.414937e-04 -7.303741e-04
N 1.567422e+00 -9.239512e-01 -3.376283e+00 -1.319180e-03 -9.458057e-04 -1.298923e-03
N 3.175293e+00 1.794779e+00 1.848317e+00 -2.000511e-03 -3.494250e-04 -3.080625e-03
N 3.223926e+00 1.807918e+00 7.073595e+00 -3.518946e-04 1.355620e-04 7.296571e-04
N 3.118826e+00 1.780981e+00 -3.437895e+00 -1.207294e-03 -6.054859e-04 -2.933373e-03
N 6.394116e+00 -3.710796e+00 1.810988e+00 4.118116e-05 2.391033e-03 3.428389e-04
N 6.492029e+00 -3.768151e+00 7.043500e+00 1.498702e-03 -7.356357e-04 -3.845603e-04
N 6.381584e+00 -3.749729e+00 -3.394484e+00 -2.867782e-04 1.709881e-04 -1.731977e-03
N 4.835791e+00 -9.982201e-01 1.874902e+00 -1.900511e-03 -2.055932e-03 -2.847155e-03
N 4.843616e+00 -9.201324e-01 6.979851e+00 -3.879734e-04 1.174702e-03 -2.619707e-03
N 4.775712e+00 -9.691627e-01 -3.379601e+00 -5.611885e-04 -2.341008e-04 -1.244419e-03
N -3.224085e+00 1.819847e+00 1.768152e+00 2.664217e-05 1.213877e-03 2.077564e-03
N -3.200072e+00 1.763694e+00 7.073201e+00 -1.033343e-03 -1.534651e-03 7.341401e-04
N -3.270947e+00 1.801468e+00 -3.399288e+00 -6.254569e-04 -2.011029e-04 -1.269174e-03
N 1.387882e-02 -3.721611e+00 1.833155e+00 -2.208442e-03 -1.648569e-03 -3.497876e-03
N -1.842038e-02 -3.765034e+00 7.050799e+00 -1.769989e-03 -1.959315e-04 -2.616098e-04
N -4.879613e-02 -3.748421e+00 -3.434766e+00 -4.646320e-04 1.179733e-04 -1.308764e-03
N -1.635149e+00 -9.769082e-01 1.859952e+00 -3.755431e-03 -1.745442e-03 -2.821703e-03
N -1.582788e+00 -9.157759e-01 7.042539e+00 -7.072363e-04 -6.874929e-04 -1.592967e-03
N -1.654965e+00 -9.646270e-01 -3.380982e+00 -1.403566e-03 4.285637e-05 -8.229027e-04
