108
Energy=-848640.909412 Lattice="9.474565 0.000000 0.000000 -4.741609 8.201845 0.000000 -0.000278 -0.002344 15.298503" Stress="0.000030 0.000026 -0.000000 0.000026 0.000041 -0.000001 -0.000001 -0.000001 0.000102" Properties=species:S:1:pos:R:3:forces:R:3
Al 1.564594 0.884836 2.478540 -0.001978 -0.005956 -0.006640
Al 1.563941 0.894292 7.510695 -0.001912 -0.013189 -0.003550
Al 1.564801 0.899401 -2.760108 0.000507 -0.012803 -0.002562
Al -0.017748 3.594939 2.486062 0.004305 0.001565 -0.011090
Al -0.006705 3.610052 7.509012 -0.002752 -0.002901 -0.002229
Al -0.006049 3.609871 -2.761421 -0.001626 0.000132 -0.000777
Al 3.168022 -1.879411 2.484481 -0.001953 0.002783 -0.008692
Al 3.170088 -1.881716 7.510272 -0.002195 0.001735 -0.003470
Al 3.168890 -1.878691 -2.764262 -0.002350 0.001387 -0.003424
Al -4.784826 0.896831 2.480633 0.004492 -0.010960 -0.009701
Al -4.779479 0.897575 7.510573 0.001946 -0.011538 -0.003184
Al -4.784296 0.903066 -2.759139 0.001755 -0.011396 -0.001284
Al -6.352573 3.602542 2.477862 0.001097 0.003501 -0.009793
Al -6.348110 3.609028 7.509929 0.000194 0.000333 -0.001380
Al -6.347653 3.609805 -2.769898 0.000361 0.000086 0.007181
Al -3.175156 -1.875515 2.479001 -0.000335 0.002269 -0.007246
Al -3.172511 -1.878693 7.509145 0.000796 0.003211 -0.002396
Ga -3.170848 -1.880145 -2.760734 0.000187 0.002732 -0.001487
Al -1.640312 0.859306 2.468481 0.008252 0.009095 -0.003730
Al -1.638923 0.904345 7.501847 0.004990 -0.012482 0.000918
Ga -1.646650 0.902414 -2.757915 0.012981 -0.008420 -0.006345
Ga -3.214508 3.610785 2.470650 0.013636 0.005347 -0.008629
Al -3.216176 3.610866 7.510531 0.010143 0.004376 -0.003270
Al -3.217563 3.614455 -2.769959 0.010226 0.004508 0.002956
Ga -0.040876 -1.864726 2.481695 0.012989 0.007283 -0.009604
Al -0.039768 -1.878702 7.508982 0.009600 0.007215 -0.003962
Al -0.039901 -1.878106 -2.758676 0.010814 0.006288 -0.003891
Ga -0.011446 1.787043 5.006814 -0.012132 -0.009060 -0.006824
Ga -0.004008 1.796646 -5.274863 -0.013236 -0.008739 -0.004609
Al -0.003996 1.797577 -0.244067 -0.010168 -0.005944 0.028604
Al 3.167493 -3.691227 4.999758 -0.010949 -0.003412 -0.003751
Al 3.170363 -3.686697 -5.277391 -0.010575 -0.004031 -0.003132
Al 3.173526 -3.686351 -0.243429 -0.011130 -0.005017 0.028271
Al 1.606501 -0.980960 5.001402 -0.012372 0.006551 -0.005195
Al 1.605924 -0.976776 -5.276542 -0.012875 0.006372 -0.004720
Al 1.605425 -0.971159 -0.245805 -0.012265 0.006713 0.026029
Al 3.127312 1.798532 4.998050 -0.000030 -0.002659 -0.002724
Al 3.129330 1.802077 -5.277291 0.000466 -0.001879 -0.002166
Al 3.124210 1.788503 -0.207494 0.001410 0.002647 0.022903
Al 6.300181 -3.690822 4.996772 0.000033 0.001103 -0.001670
Al 6.302026 -3.685996 -5.278411 0.000524 0.001129 -0.001587
Ga 6.298918 -3.686897 -0.215796 0.001836 -0.000645 0.033235
Al 4.735729 -0.978217 4.998569 -0.001137 0.010774 -0.004120
Al 4.735646 -0.973481 -5.277120 -0.000631 0.010935 -0.003310
Al 4.734988 -0.974388 -0.244183 -0.001264 0.011708 0.028922
Al -3.217391 1.802216 4.997516 0.003823 -0.003936 -0.003277
Al -3.216188 1.805163 -5.277086 0.003743 -0.003524 -0.003524
Ga -3.213799 1.802236 -0.217328 0.001442 -0.000691 0.031424
Al -0.042375 -3.688673 4.997863 0.002085 0.001930 -0.001715
Al -0.041349 -3.682764 -5.278189 0.001824 0.002079 -0.002688
Ga -0.036645 -3.679939 -0.208982 0.000808 -0.000271 0.030547
Al -1.606790 -0.970766 4.998419 -0.000014 0.005531 -0.001701
Al -1.606782 -0.959915 -5.290651 0.001167 0.003581 0.001010
Al -1.605889 -0.967548 -0.240572 0.000558 0.011380 0.026856
N 1.565696 0.889246 4.403178 0.015910 -0.019812 -0.002632
N 1.567802 0.894722 -5.872693 0.016519 -0.021113 -0.003191
N 1.561990 0.898220 -0.838970 -0.000209 -0.011859 0.005738
N -0.011659 3.605309 4.404946 -0.000306 0.018020 -0.005105
N -0.007043 3.613523 -5.874617 -0.001950 0.018267 -0.005176
N -0.008110 3.607348 -0.838242 -0.018351 -0.009943 -0.003534
N 3.169483 -1.883268 4.404166 -0.002160 0.000946 0.001461
N 3.170189 -1.879211 -5.871650 -0.001867 0.001076 0.001443
N 3.170366 -1.878464 -0.843241 -0.002324 0.001006 0.004187
N -4.783260 0.897276 4.402143 0.001681 -0.010637 0.002684
N -4.780713 0.900211 -5.871764 0.000758 -0.011376 0.003619
N -4.785764 0.898196 -0.832034 -0.015500 -0.021823 -0.002395
N -6.350184 3.606230 4.400452 -0.000362 0.000582 -0.000129
N -6.348033 3.611830 -5.872539 -0.000408 -0.000290 0.002239
N -6.345205 3.606656 -0.812264 -0.000812 -0.020870 -0.017053
N -3.173108 -1.881420 4.401294 -0.000881 -0.000277 0.000895
N -3.172502 -1.875240 -5.873127 -0.001574 0.000117 0.001333
N -3.172031 -1.874197 -0.831921 -0.000482 0.020991 0.017317
N -1.656479 0.858426 4.413466 -0.003736 -0.002564 -0.005497
N -1.652553 0.865096 -5.858698 -0.003324 -0.000687 -0.005861
N -1.646028 0.899206 -0.833035 0.028851 -0.016384 0.020619
N -3.219258 3.609120 4.402963 0.011087 0.003916 0.022856
N -3.216686 3.614213 -5.871703 0.011431 0.004045 0.004160
N -3.212760 3.615698 -0.823197 0.027988 0.014740 -0.013942
N -0.041052 -1.877797 4.408261 0.010621 0.004603 0.023504
N -0.040915 -1.873409 -5.873786 0.010944 0.005021 0.003613
N -0.040500 -1.871030 -0.834630 0.010298 0.025723 -0.001338
N -0.004417 1.785589 1.889260 -0.009840 -0.003765 -0.025417
N -0.028386 1.778996 6.935093 -0.000763 0.001513 0.020080
N 0.006714 1.805678 -3.351289 0.002312 0.000865 0.018297
N 3.181954 -3.682257 1.888551 0.000886 0.002676 -0.030989
N 3.169352 -3.689775 6.915966 -0.010466 -0.005511 0.003779
N 3.170566 -3.687531 -3.360386 -0.010190 -0.005240 0.004684
N 1.608171 -0.946314 1.891658 0.003516 0.004220 -0.030032
N 1.605890 -0.979295 6.916525 -0.011920 0.007069 0.006167
N 1.604193 -0.975805 -3.357806 -0.011823 0.007261 0.007073
N 3.126096 1.795610 1.868906 0.001453 -0.000256 -0.022446
N 3.128573 1.800050 6.915382 -0.000316 -0.000799 0.001016
N 3.127980 1.803087 -3.359295 0.000429 -0.001581 0.000892
N 6.311892 -3.673997 1.848615 -0.004422 -0.005673 -0.001411
N 6.301877 -3.688479 6.914561 -0.000134 -0.001879 0.001298
N 6.301850 -3.693140 -3.361501 -0.000086 -0.019512 -0.005171
N 4.733465 -0.975220 1.890535 -0.000980 0.012280 -0.025118
N 4.736627 -0.976966 6.915636 -0.001432 0.011841 0.003871
N 4.732475 -0.971355 -3.359725 -0.017627 0.021245 -0.002269
N -3.207623 1.800417 1.840747 0.001297 -0.023526 -0.008422
N -3.212669 1.802860 6.914812 0.001869 -0.000725 0.001852
N -3.219375 1.807205 -3.359871 -0.013790 0.007905 -0.005395
N -0.037152 -3.675463 1.854383 -0.017063 -0.011064 -0.018152
N -0.040718 -3.688412 6.915324 0.001695 -0.000294 0.001368
N -0.041162 -3.684612 -3.361292 0.001619 0.000004 0.001820
N -1.610106 -0.945522 1.893326 -0.016843 0.007629 -0.035810
N -1.604672 -0.973614 6.914266 -0.000106 0.010374 0.004321
N -1.596515 -0.978303 -3.360662 0.015771 0.006693 -0.009510
