108
Energy=-1.123296e+06 Lattice="9.476560e+00 0.000000e+00 0.000000e+00 -4.743597e+00 8.201947e+00 0.000000e+00 -2.990263e-03 -5.504352e-02 1.528080e+01" Stress="1.737283e-05 -4.179182e-04 -9.076905e-05 -4.191032e-04 -7.041286e-04 -2.365600e-03 -9.591195e-05 -2.372455e-03 1.542462e-03" Properties=species:S:1:pos:R:3:forces:R:3 Config_type=AlGaN_super3_15_1_37.xyz
Al 1.552175e+00 8.643837e-01 2.400670e+00 2.341165e-04 3.640170e-04 -7.966061e-05
Al 1.555107e+00 8.421923e-01 7.466652e+00 6.609691e-05 4.384198e-04 8.447917e-05
Al 1.557381e+00 8.829050e-01 -2.674308e+00 9.900717e-05 -1.003916e-04 3.538063e-04
Al -4.153712e-02 3.594591e+00 2.388878e+00 -1.745089e-05 -2.735615e-04 -3.835636e-04
Al -2.118472e-02 3.565475e+00 7.474272e+00 -3.881843e-04 1.830383e-04 1.790854e-04
Al -1.858099e-02 3.620609e+00 -2.668145e+00 -3.631596e-04 -1.839204e-04 2.825090e-04
Al 3.129617e+00 -1.880698e+00 2.382205e+00 7.110779e-04 -6.183374e-06 3.279656e-04
Al 3.136391e+00 -1.887176e+00 7.499720e+00 -9.429066e-05 -4.350216e-04 1.944618e-05
Ga 3.142557e+00 -1.841295e+00 -2.684690e+00 -3.377420e-04 7.676810e-05 1.040674e-05
Al -4.771257e+00 8.696038e-01 2.417282e+00 4.994427e-04 -1.307496e-03 5.590755e-04
Al -4.761755e+00 8.446418e-01 7.483671e+00 -1.095289e-04 6.721805e-04 7.829158e-05
Al -4.759517e+00 8.865143e-01 -2.700030e+00 2.902904e-05 -1.337666e-04 8.575702e-06
Ga -6.338732e+00 3.593079e+00 2.386308e+00 7.577695e-05 -2.874647e-04 -6.854930e-07
Al -6.340686e+00 3.571744e+00 7.489872e+00 -2.818846e-04 -1.086530e-05 -3.915082e-06
Ga -6.348747e+00 3.618683e+00 -2.678707e+00 1.909186e-05 3.152230e-04 6.232456e-04
Al -3.173235e+00 -1.862566e+00 2.403242e+00 -5.543724e-04 4.163254e-06 -2.315622e-04
Ga -3.173080e+00 -1.889626e+00 7.505495e+00 2.628174e-05 9.033224e-05 -4.176757e-05
Al -3.184235e+00 -1.849444e+00 -2.707428e+00 4.589445e-04 3.011173e-04 -2.919563e-04
Al -1.597173e+00 8.612160e-01 2.406472e+00 1.586979e-04 -2.337967e-04 -3.394745e-04
Al -1.599724e+00 8.435791e-01 7.473827e+00 1.222003e-04 -5.814358e-04 -4.990062e-04
Ga -1.612211e+00 8.922013e-01 -2.681757e+00 1.734596e-04 -3.305632e-04 -2.199834e-04
Al -3.175780e+00 3.607561e+00 2.424453e+00 6.774758e-06 4.104926e-05 -1.259962e-04
Ga -3.186355e+00 3.572804e+00 7.469566e+00 -1.221727e-04 4.319230e-05 -2.294687e-04
Al -3.187827e+00 3.614285e+00 -2.695659e+00 -1.005370e-04 -2.782962e-04 1.974917e-04
Al -2.196484e-02 -1.862980e+00 2.391257e+00 -5.786049e-04 -3.154385e-04 -4.335809e-04
Al -2.029699e-02 -1.885994e+00 7.493502e+00 -4.099180e-04 -1.581509e-04 2.790305e-04
Ga -2.040727e-02 -1.841617e+00 -2.688047e+00 4.119324e-04 -2.914253e-04 7.497333e-04
Al -3.330416e-02 1.760779e+00 4.936886e+00 -2.989425e-04 2.213765e-04 -2.277077e-04
Ga -2.243802e-02 1.796394e+00 -5.250999e+00 -1.636358e-05 -1.003668e-04 5.063334e-04
Al -1.264953e-02 1.788365e+00 -1.337509e-01 2.349437e-04 1.252289e-04 7.381243e-04
Al 3.137771e+00 -3.717518e+00 4.937174e+00 -1.463217e-04 2.745589e-04 -2.205178e-04
Ga 3.143871e+00 -3.664807e+00 -5.240610e+00 -2.310119e-04 7.821720e-05 2.729415e-04
Al 3.133544e+00 -3.689561e+00 -1.385820e-01 -1.522666e-04 -3.960022e-04 6.130434e-05
Ga 1.551526e+00 -9.789347e-01 4.937534e+00 -6.469092e-04 4.007434e-04 9.479911e-05
Al 1.555023e+00 -9.332159e-01 -5.267606e+00 -2.854893e-04 1.415176e-04 -1.502586e-04
Al 1.545816e+00 -9.372553e-01 -1.153567e-01 -4.360637e-04 1.385773e-04 5.371002e-04
Al 3.138627e+00 1.766757e+00 4.960064e+00 -7.718702e-05 -4.291757e-04 8.305805e-05
Ga 3.142271e+00 1.798192e+00 -5.253893e+00 4.331827e-05 -1.703896e-05 3.224840e-04
Al 3.119513e+00 1.781406e+00 -1.476425e-01 5.697696e-05 1.091679e-04 1.605963e-04
Ga 6.297422e+00 -3.717545e+00 4.939970e+00 -6.899277e-05 2.857913e-04 5.000705e-05
Al 6.301663e+00 -3.658947e+00 -5.242911e+00 2.281103e-04 2.220439e-04 7.959887e-05
Al 6.290113e+00 -3.677431e+00 -1.391023e-01 3.539751e-05 -3.697521e-04 9.303841e-05
Ga 4.715885e+00 -9.645868e-01 4.934886e+00 -2.573961e-04 3.089316e-04 -9.501554e-05
Al 4.726502e+00 -9.249990e-01 -5.244065e+00 3.031484e-05 8.577652e-06 1.200303e-04
Ga 4.722301e+00 -9.461554e-01 -1.291072e-01 4.106744e-05 -5.900587e-06 1.348161e-03
Al -3.178756e+00 1.764632e+00 4.922490e+00 3.927643e-05 -1.280632e-04 -2.386722e-04
Al -3.189390e+00 1.793059e+00 -5.247138e+00 2.196812e-05 -2.717413e-04 3.723863e-04
Ga -3.189567e+00 1.804857e+00 -1.174886e-01 7.236780e-05 -1.516027e-05 3.823685e-04
Al -1.724056e-02 -3.702989e+00 4.941715e+00 -5.877203e-06 2.224936e-04 1.944077e-04
Al -2.489548e-02 -3.654502e+00 -5.255002e+00 -1.019119e-04 4.212567e-05 3.303538e-04
Al -1.302794e-02 -3.671586e+00 -1.307441e-01 1.322507e-05 -8.632107e-05 -3.485723e-04
Al -1.587694e+00 -9.627194e-01 4.937761e+00 -1.842800e-04 5.898583e-05 -1.624061e-04
Al -1.601056e+00 -9.349222e-01 -5.254384e+00 1.256280e-04 1.029319e-04 -8.764107e-05
Al -1.597469e+00 -9.563375e-01 -1.256270e-01 1.622558e-04 -3.434626e-04 3.368451e-04
N 1.557718e+00 9.017327e-01 4.324362e+00 2.210198e-04 2.655417e-04 -1.877935e-04
N 1.556667e+00 8.490973e-01 -5.910136e+00 -2.722769e-05 1.056109e-04 -2.268338e-04
N 1.549265e+00 8.714011e-01 -7.499744e-01 3.000963e-04 -2.429048e-04 1.873703e-04
N -6.797952e-02 3.558536e+00 4.304721e+00 -2.424775e-04 1.020069e-04 3.968826e-04
N 1.713593e-02 3.646308e+00 -5.899166e+00 -4.349103e-05 -2.357699e-05 -1.891662e-04
N -2.540370e-02 3.610594e+00 -7.436451e-01 -8.302383e-05 9.253115e-05 2.034998e-04
N 3.135214e+00 -1.934289e+00 4.290164e+00 -6.584342e-05 -1.743619e-04 -3.743606e-04
N 3.143743e+00 -1.798788e+00 -5.863244e+00 -5.716231e-05 1.437755e-04 2.247944e-04
N 3.092737e+00 -1.874266e+00 -7.055043e-01 -2.239881e-04 -1.648100e-04 4.558115e-04
N -4.772112e+00 9.046083e-01 4.324632e+00 4.697781e-04 1.689363e-04 -1.047057e-04
N -4.718864e+00 8.700025e-01 -5.881434e+00 3.053393e-04 -5.058433e-05 -1.117243e-04
N -4.798948e+00 9.023804e-01 -7.904650e-01 9.581696e-06 -1.086210e-04 5.428145e-06
N -6.299262e+00 3.557979e+00 4.359141e+00 7.327339e-05 5.880191e-04 -3.135455e-04
N -6.341286e+00 3.672995e+00 -5.869345e+00 -2.718043e-04 1.114237e-04 -9.104002e-05
N -6.343994e+00 3.616522e+00 -6.893063e-01 1.535065e-04 -1.501450e-04 5.115725e-04
N -3.134575e+00 -1.859342e+00 4.309004e+00 4.865025e-04 -2.915546e-05 -7.145468e-05
N -3.178076e+00 -1.842718e+00 -5.800584e+00 -3.025828e-06 1.643625e-04 2.660452e-04
N -3.139056e+00 -1.877393e+00 -7.808224e-01 3.185391e-04 -6.325649e-05 -1.785726e-04
N -1.598842e+00 8.502388e-01 4.329242e+00 2.289429e-04 -3.429685e-05 -2.262867e-04
N -1.644859e+00 8.718214e-01 -5.880616e+00 1.110636e-04 -1.321199e-04 -1.449781e-04
N -1.570309e+00 8.549021e-01 -7.051656e-01 3.919760e-04 -5.165367e-05 3.021355e-04
N -3.184021e+00 3.593443e+00 4.348545e+00 -1.235502e-04 -3.381018e-05 -8.953649e-05
N -3.224217e+00 3.600698e+00 -5.835722e+00 2.610442e-04 1.491249e-04 3.710212e-05
N -3.189403e+00 3.658389e+00 -7.778131e-01 4.129202e-06 -3.337760e-05 -1.644822e-05
N -6.290049e-02 -1.905492e+00 4.303495e+00 -9.507196e-05 -1.553341e-04 4.211481e-04
N -2.299352e-02 -1.839985e+00 -5.861913e+00 1.704904e-04 -2.670892e-04 -1.475764e-04
N -2.093543e-02 -1.851292e+00 -7.015688e-01 -1.095651e-04 -1.680319e-04 3.520717e-04
N -2.233753e-02 1.775358e+00 1.791287e+00 8.866464e-05 -1.605170e-04 -4.960005e-04
N -2.548002e-02 1.751900e+00 6.864792e+00 -2.798904e-04 3.517656e-04 -2.081785e-04
N 1.865008e-02 1.821394e+00 -3.268393e+00 1.252297e-04 7.456795e-05 2.315079e-04
N 3.132258e+00 -3.701491e+00 1.782647e+00 -1.054805e-05 2.168743e-04 -4.823260e-04
N 3.182920e+00 -3.687545e+00 6.856812e+00 2.133685e-04 2.341548e-04 2.616045e-04
N 3.143599e+00 -3.719150e+00 -3.264847e+00 3.699158e-04 -1.905926e-04 2.837854e-04
N 1.554032e+00 -9.508919e-01 1.806415e+00 2.655726e-05 2.008253e-04 -7.015009e-04
N 1.558959e+00 -9.868591e-01 6.920347e+00 6.467121e-05 1.252713e-05 -2.756060e-04
N 1.559165e+00 -8.880284e-01 -3.350360e+00 -4.338415e-04 4.851233e-04 -2.799839e-04
N 3.134748e+00 1.721727e+00 1.763843e+00 -1.098860e-03 7.108509e-05 -5.575384e-04
N 3.138821e+00 1.754749e+00 6.884817e+00 -6.544251e-05 -1.458266e-04 -2.129088e-04
N 3.130083e+00 1.751074e+00 -3.273831e+00 3.711216e-05 -1.800862e-04 -5.648403e-05
N 6.250116e+00 -3.666592e+00 1.777560e+00 1.263821e-04 6.675480e-04 2.615882e-04
N 6.299182e+00 -3.759285e+00 6.906962e+00 2.624268e-05 -9.374243e-05 1.189609e-04
N 6.253135e+00 -3.653166e+00 -3.318009e+00 1.027163e-04 1.596395e-05 -4.516286e-04
N 4.719819e+00 -9.532481e-01 1.856100e+00 -7.298913e-05 8.183210e-05 -1.633508e-03
N 4.678462e+00 -9.589817e-01 6.908228e+00 -3.116679e-04 -9.236308e-05 -1.494080e-04
N 4.755812e+00 -9.100015e-01 -3.320735e+00 1.104071e-04 -2.153608e-04 -9.494355e-05
N -3.187897e+00 1.781281e+00 1.866821e+00 5.718348e-04 3.154014e-04 -8.025571e-04
N -3.181496e+00 1.704557e+00 6.839242e+00 8.298126e-05 -3.533498e-04 2.663445e-04
N -3.224393e+00 1.820674e+00 -3.324217e+00 2.305279e-04 2.227580e-05 -3.821944e-04
N 2.898480e-02 -3.668554e+00 1.778808e+00 4.029929e-04 -1.420714e-04 2.171817e-04
N -6.321796e-02 -3.684480e+00 6.859579e+00 4.446440e-04 4.452957e-04 -5.041762e-04
N 1.482854e-02 -3.688661e+00 -3.340226e+00 8.284763e-05 -1.546983e-04 -4.157035e-04
N -1.603814e+00 -9.561254e-01 1.792256e+00 2.122386e-05 -3.659500e-05 -3.633154e-04
N -1.555821e+00 -9.582129e-01 6.856849e+00 -1.157995e-04 6.418927e-04 1.049971e-04
N -1.635401e+00 -9.540151e-01 -3.344548e+00 -8.282536e-04 -2.601408e-04 6.484728e-06
