108
Energy=-1.169071e+06 Lattice="9.486496e+00 0.000000e+00 0.000000e+00 -4.748330e+00 8.211387e+00 0.000000e+00 1.447923e-02 9.483587e-03 1.533425e+01" Stress="-8.960567e-04 2.396917e-04 2.205882e-03 2.479487e-04 7.900678e-04 1.079075e-03 2.208937e-03 1.087542e-03 7.966669e-03" Properties=species:S:1:pos:R:3:forces:R:3 Config_type=AlGaN_super3_16_2_5.xyz
Al 1.566673e+00 8.902799e-01 2.434435e+00 2.576659e-04 -3.548776e-03 -2.579563e-03
Al 1.567919e+00 8.534567e-01 7.518299e+00 -3.331127e-03 -1.844843e-03 -2.079775e-03
Al 1.583287e+00 8.584094e-01 -2.720224e+00 -1.560341e-02 -5.743765e-04 3.354591e-03
Al 1.427013e-02 3.604792e+00 2.475869e+00 -9.549997e-03 -1.810654e-04 -1.151956e-02
Al -1.376151e-02 3.629566e+00 7.518132e+00 2.431948e-05 -3.743740e-03 -4.340883e-03
Al -2.688662e-02 3.601988e+00 -2.729320e+00 -1.689495e-04 -3.392900e-03 8.073899e-03
Al 3.192298e+00 -1.834323e+00 2.445725e+00 -1.299920e-02 -1.364951e-02 -5.901829e-03
Al 3.159235e+00 -1.863391e+00 7.522205e+00 -5.399613e-03 -2.468118e-04 5.305009e-04
Al 3.137536e+00 -1.886743e+00 -2.740706e+00 4.716326e-03 4.676481e-03 3.304131e-03
Al -4.769368e+00 8.885849e-01 2.463318e+00 -1.247036e-02 -9.713020e-03 -2.706827e-03
Al -4.779377e+00 8.801352e-01 7.514979e+00 3.966721e-03 -1.915235e-03 2.400563e-04
Ga -4.801856e+00 8.623611e-01 -2.742596e+00 4.389041e-03 -2.282290e-03 4.342499e-03
Al -6.352300e+00 3.612935e+00 2.470591e+00 -2.736414e-03 -6.501227e-04 -6.683078e-03
Ga -6.343298e+00 3.610428e+00 7.515213e+00 1.500787e-04 3.710921e-05 -1.469806e-03
Ga -6.371671e+00 3.597979e+00 -2.735228e+00 3.604260e-03 5.390324e-04 5.090545e-03
Ga -3.174255e+00 -1.862609e+00 2.416981e+00 4.281333e-03 2.499698e-03 -3.135726e-03
Al -3.171557e+00 -1.852574e+00 7.513598e+00 -5.605960e-05 -5.757079e-04 1.964115e-03
Ga -3.184587e+00 -1.865052e+00 -2.737354e+00 2.267059e-03 2.558878e-03 4.192986e-03
Al -1.589596e+00 8.889728e-01 2.483760e+00 -4.420497e-03 -4.468918e-03 -1.718496e-02
Ga -1.609077e+00 8.873081e-01 7.512375e+00 4.916237e-03 -5.265903e-04 -2.080145e-03
Al -1.611351e+00 8.824134e-01 -2.731696e+00 5.549297e-03 -1.823282e-03 3.300556e-03
Ga -3.247098e+00 3.580335e+00 2.432325e+00 8.647627e-03 5.443877e-03 -1.943777e-03
Al -3.182784e+00 3.635387e+00 7.510544e+00 5.054707e-03 -9.773455e-04 -6.231728e-04
Ga -3.186557e+00 3.629171e+00 -2.730208e+00 2.948663e-03 -1.171715e-03 2.316572e-03
Al 2.539307e-02 -1.852884e+00 2.454010e+00 -1.211085e-02 1.870739e-03 -4.206687e-02
Al -1.456898e-02 -1.851541e+00 7.519244e+00 -1.405250e-02 -1.038548e-02 1.085952e-02
Al -1.555958e-02 -1.832292e+00 -2.744654e+00 1.050007e-03 -2.256358e-03 4.995401e-03
Al -4.218875e-03 1.795611e+00 5.002859e+00 -1.416744e-03 -1.094963e-03 -5.054079e-03
Ga -1.922037e-02 1.774929e+00 -5.280487e+00 -1.687031e-03 1.358689e-04 5.899954e-03
Al -3.317896e-02 1.766805e+00 -1.469292e-01 3.544182e-03 4.591977e-03 1.978646e-03
Al 3.182011e+00 -3.685125e+00 5.003993e+00 -1.547211e-02 -6.300724e-03 -6.594767e-03
Al 3.165265e+00 -3.685540e+00 -5.280172e+00 -8.549766e-03 3.022411e-03 9.573623e-04
Ga 3.164790e+00 -3.692482e+00 -1.520231e-01 -1.182246e-03 -5.724281e-04 1.079115e-02
Ga 1.571025e+00 -9.694356e-01 4.964332e+00 -4.369693e-03 4.338101e-03 -7.521530e-04
Al 1.587734e+00 -9.611237e-01 -5.283069e+00 -5.548368e-03 1.404407e-04 2.280157e-03
Al 1.581261e+00 -9.519355e-01 -1.757918e-01 -5.696049e-03 6.870219e-04 1.240563e-02
Al 3.142512e+00 1.790233e+00 4.989411e+00 9.929805e-04 8.167183e-04 -2.291172e-03
Al 3.125468e+00 1.768775e+00 -5.293894e+00 3.505200e-04 1.112678e-03 2.588164e-03
Al 3.117020e+00 1.777978e+00 -1.556600e-01 3.324457e-04 1.037005e-03 1.344984e-02
Al 6.314248e+00 -3.683061e+00 5.003112e+00 2.788961e-03 4.683132e-04 -1.389804e-03
Ga 6.280928e+00 -3.686467e+00 -5.289641e+00 1.888301e-03 2.484771e-03 2.288185e-03
Al 6.300528e+00 -3.702372e+00 -1.730378e-01 -2.248413e-03 9.723239e-04 9.630571e-03
Al 4.748920e+00 -9.478887e-01 5.002487e+00 -9.811149e-04 5.141997e-03 -1.284418e-03
Al 4.724013e+00 -9.538734e-01 -5.302227e+00 -1.709182e-03 1.869662e-04 2.053498e-03
Al 4.720926e+00 -9.559300e-01 -1.774211e-01 -4.829521e-04 1.650422e-03 1.050849e-02
Al -3.190958e+00 1.794837e+00 5.000499e+00 -5.427530e-03 -7.316613e-03 1.007491e-03
Ga -3.198031e+00 1.778453e+00 -5.289852e+00 -2.643134e-03 3.774052e-03 2.213321e-03
Ga -3.201844e+00 1.767538e+00 -1.640935e-01 8.336975e-04 -1.842678e-03 7.002988e-03
Al -1.603861e-02 -3.675783e+00 4.995683e+00 -9.684880e-03 2.837075e-03 -4.889615e-03
Ga -1.710000e-02 -3.671446e+00 -5.287991e+00 3.424834e-04 3.100101e-04 1.743317e-03
Ga -4.671355e-02 -3.675187e+00 -1.626634e-01 -1.629847e-03 2.283091e-03 7.742394e-03
Al -1.588089e+00 -9.502372e-01 4.991567e+00 1.479083e-04 5.582888e-04 -7.821362e-03
Al -1.598029e+00 -9.251920e-01 -5.290871e+00 -1.199688e-03 -1.951391e-02 9.027965e-03
Al -1.593244e+00 -9.451045e-01 -1.942860e-01 -1.820842e-03 2.085969e-03 1.412115e-02
N 1.562150e+00 9.115231e-01 4.375986e+00 -7.719012e-06 2.526605e-03 -4.688346e-03
N 1.580232e+00 8.548923e-01 -5.892813e+00 4.659157e-03 -6.922480e-03 -7.072491e-03
N 1.549655e+00 8.684613e-01 -7.726306e-01 2.444918e-03 -9.063360e-04 -6.098504e-04
N -2.538095e-03 3.611097e+00 4.408093e+00 -2.431406e-03 8.610050e-04 -5.201992e-03
N -7.473992e-02 3.621129e+00 -5.920988e+00 2.223911e-03 -1.429323e-03 -3.139916e-03
N -3.943727e-04 3.585994e+00 -7.902604e-01 5.929755e-03 -5.116378e-03 -4.434069e-03
N 3.197131e+00 -1.872528e+00 4.384804e+00 4.644256e-03 -6.840193e-03 -4.586868e-03
N 3.153090e+00 -1.871802e+00 -5.884407e+00 -1.392471e-03 8.441978e-04 -3.474650e-03
N 3.150287e+00 -1.843987e+00 -7.946332e-01 -1.151780e-03 6.064429e-03 -6.196105e-03
N -4.768981e+00 8.877352e-01 4.400998e+00 1.330924e-03 -9.925109e-03 -2.880969e-03
N -4.810483e+00 8.619566e-01 -5.898581e+00 -3.052759e-03 -4.587017e-03 -4.364041e-03
N -4.815606e+00 8.562539e-01 -7.696753e-01 -5.786477e-03 -4.032300e-03 2.714054e-03
N -6.340527e+00 3.614654e+00 4.410869e+00 -6.111267e-03 2.938459e-03 -3.025500e-03
N -6.357434e+00 3.579783e+00 -5.870453e+00 4.326804e-04 -7.624822e-03 2.158301e-03
N -6.386110e+00 3.589490e+00 -7.647105e-01 -4.570716e-03 -6.266564e-03 2.665957e-03
N -3.169949e+00 -1.859086e+00 4.415727e+00 1.990084e-04 -3.140268e-04 3.002880e-03
N -3.180067e+00 -1.829551e+00 -5.896416e+00 1.507526e-03 6.459854e-03 -4.463056e-03
N -3.183889e+00 -1.865936e+00 -7.548626e-01 2.978918e-04 -3.601772e-04 6.923343e-03
N -1.606768e+00 8.969133e-01 4.414143e+00 3.745732e-03 -3.238310e-03 -3.710387e-03
N -1.620400e+00 8.153561e-01 -5.864549e+00 4.036946e-03 1.127369e-02 -6.032659e-03
N -1.584445e+00 8.686090e-01 -8.000636e-01 3.400029e-03 -4.250169e-03 -2.852237e-03
N -3.302262e+00 3.551273e+00 4.400365e+00 3.665024e-02 2.119416e-02 9.416456e-03
N -3.150613e+00 3.634330e+00 -5.915093e+00 3.839734e-03 1.534518e-03 -1.474124e-03
N -3.201515e+00 3.617331e+00 -7.708807e-01 3.336277e-03 -8.460226e-04 3.328813e-04
N -4.212952e-02 -1.863508e+00 4.246592e+00 -5.549337e-03 -6.605271e-03 5.113093e-02
N -2.796773e-02 -1.820680e+00 -5.893612e+00 3.632279e-03 7.060436e-03 -2.272968e-03
N -2.681871e-02 -1.826027e+00 -8.022447e-01 6.684972e-03 6.665413e-03 -4.704885e-03
N -6.837823e-03 1.800026e+00 1.813161e+00 -6.311323e-03 -3.918732e-03 2.155587e-03
N 2.694031e-02 1.813504e+00 6.895255e+00 1.611801e-03 1.161998e-04 6.695822e-03
N -2.651015e-02 1.789992e+00 -3.309659e+00 4.080005e-03 -4.775115e-03 6.328420e-03
N 3.163477e+00 -3.717346e+00 1.848392e+00 6.430871e-03 1.270252e-02 7.200061e-03
N 3.168207e+00 -3.679666e+00 6.928741e+00 -5.127637e-03 -7.230035e-04 -7.673232e-03
N 3.191697e+00 -3.677613e+00 -3.355982e+00 -8.516402e-04 9.032474e-04 -3.562608e-03
N 1.589442e+00 -9.445531e-01 1.842605e+00 2.296414e-03 -3.857963e-04 -1.234102e-02
N 1.493422e+00 -1.015699e+00 6.942324e+00 3.342016e-02 2.197805e-02 2.153724e-04
N 1.586337e+00 -9.640460e-01 -3.341899e+00 -4.407822e-03 2.603802e-03 -2.030188e-03
N 3.140959e+00 1.796889e+00 1.848298e+00 -1.301386e-04 -8.524755e-05 -9.210347e-03
N 3.138367e+00 1.753757e+00 6.908559e+00 -2.102550e-03 -9.406802e-03 -4.441874e-03
N 3.089862e+00 1.761845e+00 -3.377676e+00 -9.629128e-04 -7.778376e-04 -5.790529e-03
N 6.306960e+00 -3.730884e+00 1.791299e+00 4.628803e-04 -2.386877e-03 -1.374734e-06
N 6.290362e+00 -3.664607e+00 6.919112e+00 -6.066000e-03 4.186591e-03 -3.446448e-03
N 6.269822e+00 -3.708684e+00 -3.331203e+00 -6.589938e-03 -2.016850e-03 -8.387915e-04
N 4.695342e+00 -9.250698e-01 1.791551e+00 8.414487e-04 3.608394e-03 -4.434176e-03
N 4.738563e+00 -9.480532e-01 6.928556e+00 -4.747885e-03 2.159966e-03 -1.637928e-03
N 4.699729e+00 -9.815492e-01 -3.386491e+00 -8.230653e-03 -9.000723e-04 -2.300918e-03
N -3.250666e+00 1.724888e+00 1.820983e+00 2.542179e-02 -3.436863e-04 5.129544e-03
N -3.217109e+00 1.814558e+00 6.919916e+00 -4.955465e-03 2.695236e-03 -2.455799e-03
N -3.179649e+00 1.776415e+00 -3.329584e+00 5.243430e-03 -3.924102e-03 1.876713e-03
N -8.092087e-02 -3.669533e+00 1.819328e+00 4.710492e-04 6.235616e-03 3.451958e-03
N 1.120527e-02 -3.662248e+00 6.917652e+00 3.124647e-03 5.637055e-03 -6.628681e-03
N -3.113006e-02 -3.653523e+00 -3.329179e+00 -2.727466e-04 8.239312e-03 2.230625e-03
N -1.567557e+00 -9.216656e-01 1.770067e+00 8.535373e-03 4.577539e-03 2.429458e-03
N -1.587475e+00 -9.793376e-01 6.906852e+00 -1.075376e-03 -4.938815e-03 -7.219382e-03
N -1.572824e+00 -9.318853e-01 -3.357283e+00 2.553660e-03 5.089229e-03 -2.722270e-03
