108
Energy=-1489500.345683 Lattice="9.522156 0.000000 0.000000 -4.764174 8.244304 0.000000 -0.016331 0.003023 15.371763" Stress="0.000000 -0.000001 -0.000003 -0.000001 -0.000002 0.000001 -0.000003 0.000001 -0.000004" Properties=species:S:1:pos:R:3:forces:R:3
Al 1.567744 0.881502 2.414777 -0.000355 0.000010 0.000666
Al 1.553742 0.887559 7.513233 -0.000264 0.000557 -0.000524
Al 1.561677 0.894975 -2.693025 0.000391 0.000033 0.000176
Al -0.014421 3.618530 2.417075 0.000450 0.000023 0.000028
Al -0.019958 3.620756 7.525757 -0.000184 0.000150 0.000403
Al 0.011659 3.610892 -2.709709 0.000013 0.000098 0.000079
Al 3.141333 -1.863834 2.421609 0.000399 0.000143 0.000445
Al 3.144642 -1.869271 7.526705 0.000022 -0.000091 -0.000023
Ga 3.172264 -1.857870 -2.701228 -0.000027 0.000076 0.000122
Al -4.792168 0.889096 2.431238 -0.000214 0.000096 -0.000025
Ga -4.801461 0.884806 7.530458 0.000101 -0.000031 0.000127
Al -4.778367 0.873592 -2.720856 -0.000053 0.000058 0.000037
Al -6.401319 3.606294 2.422297 -0.000065 -0.000071 0.000405
Al -6.409548 3.613372 7.526391 -0.000266 -0.000260 0.000095
Al -6.393842 3.620536 -2.704709 -0.000049 -0.000020 0.000030
Ga -3.194193 -1.884119 2.419898 -0.000101 -0.000084 0.000202
Ga -3.209309 -1.887360 7.529748 -0.000003 0.000032 0.000166
Al -3.202074 -1.888909 -2.707798 0.000013 -0.000087 0.000081
Al -1.613630 0.879782 2.396134 -0.000010 0.000116 -0.000067
Al -1.610582 0.891106 7.537405 0.000171 -0.000061 0.000222
Ga -1.601591 0.892493 -2.693044 0.000184 -0.000059 0.000098
Ga -3.187189 3.606054 2.434791 -0.000079 0.000032 -0.000076
Ga -3.189302 3.618067 7.516518 0.000191 0.000049 0.000029
Ga -3.198584 3.605305 -2.697864 -0.000002 -0.000128 0.000036
Ga -0.020006 -1.845436 2.424743 -0.000162 0.000028 0.000186
Ga -0.025317 -1.851182 7.510460 0.000032 -0.000029 0.000035
Ga -0.022252 -1.865244 -2.680563 0.000079 -0.000158 0.000061
Ga -0.034622 1.791314 4.962012 0.000199 0.000015 -0.000014
Al -0.015800 1.802763 -5.294152 0.000127 0.000032 -0.000168
Al -0.020207 1.789213 -0.125422 -0.000204 -0.000080 0.000113
Al 3.161334 -3.695287 4.972256 0.000304 0.000014 0.000150
Ga 3.185298 -3.712062 -5.279038 -0.000037 0.000021 0.000003
Ga 3.174540 -3.716646 -0.135156 -0.000075 0.000116 -0.000120
Al 1.571443 -0.946894 4.972801 0.000272 0.000152 0.000243
Ga 1.581542 -0.936094 -5.282155 -0.000104 0.000001 -0.000024
Al 1.557705 -0.936108 -0.127103 -0.000145 0.000124 -0.000015
Al 3.138862 1.797265 4.961912 -0.000518 -0.000082 -0.000237
Ga 3.145541 1.794092 -5.259986 0.000096 -0.000011 0.000081
Ga 3.144565 1.790668 -0.148554 0.000044 -0.000064 -0.000073
Al 6.318299 -3.716658 4.974742 0.000222 -0.000214 -0.000399
Al 6.321371 -3.712359 -5.266391 0.000020 0.000095 -0.000042
Al 6.326018 -3.712085 -0.155632 0.000029 -0.000035 0.000478
Ga 4.724051 -0.952862 4.957036 -0.000095 -0.000048 0.000049
Al 4.752940 -0.958063 -5.267409 -0.000015 -0.000022 0.000044
Ga 4.754233 -0.948630 -0.128752 -0.000099 0.000034 0.000124
Al -3.195361 1.780738 4.964959 -0.000330 -0.000220 -0.000076
Al -3.184104 1.778756 -5.274343 0.000045 0.000026 0.000122
Al -3.190888 1.773216 -0.127679 0.000045 -0.000000 0.000045
Ga -0.043411 -3.709607 4.967422 -0.000083 -0.000123 -0.000025
Ga -0.031033 -3.715724 -5.275751 0.000014 -0.000031 0.000088
Ga -0.035594 -3.702392 -0.124209 -0.000056 -0.000021 -0.000122
Al -1.619207 -0.936003 4.976576 -0.000006 -0.000085 0.000107
Ga -1.623381 -0.940126 -5.264994 -0.000054 0.000002 0.000165
Al -1.613020 -0.947135 -0.149110 -0.000065 0.000024 0.000031
N 1.596487 0.853436 4.336389 0.000121 -0.000004 -0.000307
N 1.531898 0.905162 -5.945937 -0.000073 0.000034 0.000395
N 1.515594 0.857353 -0.770595 0.000202 -0.000092 -0.000158
N -0.026441 3.670809 4.334476 -0.000252 0.000049 0.000151
N 0.029551 3.601906 -5.922473 0.000031 -0.000027 -0.000274
N 0.025162 3.587971 -0.784181 -0.000033 0.000190 -0.000123
N 3.098680 -1.896407 4.336321 -0.000333 0.000266 -0.000509
N 3.200535 -1.848942 -5.925140 0.000044 0.000056 0.000002
N 3.114779 -1.845032 -0.732356 -0.000056 0.000010 -0.000031
N -4.791912 0.933050 4.347222 0.000543 0.000193 -0.000045
N -4.743185 0.855315 -5.857254 0.000072 -0.000038 -0.000064
N -4.739068 0.898714 -0.802981 0.000011 0.000035 -0.000118
N -6.431238 3.598488 4.333554 0.000004 0.000259 -0.000063
N -6.419046 3.642743 -5.928595 0.000064 0.000009 -0.000067
N -6.414563 3.646375 -0.797318 -0.000048 0.000025 -0.000027
N -3.155097 -1.901133 4.398336 0.000032 0.000014 -0.000170
N -3.231534 -1.903430 -5.859019 0.000005 -0.000101 -0.000090
N -3.158669 -1.901804 -0.776364 -0.000037 0.000027 -0.000154
N -1.656685 0.854023 4.314135 0.000035 0.000076 -0.000040
N -1.602816 0.926920 -5.910144 -0.000010 0.000032 -0.000135
N -1.604412 0.885639 -0.705075 -0.000046 0.000052 -0.000089
N -3.157579 3.600542 4.411066 0.000066 -0.000248 -0.000036
N -3.187921 3.576753 -5.876950 -0.000007 -0.000141 -0.000118
N -3.197485 3.572041 -0.723005 0.000042 -0.000015 0.000033
N -0.027856 -1.813473 4.405782 0.000106 -0.000074 -0.000043
N -0.019118 -1.864647 -5.893742 -0.000002 -0.000094 -0.000094
N -0.017988 -1.823336 -0.703880 -0.000005 -0.000005 -0.000039
N -0.021311 1.794037 1.809137 -0.000149 0.000048 -0.000010
N -0.036029 1.795594 6.950217 0.000240 -0.000419 0.000089
N 0.024376 1.814385 -3.360943 -0.000172 -0.000034 -0.000195
N 3.198748 -3.681900 1.839773 -0.000148 0.000161 -0.000053
N 3.197201 -3.675049 6.900078 0.000022 -0.000083 -0.000046
N 3.206829 -3.731245 -3.298621 -0.000098 0.000088 0.000016
N 1.605125 -0.923429 1.786556 0.000188 -0.000249 -0.000144
N 1.608086 -0.924367 6.893980 -0.000079 -0.000236 -0.000321
N 1.570832 -0.901546 -3.310808 -0.000095 0.000044 -0.000043
N 3.148183 1.790541 1.839445 0.000557 -0.000047 -0.000065
N 3.100753 1.817573 6.886238 0.000152 0.000148 0.000105
N 3.149828 1.790878 -3.266929 -0.000120 -0.000069 0.000034
N 6.323200 -3.754919 1.766020 -0.000213 0.000100 -0.000510
N 6.316189 -3.754354 6.885760 -0.000043 0.000004 0.000289
N 6.329238 -3.707218 -3.335902 0.000014 0.000061 -0.000006
N 4.700276 -0.927575 1.854356 -0.000268 -0.000059 -0.000059
N 4.690281 -0.974009 6.922734 -0.000015 -0.000037 -0.000057
N 4.787252 -0.935053 -3.342249 -0.000024 -0.000016 0.000012
N -3.206086 1.740971 1.785547 -0.000095 -0.000102 0.000150
N -3.162903 1.760670 6.874115 0.000012 0.000069 -0.000122
N -3.227577 1.764473 -3.367206 0.000004 -0.000041 -0.000058
N -0.068628 -3.728686 1.851048 0.000126 -0.000004 -0.000040
N -0.078010 -3.731176 6.938119 0.000104 0.000054 -0.000011
N -0.062829 -3.727345 -3.298092 -0.000002 -0.000016 -0.000008
N -1.616733 -0.911355 1.759427 -0.000022 0.000007 -0.000202
N -1.625718 -0.896007 6.889653 0.000072 0.000052 -0.000054
N -1.648454 -0.972461 -3.292810 -0.000169 0.000047 -0.000021
