108
Energy=-1.077521e+06 Lattice="9.474121e+00 0.000000e+00 0.000000e+00 -4.744436e+00 8.199381e+00 0.000000e+00 -7.382521e-04 3.379683e-04 1.527581e+01" Stress="9.394605e-04 -6.560701e-04 -2.026009e-04 -6.636198e-04 1.566099e-04 1.478640e-04 -1.990790e-04 1.462825e-04 3.509794e-03" Properties=species:S:1:pos:R:3:forces:R:3 Config_type=AlGaN_super3_14_2_10.xyz
Al 1.558569e+00 8.663468e-01 2.381989e+00 3.126346e-05 -2.094615e-04 -2.642840e-04
Al 1.547080e+00 8.559441e-01 7.494433e+00 6.618470e-04 -3.979449e-04 3.339773e-04
Al 1.552342e+00 8.539918e-01 -2.692079e+00 9.683975e-04 -3.063627e-04 3.293557e-04
Al -1.729177e-02 3.596512e+00 2.393691e+00 -7.563267e-04 1.097793e-03 -7.371064e-04
Al -2.780891e-02 3.602230e+00 7.499021e+00 2.981507e-04 2.812597e-04 4.342340e-04
Al -4.029829e-02 3.605499e+00 -2.693138e+00 4.017166e-04 -1.612032e-03 -6.895899e-04
Al 3.140888e+00 -1.848553e+00 2.388170e+00 -7.105505e-04 6.610688e-04 1.976406e-04
Al 3.138378e+00 -1.856867e+00 7.503923e+00 2.675724e-04 5.014180e-04 6.096863e-04
Al 3.133170e+00 -1.864013e+00 -2.708111e+00 -2.500478e-05 3.798964e-04 2.052164e-04
Al -4.781929e+00 8.632891e-01 2.393350e+00 5.347337e-04 -5.247779e-04 -1.402834e-04
Al -4.768300e+00 8.616470e-01 7.514071e+00 3.453505e-04 -1.239851e-03 -6.821801e-04
Al -4.776615e+00 8.642692e-01 -2.705061e+00 -2.934519e-04 -9.107655e-04 1.931165e-05
Al -6.339983e+00 3.601271e+00 2.358975e+00 -5.545531e-03 -2.140628e-03 5.802922e-03
Ga -6.349487e+00 3.605905e+00 7.521925e+00 -6.485411e-05 -4.057093e-05 -3.508713e-04
Ga -6.339924e+00 3.590100e+00 -2.707305e+00 -1.436769e-04 4.520785e-04 7.670294e-04
Ga -3.185002e+00 -1.872181e+00 2.411705e+00 -4.922132e-04 4.843125e-04 7.565146e-04
Al -3.181610e+00 -1.853635e+00 7.490614e+00 -3.303109e-04 3.241373e-04 6.254583e-04
Ga -3.184554e+00 -1.858733e+00 -2.715187e+00 -5.562670e-07 9.672481e-04 1.565306e-03
Ga -1.585149e+00 8.777668e-01 2.417800e+00 9.431709e-04 5.691259e-04 5.930134e-04
Al -1.602562e+00 8.701279e-01 7.491426e+00 6.171535e-04 -6.359062e-04 -1.275831e-03
Al -1.598144e+00 8.778346e-01 -2.703507e+00 9.381274e-04 -7.632831e-04 -2.328997e-04
Ga -3.197185e+00 3.630026e+00 2.385948e+00 2.333239e-03 -1.147869e-03 1.182020e-04
Al -3.177829e+00 3.617475e+00 7.521710e+00 4.439790e-04 -3.547819e-04 1.639555e-04
Al -3.175583e+00 3.622658e+00 -2.697055e+00 7.628824e-04 -4.415573e-04 -2.528207e-03
Al -3.470348e-03 -1.858116e+00 2.396124e+00 2.087410e-03 -2.683584e-04 2.625048e-03
Al -1.753887e-02 -1.842072e+00 7.507771e+00 7.355964e-04 1.113747e-04 7.677486e-04
Al 5.824815e-04 -1.855197e+00 -2.710073e+00 -2.180696e-04 8.933275e-04 -3.552506e-03
Al -1.182608e-02 1.780931e+00 4.962105e+00 6.121788e-04 -7.376506e-04 1.245008e-03
Ga -1.410041e-02 1.778898e+00 -5.241383e+00 1.999885e-04 3.975319e-04 1.435208e-03
Al -1.482320e-02 1.792227e+00 -1.667734e-01 2.027523e-03 1.813483e-04 -1.747352e-03
Ga 3.164502e+00 -3.673520e+00 4.964340e+00 -4.770454e-04 8.365182e-04 5.081675e-04
Al 3.145552e+00 -3.671626e+00 -5.245743e+00 -2.484849e-04 4.303072e-04 1.584750e-03
Al 3.145328e+00 -3.672654e+00 -1.632827e-01 3.152975e-03 1.858579e-03 -9.144934e-04
Al 1.559537e+00 -9.471309e-01 4.946443e+00 -1.174449e-03 4.519986e-04 1.198707e-03
Al 1.568399e+00 -9.614836e-01 -5.244736e+00 -1.025948e-03 8.832942e-04 1.675854e-03
Al 1.574389e+00 -9.553535e-01 -1.577787e-01 3.429282e-04 1.092390e-03 -2.326592e-03
Ga 3.116590e+00 1.769917e+00 4.939441e+00 4.324944e-04 1.292550e-03 -4.494342e-04
Al 3.125120e+00 1.769324e+00 -5.239802e+00 -2.455100e-04 -8.798594e-05 8.141809e-04
Al 3.115782e+00 1.782286e+00 -1.503351e-01 1.307756e-03 -3.835688e-03 1.605435e-04
Al 6.289366e+00 -3.678658e+00 4.957385e+00 2.427676e-03 -1.565408e-03 -1.688773e-03
Al 6.287881e+00 -3.674405e+00 -5.248409e+00 9.111133e-04 -5.301164e-04 3.801958e-05
Al 6.281582e+00 -3.698141e+00 -1.459436e-01 6.146048e-04 3.017772e-04 6.653288e-04
Al 4.713878e+00 -9.540407e-01 4.965188e+00 -6.009995e-05 -4.548989e-04 8.907387e-04
Al 4.708001e+00 -9.581087e-01 -5.255629e+00 1.282405e-05 -2.037701e-04 1.189244e-03
Al 4.698171e+00 -9.564228e-01 -1.603294e-01 -1.668759e-04 1.331938e-03 5.981435e-04
Ga -3.184523e+00 1.764842e+00 4.980523e+00 -8.269545e-04 2.864599e-04 4.098917e-04
Ga -3.197456e+00 1.783917e+00 -5.235460e+00 -1.065182e-05 2.745585e-04 8.507706e-04
Ga -3.197845e+00 1.792953e+00 -1.756449e-01 3.414696e-04 -2.024315e-03 5.901762e-04
Ga -3.281170e-02 -3.658715e+00 4.961996e+00 -1.296250e-03 -2.625888e-04 6.923435e-04
Al -1.654870e-02 -3.664369e+00 -5.235993e+00 -3.717319e-04 -2.278381e-04 -1.583959e-04
Al -1.245609e-02 -3.676411e+00 -1.639985e-01 -2.881795e-03 1.179638e-03 -1.335292e-03
Al -1.594022e+00 -9.539358e-01 4.969793e+00 6.771646e-04 -1.346201e-03 6.483287e-04
Al -1.597760e+00 -9.581434e-01 -5.251955e+00 7.242806e-05 -1.055456e-03 -2.410564e-04
Ga -1.575313e+00 -9.605295e-01 -1.606918e-01 -1.360612e-03 7.526735e-05 7.344788e-04
N 1.508625e+00 8.444333e-01 4.310429e+00 -5.519305e-04 -4.770746e-04 -1.993842e-03
N 1.587757e+00 8.414333e-01 -5.868042e+00 1.428756e-03 -8.061562e-04 -1.338228e-03
N 1.553632e+00 8.667059e-01 -7.655885e-01 7.993375e-05 -2.058096e-04 7.439976e-04
N 1.591189e-02 3.578641e+00 4.323395e+00 -1.502714e-04 -9.473371e-04 -2.246358e-03
N -2.487666e-02 3.643604e+00 -5.867058e+00 -6.473440e-04 9.780748e-04 -7.368749e-04
N -3.073735e-02 3.607716e+00 -7.739551e-01 7.114638e-05 1.692441e-04 8.538110e-04
N 3.140831e+00 -1.815269e+00 4.321751e+00 -2.304633e-04 8.275484e-04 -2.225246e-03
N 3.138567e+00 -1.862516e+00 -5.851167e+00 -5.182157e-04 -1.121966e-04 -5.838925e-04
N 3.140415e+00 -1.863946e+00 -7.792201e-01 -7.113189e-05 6.026912e-04 -3.296132e-04
N -4.763089e+00 8.212786e-01 4.308849e+00 3.578944e-04 -3.651843e-04 -1.838424e-03
N -4.806888e+00 8.461638e-01 -5.856939e+00 -1.122872e-05 -9.840120e-06 -6.041003e-04
N -4.815377e+00 8.500247e-01 -7.914497e-01 -4.550686e-05 -1.121114e-03 9.311692e-04
N -6.376887e+00 3.625105e+00 4.297146e+00 -2.118015e-03 1.870983e-03 -2.006818e-03
N -6.344145e+00 3.604475e+00 -5.783850e+00 2.396540e-04 9.555488e-05 2.770927e-03
N -6.345483e+00 3.599395e+00 -7.200202e-01 7.919006e-04 2.493655e-03 1.882023e-03
N -3.179903e+00 -1.857626e+00 4.403069e+00 -3.423007e-05 -2.279018e-04 -2.059538e-04
N -3.178402e+00 -1.859586e+00 -5.853550e+00 -1.706351e-04 3.264986e-04 -5.306391e-04
N -3.212839e+00 -1.886024e+00 -7.348704e-01 -1.247578e-03 -2.531648e-04 1.220883e-03
N -1.561026e+00 8.493336e-01 4.400124e+00 6.117392e-04 1.386306e-03 -1.713043e-03
N -1.607780e+00 8.303679e-01 -5.880237e+00 4.913166e-04 -4.743044e-04 -1.027174e-04
N -1.564729e+00 8.960903e-01 -7.961802e-01 1.532825e-05 -5.725954e-04 -3.900631e-04
N -3.183845e+00 3.609050e+00 4.352129e+00 4.365031e-04 5.417397e-05 -2.442261e-03
N -3.183896e+00 3.654968e+00 -5.843077e+00 1.987451e-04 5.497065e-04 -1.120874e-03
N -3.176616e+00 3.666398e+00 -7.833137e-01 -1.927382e-03 -1.560024e-03 1.382381e-03
N -1.800084e-02 -1.809080e+00 4.323398e+00 7.318633e-04 -1.379275e-04 -2.320320e-03
N -1.974248e-02 -1.850709e+00 -5.846789e+00 8.160867e-04 -7.973249e-04 -6.546665e-04
N 3.582785e-02 -1.883165e+00 -8.065555e-01 -1.088048e-03 -4.649164e-04 3.269420e-03
N 2.066632e-02 1.805351e+00 1.749590e+00 -1.056653e-03 2.940443e-04 2.061259e-03
N -1.994481e-02 1.783703e+00 6.892320e+00 6.288294e-05 2.035999e-04 -8.270220e-04
N -1.622103e-02 1.779509e+00 -3.265386e+00 -1.452470e-03 1.420333e-03 2.238675e-03
N 3.179820e+00 -3.649615e+00 1.759295e+00 1.906147e-03 -2.580073e-03 2.371116e-03
N 3.148170e+00 -3.680333e+00 6.940987e+00 -2.009938e-03 -2.938353e-04 4.868775e-04
N 3.144498e+00 -3.683176e+00 -3.315857e+00 -4.581790e-04 -1.763956e-04 2.739866e-04
N 1.565211e+00 -9.545919e-01 1.766959e+00 -1.041041e-03 -1.894616e-04 1.785609e-03
N 1.563535e+00 -9.575207e-01 6.881981e+00 -1.190954e-03 7.543525e-04 -1.903765e-03
N 1.566915e+00 -9.548957e-01 -3.319134e+00 -7.100550e-04 8.818362e-04 2.639139e-04
N 3.135104e+00 1.774156e+00 1.780211e+00 -7.564714e-04 1.206499e-03 4.065910e-04
N 3.129588e+00 1.738543e+00 6.913006e+00 -2.455424e-04 -6.741184e-04 3.956564e-04
N 3.124207e+00 1.729001e+00 -3.327424e+00 1.106169e-04 -7.854586e-04 -2.069733e-04
N 6.287513e+00 -3.729402e+00 1.778960e+00 1.572242e-03 -5.315380e-04 -4.257215e-03
N 6.257577e+00 -3.662635e+00 6.877348e+00 -3.669477e-04 5.023873e-06 -1.865010e-03
N 6.255220e+00 -3.710836e+00 -3.344217e+00 -1.272238e-03 -2.104023e-04 1.483238e-04
N 4.682926e+00 -9.297016e-01 1.765566e+00 -6.655292e-04 3.810880e-04 -1.970300e-03
N 4.713781e+00 -9.494839e-01 6.892947e+00 -4.921549e-04 4.559466e-04 -7.377864e-04
N 4.677101e+00 -9.323606e-01 -3.339270e+00 -1.200822e-03 7.419148e-04 -2.273256e-04
N -3.220225e+00 1.763079e+00 1.803218e+00 -7.916546e-04 -6.986248e-04 -1.422200e-03
N -3.193308e+00 1.787971e+00 6.960514e+00 2.963073e-04 4.125315e-04 4.352564e-04
N -3.190099e+00 1.785529e+00 -3.250310e+00 5.104856e-04 5.253739e-04 1.360719e-03
N -7.243400e-02 -3.654525e+00 1.753960e+00 4.212223e-03 2.924538e-03 -4.172614e-04
N 1.225668e-02 -3.652990e+00 6.934974e+00 1.456808e-03 -4.332717e-05 -8.124334e-05
N 1.898056e-02 -3.659472e+00 -3.321411e+00 6.488878e-04 1.497589e-04 -9.268886e-04
N -1.550775e+00 -9.746568e-01 1.811158e+00 -2.342341e-03 7.015673e-04 -1.758353e-03
N -1.597449e+00 -9.526069e-01 6.893205e+00 1.322794e-05 -1.845938e-04 -2.908055e-04
N -1.559047e+00 -9.276267e-01 -3.336836e+00 1.027517e-03 2.167263e-04 2.464134e-03
