108
Energy=-1626826.767787 Lattice="9.540111 0.000000 0.000000 -4.774821 8.256876 0.000000 0.003590 0.013464 15.420779" Stress="0.000001 -0.000002 0.000001 -0.000002 -0.000002 0.000003 0.000001 0.000003 0.000001" Properties=species:S:1:pos:R:3:forces:R:3
Al 1.569120 0.871085 2.439557 -0.000026 0.000159 0.000149
Al 1.565687 0.906976 7.526910 0.000041 0.000014 0.000001
Al 1.547109 0.871279 -2.702196 0.000063 0.000019 0.000043
Al -0.026777 3.634143 2.426373 0.000015 0.000141 0.000079
Al -0.014288 3.612866 7.549290 -0.000029 -0.000039 -0.000012
Al -0.038473 3.611608 -2.701842 -0.000006 0.000020 -0.000070
Al 3.153880 -1.871711 2.393816 0.000051 0.000033 0.000037
Ga 3.166542 -1.856934 7.570594 -0.000068 -0.000016 0.000013
Ga 3.146326 -1.880472 -2.692416 -0.000029 0.000026 -0.000009
Al -4.801426 0.873354 2.452280 0.000060 0.000006 0.000001
Al -4.794942 0.894783 7.542752 0.000006 0.000007 0.000014
Ga -4.792804 0.877243 -2.723019 0.000063 0.000022 -0.000036
Ga -6.382643 3.631462 2.436360 0.000051 0.000042 -0.000052
Al -6.378310 3.624439 7.543568 -0.000003 -0.000040 -0.000036
Ga -6.378575 3.629429 -2.708379 -0.000031 -0.000018 -0.000034
Al -3.194883 -1.867532 2.427811 -0.000047 -0.000000 0.000017
Ga -3.191360 -1.856028 7.567999 0.000011 0.000047 -0.000069
Ga -3.190078 -1.865581 -2.723839 -0.000003 0.000001 -0.000007
Ga -1.606057 0.866750 2.442835 0.000033 0.000155 0.000081
Al -1.604109 0.887880 7.527515 -0.000026 -0.000114 -0.000309
Al -1.599124 0.871686 -2.711240 0.000005 -0.000025 0.000099
Ga -3.204538 3.643390 2.430827 0.000017 0.000035 0.000016
Ga -3.215244 3.625645 7.548431 0.000001 -0.000088 -0.000008
Al -3.202337 3.635779 -2.706529 0.000023 -0.000016 0.000035
Al -0.023748 -1.867279 2.407789 0.000434 -0.000144 0.000267
Ga -0.034386 -1.864603 7.564071 -0.000046 -0.000097 0.000003
Al -0.025476 -1.868217 -2.708403 0.000272 0.000023 -0.000184
Al -0.021557 1.795737 4.991260 -0.000194 0.000047 0.000132
Ga -0.029545 1.778702 -5.286034 0.000004 0.000063 0.000098
Ga -0.024693 1.785017 -0.145308 0.000010 0.000059 -0.000096
Ga 3.159413 -3.717498 4.984940 -0.000078 0.000031 0.000032
Ga 3.159508 -3.716737 -5.273327 -0.000024 0.000082 -0.000001
Al 3.149428 -3.710469 -0.141916 -0.000556 -0.000163 0.000042
Ga 1.552062 -0.948496 4.968146 -0.000070 -0.000064 0.000049
Ga 1.555685 -0.958967 -5.276757 -0.000116 0.000054 0.000056
Al 1.547110 -0.967632 -0.134857 -0.000040 0.000051 0.000157
Al 3.162899 1.801665 4.997409 0.000101 0.000022 0.000156
Ga 3.157570 1.789102 -5.315180 0.000005 -0.000030 0.000001
Ga 3.148602 1.782743 -0.122861 0.000064 0.000018 0.000033
Ga 6.348515 -3.712535 4.993499 0.000024 0.000051 0.000011
Ga 6.345824 -3.709349 -5.299917 -0.000004 -0.000035 -0.000068
Ga 6.332735 -3.704094 -0.127407 0.000070 0.000069 0.000037
Ga 4.757301 -0.937302 4.965257 -0.000077 -0.000063 0.000031
Al 4.756348 -0.952275 -5.297440 -0.000065 -0.000045 -0.000028
Ga 4.748138 -0.963719 -0.101803 0.000000 0.000101 0.000006
Al -3.208524 1.792742 5.000247 0.000210 0.000080 0.000060
Ga -3.200468 1.779233 -5.294665 0.000040 -0.000069 0.000002
Ga -3.196313 1.801841 -0.149175 0.000040 0.000075 -0.000001
Al -0.028490 -3.702664 4.985837 0.000023 0.000052 -0.000038
Al -0.028185 -3.705055 -5.274904 0.000007 0.000000 0.000010
Al -0.005570 -3.684930 -0.153296 0.000073 -0.000071 0.000374
Al -1.602476 -0.949415 4.978590 0.000100 0.000075 0.000214
Al -1.609129 -0.955491 -5.282192 -0.000029 -0.000086 -0.000056
Al -1.591613 -0.966867 -0.141536 -0.000263 -0.000065 -0.000245
N 1.568955 0.932520 4.362823 -0.000137 -0.000039 -0.000436
N 1.559342 0.873674 -5.982368 0.000058 0.000024 -0.000028
N 1.566352 0.824590 -0.789619 -0.000061 0.000124 -0.000055
N -0.024719 3.584920 4.336788 0.000082 0.000053 -0.000048
N -0.027827 3.617263 -5.963425 -0.000053 -0.000040 0.000015
N -0.068843 3.650881 -0.788847 0.000257 -0.000063 -0.000121
N 3.153611 -1.874222 4.304369 0.000016 -0.000015 -0.000088
N 3.194809 -1.854935 -5.877914 -0.000022 -0.000038 0.000016
N 3.116496 -1.893348 -0.704039 0.000124 -0.000095 -0.000060
N -4.793758 0.938012 4.363741 -0.000040 -0.000092 -0.000070
N -4.791895 0.830879 -5.958399 0.000068 0.000050 0.000055
N -4.795633 0.870142 -0.763286 0.000034 0.000030 -0.000035
N -6.341397 3.608479 4.409006 -0.000059 0.000004 0.000011
N -6.336802 3.651565 -5.952116 0.000007 0.000006 0.000002
N -6.342909 3.651327 -0.730980 0.000046 0.000011 0.000011
N -3.152302 -1.848525 4.339573 -0.000012 0.000019 -0.000050
N -3.195090 -1.826032 -5.870040 0.000003 -0.000017 0.000074
N -3.161566 -1.846037 -0.746742 0.000164 0.000064 0.000160
N -1.611533 0.884608 4.428371 0.000061 -0.000356 -0.000024
N -1.610853 0.824640 -5.966043 0.000079 0.000040 0.000194
N -1.612310 0.822655 -0.793813 0.000055 0.000013 0.000044
N -3.249299 3.611009 4.411476 0.000078 -0.000144 0.000007
N -3.252297 3.650840 -5.894546 0.000005 -0.000094 -0.000006
N -3.207637 3.679342 -0.779767 0.000151 0.000137 0.000056
N -0.065121 -1.896813 4.332380 -0.000187 0.000151 0.000421
N -0.068351 -1.902885 -5.875775 0.000033 -0.000097 0.000050
N -0.024237 -1.872333 -0.773752 -0.000029 0.000001 0.000059
N 0.019288 1.816609 1.835158 0.000155 -0.000097 0.000174
N -0.021539 1.803449 6.919157 0.000010 0.000007 -0.000030
N -0.024365 1.790903 -3.288522 -0.000017 0.000048 0.000010
N 3.200544 -3.693829 1.782610 0.000063 0.000047 -0.000070
N 3.204716 -3.724087 6.956555 -0.000019 0.000033 -0.000036
N 3.160898 -3.759792 -3.294614 0.000031 0.000097 0.000010
N 1.558783 -0.950451 1.803845 -0.000147 0.000102 0.000030
N 1.566338 -0.906609 6.944912 -0.000105 -0.000002 -0.000033
N 1.524538 -0.934131 -3.295799 -0.000186 -0.000129 0.000087
N 3.154592 1.744136 1.851012 -0.000089 0.000024 -0.000023
N 3.160692 1.801436 6.931066 0.000032 -0.000008 0.000010
N 3.106479 1.768044 -3.335189 -0.000019 0.000006 0.000034
N 6.298121 -3.684684 1.851962 0.000058 0.000020 -0.000070
N 6.341664 -3.745842 6.979129 -0.000023 -0.000026 -0.000009
N 6.294775 -3.740662 -3.319501 0.000014 0.000021 0.000016
N 4.753758 -0.951876 1.879534 -0.000043 -0.000063 -0.000044
N 4.752465 -0.903716 6.936904 -0.000059 -0.000093 -0.000027
N 4.742171 -0.961495 -3.389209 -0.000072 -0.000017 0.000014
N -3.241578 1.771802 1.826377 -0.000006 0.000019 -0.000085
N -3.203112 1.752815 6.921470 0.000007 0.000032 0.000069
N -3.156599 1.817114 -3.302652 -0.000000 0.000014 -0.000026
N -0.017398 -3.658162 1.762403 -0.000022 -0.000148 -0.000517
N -0.061003 -3.716776 6.894688 0.000020 -0.000010 -0.000029
N 0.020143 -3.684512 -3.346908 -0.000055 0.000065 0.000076
N -1.607185 -1.000110 1.780621 -0.000363 0.000134 -0.000282
N -1.607954 -0.907157 6.889320 0.000077 -0.000101 -0.000448
N -1.565159 -0.930101 -3.359634 -0.000051 -0.000008 0.000048
