108
Energy=-711316.659856 Lattice="9.439769 0.000000 0.000000 -4.744525 8.161149 0.000000 -0.000479 0.005168 15.227596" Stress="0.000027 -0.000001 0.000003 -0.000001 0.000016 -0.000004 0.000003 -0.000004 0.000067" Properties=species:S:1:pos:R:3:forces:R:3
Al 1.545029 0.870242 2.391049 0.004047 -0.002860 -0.001564
Al 1.547565 0.864854 7.457997 0.000518 0.017220 0.007396
Al 1.544287 0.862467 -2.682542 0.002105 0.000013 0.000511
Al -0.031903 3.580861 2.380052 -0.001446 0.008219 -0.001897
Al -0.027673 3.579378 7.469047 0.001845 -0.001188 0.000905
Al -0.032220 3.570660 -2.695947 0.000225 0.001230 0.001877
Al 3.144899 -1.846146 2.393256 0.001197 0.018396 0.001398
Al 3.148254 -1.856627 7.474599 -0.000664 0.003712 0.000686
Al 3.137666 -1.864757 -2.682320 0.002529 -0.001735 0.002500
Al -4.747599 0.868261 2.399277 0.000120 -0.001449 -0.002802
Al -4.755889 0.871895 7.466436 -0.000389 -0.001644 0.000317
Al -4.759912 0.870203 -2.698102 0.001923 -0.001283 0.000718
Al -6.332451 3.587592 2.404016 -0.006456 -0.003423 -0.003932
Al -6.334168 3.580213 7.458748 -0.000307 0.000632 0.001014
Al -6.329710 3.572801 -2.681123 -0.000524 0.000151 0.001772
Al -3.154908 -1.850680 2.402985 -0.000930 -0.000752 -0.003868
Al -3.165772 -1.847248 7.463004 0.000680 -0.002361 0.001833
Ga -3.155638 -1.857304 -2.684052 0.000177 -0.000779 0.001145
Al -1.607138 0.878378 2.396901 0.001398 -0.002726 -0.001978
Al -1.620319 0.883570 7.464314 0.006196 -0.001023 0.000999
Al -1.610084 0.875463 -2.694215 0.001977 -0.001495 0.001530
Ga -3.209409 3.624784 2.346524 0.002890 -0.000833 0.000220
Al -3.183617 3.584740 7.473061 0.000590 0.000811 0.000273
Al -3.184215 3.586202 -2.680401 0.003005 -0.000629 -0.000028
Al -0.018059 -1.833529 2.410641 0.000536 -0.006296 -0.009613
Ga -0.022139 -1.830309 7.468932 0.004515 -0.000023 -0.000741
Al -0.012494 -1.847409 -2.667440 0.000394 -0.001557 0.000421
Al -0.021547 1.766233 4.922960 -0.002657 0.001196 0.002437
Al -0.027089 1.769151 -5.230444 -0.001819 -0.000290 0.001902
Al -0.026644 1.761457 -0.172936 -0.001970 0.000281 0.006151
Ga 3.140381 -3.659948 4.938350 -0.003121 -0.001562 -0.000938
Al 3.157229 -3.687210 -5.227298 -0.002826 0.001574 0.001704
Al 3.148090 -3.680002 -0.139275 -0.002320 0.005455 -0.016223
Al 1.575968 -0.930691 4.922235 -0.002792 0.000979 0.006872
Ga 1.575874 -0.953343 -5.204623 -0.001853 0.002806 -0.001149
Al 1.573521 -0.962964 -0.149257 -0.002956 0.000940 -0.000270
Al 3.117129 1.776611 4.930796 0.000389 0.000395 0.000432
Al 3.110076 1.770688 -5.233578 0.000886 -0.000862 0.002857
Al 3.116624 1.765534 -0.154627 0.000191 0.002266 0.002016
Al 6.288194 -3.667157 4.930016 -0.001027 0.001566 0.000181
Al 6.279077 -3.680808 -5.234663 0.000416 0.002630 0.001297
Al 6.283154 -3.680427 -0.137757 0.001873 0.000843 -0.000167
Al 4.714485 -0.939522 4.933661 -0.000337 0.000343 0.000236
Al 4.714867 -0.954144 -5.233307 -0.000586 0.002072 0.001186
Al 4.706922 -0.952657 -0.144853 -0.001463 0.001167 0.002086
Al -3.182549 1.758978 4.942437 -0.002595 0.011782 -0.003655
Al -3.176797 1.768904 -5.233288 -0.002423 -0.000065 0.002781
Al -3.185548 1.769034 -0.158850 -0.000400 -0.000294 -0.003847
Al -0.027370 -3.650632 4.942309 -0.002851 0.000991 0.000673
Ga -0.019918 -3.674756 -5.212570 -0.000261 -0.001014 0.001653
Al -0.017586 -3.668656 -0.151924 -0.003540 0.000636 -0.017024
Al -1.591962 -0.934398 4.927472 -0.002605 0.000425 -0.000198
Al -1.591387 -0.936059 -5.224998 -0.007799 0.002509 0.003444
Al -1.582706 -0.947265 -0.135616 -0.001212 0.001267 0.000687
N 1.545543 0.874014 4.319266 0.001333 -0.000453 -0.001053
N 1.541530 0.897388 -5.844351 0.000512 0.003537 -0.001838
N 1.544155 0.861004 -0.758176 0.001074 -0.001604 0.001554
N -0.009115 3.572820 4.310464 0.003768 -0.002898 -0.005265
N -0.028748 3.575510 -5.833748 -0.000032 -0.000225 -0.001446
N -0.029859 3.577775 -0.762344 -0.000244 -0.000725 0.001153
N 3.142429 -1.814575 4.311153 -0.000644 0.005638 -0.000620
N 3.167568 -1.879320 -5.839860 0.004340 -0.004302 -0.001853
N 3.142362 -1.865502 -0.758749 0.000539 0.001229 -0.001966
N -4.750319 0.871940 4.328622 0.001047 -0.000234 -0.000627
N -4.756512 0.866900 -5.837362 0.001748 -0.000790 -0.000007
N -4.756983 0.863430 -0.771687 0.001336 -0.001553 0.001553
N -6.329159 3.592267 4.330065 0.000635 0.000649 -0.001870
N -6.356647 3.564610 -5.847980 -0.004619 -0.002062 -0.004199
N -6.332928 3.579047 -0.760117 -0.001262 -0.000836 -0.001651
N -3.159325 -1.849694 4.325896 0.000424 -0.000877 0.000610
N -3.156869 -1.856295 -5.832649 0.000655 -0.001048 -0.001137
N -3.157876 -1.858579 -0.716403 0.000598 -0.000333 0.007012
N -1.615115 0.879992 4.326608 0.002781 0.000604 -0.001651
N -1.612844 0.874597 -5.836093 0.003222 -0.001167 -0.000985
N -1.615233 0.869777 -0.763047 0.003417 -0.002025 -0.000167
N -3.245232 3.622970 4.313882 0.005880 -0.016955 0.007200
N -3.159760 3.573704 -5.838766 0.006567 -0.002738 -0.002623
N -3.185696 3.587701 -0.757329 0.002867 -0.000572 0.002270
N -0.017523 -1.833165 4.335388 0.002633 -0.001868 -0.000220
N -0.061564 -1.828227 -5.808612 0.003837 -0.000134 -0.000113
N -0.020169 -1.849069 -0.751590 0.002303 0.000312 0.000900
N -0.022739 1.765061 1.795882 -0.004867 0.003969 -0.007118
N -0.024692 1.766953 6.854492 -0.003495 0.001692 -0.001131
N -0.024444 1.760845 -3.296721 -0.001529 0.000228 -0.000928
N 3.155253 -3.545081 1.720617 0.007659 -0.038746 0.015408
N 3.144883 -3.672707 6.900052 -0.003301 0.001278 0.005263
N 3.145309 -3.680694 -3.297685 -0.002142 0.000597 -0.000315
N 1.574437 -0.956933 1.786095 -0.006602 0.004078 0.001705
N 1.607820 -0.874264 6.896350 0.001609 -0.024906 -0.020903
N 1.573377 -0.960693 -3.245962 -0.003270 0.002027 0.005824
N 3.122505 1.774060 1.787187 -0.001434 -0.001242 0.000512
N 3.115318 1.773800 6.855189 0.001505 0.001109 -0.002012
N 3.113697 1.768765 -3.300659 -0.000798 -0.000458 -0.001346
N 6.287060 -3.665829 1.789540 -0.003338 -0.001906 0.001807
N 6.282300 -3.666931 6.858067 -0.000283 0.000904 -0.000852
N 6.286153 -3.707547 -3.311423 -0.000475 -0.005660 -0.003012
N 4.716733 -0.946921 1.793509 -0.000148 0.004167 -0.000878
N 4.711033 -0.948291 6.861720 -0.001235 0.001788 -0.001769
N 4.683829 -0.939145 -3.311362 -0.006592 0.004212 -0.002966
N -3.173445 1.749840 1.750790 -0.000258 -0.002446 0.003957
N -3.182247 1.776308 6.865461 -0.001251 0.001577 -0.002812
N -3.181582 1.773503 -3.302024 -0.000481 0.000186 -0.000102
N -0.103567 -3.668872 1.694565 0.010134 0.016049 0.026756
N -0.011486 -3.686960 6.858300 0.000568 -0.005342 -0.003097
N -0.013635 -3.670169 -3.250625 -0.000058 0.000953 0.007041
N -1.581854 -0.940422 1.799586 -0.001341 0.002297 0.000505
N -1.619033 -0.921350 6.845897 -0.007229 0.004298 -0.004182
N -1.554497 -0.931292 -3.304552 0.003441 0.004363 -0.002530
