108
Energy=-1.169072e+06 Lattice="9.483732e+00 0.000000e+00 0.000000e+00 -4.749295e+00 8.208627e+00 0.000000e+00 9.011552e-03 1.040001e-02 1.528037e+01" Stress="-4.594935e-04 -5.786425e-04 4.785717e-04 -5.713998e-04 -1.285949e-03 4.498986e-04 4.802109e-04 4.516887e-04 7.241867e-04" Properties=species:S:1:pos:R:3:forces:R:3 Config_type=AlGaN_super3_16_2_12.xyz
Al 1.555256e+00 8.745423e-01 2.387601e+00 -7.211140e-05 -1.725428e-04 7.737993e-05
Al 1.564259e+00 8.750010e-01 7.476953e+00 1.695842e-03 -7.102986e-04 1.391746e-03
Al 1.553077e+00 8.536637e-01 -2.682521e+00 -6.541603e-04 8.198772e-04 2.654314e-04
Al -1.595909e-02 3.594990e+00 2.417059e+00 -6.729303e-06 -7.762942e-04 1.466173e-03
Al -2.926934e-02 3.619748e+00 7.456426e+00 3.446732e-04 5.844813e-04 6.462451e-04
Al -3.326985e-02 3.599367e+00 -2.680412e+00 -2.350026e-05 1.149286e-04 8.263467e-05
Al 3.138772e+00 -1.855400e+00 2.412990e+00 8.268746e-04 1.673664e-03 1.580617e-03
Al 3.149899e+00 -1.863985e+00 7.485720e+00 -7.132122e-04 1.203529e-03 -7.718694e-05
Al 3.134922e+00 -1.866791e+00 -2.715467e+00 1.564662e-04 1.529341e-03 1.054654e-03
Al -4.780638e+00 8.683005e-01 2.417248e+00 -2.701622e-03 -2.192479e-03 1.943870e-03
Al -4.775173e+00 8.693389e-01 7.466880e+00 2.898941e-04 1.302611e-04 8.988703e-04
Ga -4.787066e+00 8.558316e-01 -2.693303e+00 4.139641e-04 2.788024e-04 7.016824e-04
Al -6.359395e+00 3.599950e+00 2.422252e+00 -1.524851e-03 -2.886845e-04 1.406337e-03
Ga -6.344775e+00 3.606951e+00 7.461064e+00 -1.932745e-05 1.396824e-04 2.666599e-04
Ga -6.363777e+00 3.594387e+00 -2.685612e+00 8.685041e-05 -1.174884e-04 2.344415e-04
Ga -3.181553e+00 -1.860492e+00 2.406441e+00 -1.083885e-03 4.456378e-05 6.474262e-04
Al -3.180743e+00 -1.849078e+00 7.465868e+00 1.501584e-04 1.780609e-05 2.388467e-04
Ga -3.182935e+00 -1.856185e+00 -2.681070e+00 7.537514e-05 8.412233e-05 7.882989e-04
Al -1.584026e+00 8.721522e-01 2.417514e+00 -8.249536e-04 -1.186260e-04 1.766196e-03
Ga -1.596978e+00 8.780891e-01 7.460651e+00 6.517821e-04 -1.039605e-03 8.679538e-04
Al -1.585250e+00 8.668017e-01 -2.685757e+00 5.321052e-05 -5.867301e-04 -8.158620e-05
Ga -3.191780e+00 3.610214e+00 2.449458e+00 1.077979e-03 9.124539e-05 7.004627e-05
Al -3.172449e+00 3.629431e+00 7.452500e+00 -3.870185e-04 -6.931243e-04 1.158234e-04
Ga -3.170489e+00 3.621804e+00 -2.688521e+00 2.706957e-04 -4.234965e-04 -2.920894e-04
Al -1.891324e-02 -1.847349e+00 2.396095e+00 1.513835e-03 1.141752e-03 4.983797e-03
Al -1.450972e-02 -1.852316e+00 7.484414e+00 2.264341e-04 7.196654e-04 8.921414e-05
Al -9.905345e-03 -1.833891e+00 -2.696364e+00 1.307527e-04 1.321977e-04 7.363275e-04
Al -1.730115e-02 1.796096e+00 4.930524e+00 -9.588585e-05 8.635761e-05 1.055068e-03
Ga -1.181431e-02 1.777754e+00 -5.239887e+00 -4.910892e-05 1.916389e-04 9.325098e-04
Al -1.746830e-02 1.770337e+00 -1.462672e-01 2.190127e-03 1.632906e-03 -3.622476e-04
Al 3.158075e+00 -3.684869e+00 4.947715e+00 -1.827856e-04 1.783878e-04 4.299507e-04
Al 3.147488e+00 -3.676235e+00 -5.265293e+00 9.160074e-04 1.276559e-04 1.740905e-03
Ga 3.169826e+00 -3.678100e+00 -1.212031e-01 7.717646e-05 1.322951e-03 -8.376224e-04
Ga 1.562366e+00 -9.474885e-01 4.943175e+00 -8.213557e-04 2.134939e-04 1.459284e-03
Al 1.570457e+00 -9.547921e-01 -5.261241e+00 -3.761707e-04 6.250035e-04 6.358486e-04
Al 1.566823e+00 -9.428037e-01 -1.444146e-01 1.994340e-04 1.975283e-04 -4.655047e-04
Al 3.136939e+00 1.786996e+00 4.926693e+00 2.537447e-04 -1.220810e-04 5.550698e-04
Al 3.128958e+00 1.757193e+00 -5.264713e+00 -1.539485e-04 -2.434627e-04 1.198964e-03
Al 3.117650e+00 1.772204e+00 -1.113587e-01 -1.548085e-04 -2.403064e-04 -1.320785e-03
Al 6.299428e+00 -3.684543e+00 4.945911e+00 3.469858e-04 -2.308830e-04 -1.835381e-04
Ga 6.284183e+00 -3.679180e+00 -5.263302e+00 3.714869e-04 1.352332e-04 8.314585e-04
Al 6.296470e+00 -3.699921e+00 -1.216572e-01 -3.257757e-04 3.585063e-04 -1.125490e-03
Al 4.726321e+00 -9.450401e-01 4.955614e+00 -7.313324e-04 2.112960e-04 3.375757e-04
Al 4.711227e+00 -9.560447e-01 -5.279000e+00 -1.499164e-04 -4.032700e-04 3.997225e-04
Al 4.709363e+00 -9.541917e-01 -1.277241e-01 -8.099456e-04 -6.448999e-04 -2.907706e-04
Al -3.191544e+00 1.778426e+00 4.943515e+00 -2.473891e-04 8.102224e-04 9.940833e-05
Ga -3.195826e+00 1.777576e+00 -5.263048e+00 -3.583030e-04 -7.513555e-05 2.053739e-04
Ga -3.185349e+00 1.755510e+00 -1.138012e-01 -8.196200e-05 2.369836e-04 -5.681123e-04
Al -2.729696e-02 -3.678395e+00 4.944788e+00 -9.987207e-04 1.288998e-03 8.038131e-04
Ga -1.051980e-02 -3.671031e+00 -5.258229e+00 -4.456877e-04 -4.596921e-05 2.648830e-04
Ga -4.142762e-02 -3.667897e+00 -1.177713e-01 1.856644e-04 -2.355725e-04 -1.278132e-03
Al -1.600263e+00 -9.495303e-01 4.938776e+00 -3.932010e-04 4.051880e-05 4.775363e-04
Al -1.600728e+00 -9.566892e-01 -5.248743e+00 -2.962008e-05 -4.095294e-04 5.328451e-04
Al -1.589743e+00 -9.431543e-01 -1.346128e-01 -6.477533e-04 -4.946582e-04 -6.820556e-04
N 1.554133e+00 9.194744e-01 4.302426e+00 5.324503e-04 3.278682e-04 -1.424711e-03
N 1.590847e+00 8.449459e-01 -5.884973e+00 2.347742e-04 4.428622e-05 -8.542059e-04
N 1.559250e+00 8.667565e-01 -7.468191e-01 3.869781e-04 2.570740e-04 -1.030051e-04
N -2.116309e-02 3.611230e+00 4.335545e+00 -5.149731e-04 -4.149672e-04 4.428533e-05
N -7.074131e-02 3.621604e+00 -5.914185e+00 -5.881591e-04 1.455824e-04 3.862027e-04
N 1.299603e-02 3.580339e+00 -7.655123e-01 1.157255e-04 -3.490468e-04 6.150295e-04
N 3.184681e+00 -1.878416e+00 4.328797e+00 8.663109e-05 -4.182271e-04 -1.086971e-03
N 3.139886e+00 -1.869560e+00 -5.869630e+00 -3.431113e-04 -7.075374e-05 -1.332233e-04
N 3.140861e+00 -1.821490e+00 -7.841583e-01 1.540345e-04 5.290012e-04 -7.161785e-04
N -4.770173e+00 8.698740e-01 4.337688e+00 2.050429e-04 -1.007218e-04 -1.349275e-04
N -4.811892e+00 8.465711e-01 -5.891400e+00 2.557986e-04 1.959671e-04 -1.028162e-03
N -4.817404e+00 8.467846e-01 -7.151680e-01 3.667820e-04 2.468107e-04 1.301754e-04
N -6.351982e+00 3.612448e+00 4.349027e+00 -1.900533e-04 -5.652856e-05 -4.056429e-04
N -6.350451e+00 3.559256e+00 -5.847206e+00 6.026109e-05 -3.319785e-04 -6.762143e-04
N -6.391371e+00 3.576211e+00 -7.094145e-01 -1.136225e-04 5.168013e-05 6.495483e-04
N -3.183554e+00 -1.857841e+00 4.385962e+00 3.253317e-04 1.978618e-04 -3.977739e-04
N -3.178515e+00 -1.814807e+00 -5.888100e+00 -3.277706e-05 5.977494e-04 -8.219774e-04
N -3.182081e+00 -1.862704e+00 -6.847137e-01 5.204316e-04 2.077301e-04 7.219127e-04
N -1.599193e+00 8.770861e-01 4.346031e+00 2.653813e-04 2.384811e-04 -1.968297e-04
N -1.601753e+00 8.253678e-01 -5.853560e+00 -4.681905e-05 2.893449e-04 -2.887823e-04
N -1.563329e+00 8.502334e-01 -7.644994e-01 -1.244791e-03 -1.083319e-03 -9.887564e-04
N -3.190748e+00 3.617859e+00 4.420738e+00 2.024923e-03 -1.197159e-03 -1.632746e-03
N -3.144669e+00 3.634382e+00 -5.905017e+00 -4.418424e-04 -4.042731e-04 -7.784108e-04
N -3.186772e+00 3.610142e+00 -7.255023e-01 -1.850869e-04 -5.977081e-04 9.747965e-04
N -6.062311e-02 -1.872894e+00 4.314655e+00 1.056906e-03 -1.412230e-03 -1.972819e-03
N -2.254284e-02 -1.809355e+00 -5.879268e+00 -1.158422e-04 -4.863750e-04 -4.759037e-04
N -1.593003e-02 -1.808542e+00 -7.717960e-01 -3.464888e-04 -9.387540e-05 1.267567e-05
N -2.549055e-02 1.785655e+00 1.783295e+00 -5.749258e-04 -3.924407e-04 1.207086e-03
N 3.168187e-02 1.812856e+00 6.850287e+00 -1.763992e-03 3.491267e-04 -2.206350e-03
N -1.826297e-02 1.783037e+00 -3.251005e+00 4.497165e-04 -5.100179e-04 3.920787e-04
N 3.188327e+00 -3.667595e+00 1.852616e+00 -1.150847e-03 1.138751e-04 -1.210944e-03
N 3.153613e+00 -3.676825e+00 6.863090e+00 -1.329251e-04 6.860948e-04 -4.038212e-04
N 3.189724e+00 -3.665081e+00 -3.328550e+00 6.569857e-05 -1.414102e-03 -2.854039e-03
N 1.565112e+00 -9.549970e-01 1.789300e+00 -4.767539e-04 -2.349269e-05 1.615187e-04
N 1.562296e+00 -9.445677e-01 6.923998e+00 1.750228e-03 -1.581188e-03 -2.494742e-04
N 1.564909e+00 -9.546309e-01 -3.319746e+00 -5.991478e-04 7.051377e-04 -8.444260e-04
N 3.137113e+00 1.785907e+00 1.806818e+00 -1.064456e-04 1.219214e-04 1.274359e-03
N 3.136303e+00 1.737782e+00 6.839411e+00 9.103694e-05 -1.794526e-04 -1.184556e-03
N 3.088557e+00 1.752829e+00 -3.350370e+00 -2.547415e-04 -2.835409e-04 -1.315184e-04
N 6.295638e+00 -3.738031e+00 1.795431e+00 2.290892e-03 3.243444e-04 -7.162596e-04
N 6.266927e+00 -3.656943e+00 6.858453e+00 -2.899793e-04 2.122603e-04 -5.004902e-04
N 6.256481e+00 -3.707895e+00 -3.291569e+00 -1.679772e-04 8.344882e-05 -6.290194e-04
N 4.675972e+00 -9.285714e-01 1.785693e+00 -4.010202e-05 -2.868453e-04 -3.483213e-04
N 4.721827e+00 -9.455007e-01 6.877742e+00 -4.023397e-04 -6.741242e-04 -7.174928e-04
N 4.684503e+00 -9.806707e-01 -3.361080e+00 -3.742593e-04 -1.575193e-04 -4.347672e-04
N -3.193347e+00 1.730556e+00 1.865050e+00 4.310421e-03 1.184498e-03 -1.837498e-03
N -3.226417e+00 1.809561e+00 6.860045e+00 -4.362647e-04 1.346318e-04 -4.759261e-04
N -3.151064e+00 1.758668e+00 -3.285898e+00 3.535576e-04 -3.681505e-04 5.712791e-05
N -6.357577e-02 -3.659314e+00 1.856247e+00 -2.198408e-04 -1.114052e-03 -1.843570e-03
N 2.119821e-02 -3.649983e+00 6.859378e+00 1.693239e-04 2.061756e-04 1.432014e-04
N -2.270575e-02 -3.634749e+00 -3.282538e+00 -1.396913e-04 -4.981539e-04 -1.095103e-04
N -1.556914e+00 -9.244064e-01 1.784061e+00 -9.997788e-04 1.278336e-03 -1.809249e-03
N -1.590620e+00 -9.931222e-01 6.846265e+00 -9.176695e-04 -2.938763e-04 -1.921518e-04
N -1.562921e+00 -9.297971e-01 -3.323280e+00 -3.014492e-04 -3.363546e-05 -6.691408e-04
