108
Energy=-2.816990e+06 Lattice="9.703662e+00 0.000000e+00 0.000000e+00 -4.858575e+00 8.387963e+00 0.000000e+00 -5.881347e-02 -2.046404e-02 1.577028e+01" Stress="1.990268e-03 3.165202e-04 -2.388649e-03 3.149817e-04 5.114527e-04 -8.896166e-04 -2.396052e-03 -8.908717e-04 4.024265e-03" Properties=species:S:1:pos:R:3:forces:R:3 Config_type=AlGaN_super3_52_2_8.xyz
Al 1.590376e+00 8.826200e-01 2.473064e+00 9.658016e-04 2.141454e-03 1.780131e-03
Ga 1.560779e+00 8.783210e-01 7.735305e+00 1.119170e-03 7.673405e-05 1.000836e-03
Ga 1.598923e+00 8.959157e-01 -2.775018e+00 1.037414e-03 9.922994e-05 6.796396e-04
Ga -1.981521e-02 3.673103e+00 2.473742e+00 7.800460e-04 6.153050e-04 6.081830e-04
Ga -5.328290e-02 3.671704e+00 7.737347e+00 6.807912e-04 1.978367e-04 7.372689e-04
Ga -1.441201e-02 3.698948e+00 -2.772234e+00 6.812611e-04 -1.502408e-04 4.456713e-04
Ga 3.216265e+00 -1.899871e+00 2.479967e+00 4.721105e-04 -1.047426e-04 -2.585853e-04
Ga 3.186903e+00 -1.914724e+00 7.737514e+00 7.773985e-04 -3.258754e-04 8.532995e-04
Ga 3.231264e+00 -1.898212e+00 -2.774337e+00 5.750968e-04 -1.666533e-04 6.160095e-04
Ga -4.884747e+00 8.857219e-01 2.479642e+00 3.133677e-04 3.670622e-04 -5.986305e-04
Ga -4.909478e+00 8.804428e-01 7.739206e+00 5.823229e-04 -3.487189e-05 2.884380e-04
Ga -4.867598e+00 8.925172e-01 -2.772705e+00 5.151844e-04 -2.548165e-05 2.243279e-04
Ga -6.498178e+00 3.677113e+00 2.478759e+00 1.554504e-05 1.770101e-04 -5.170732e-04
Ga -6.525507e+00 3.675578e+00 7.738586e+00 1.476401e-04 2.960691e-05 3.904307e-04
Ga -6.492145e+00 3.701946e+00 -2.773460e+00 1.989300e-04 -2.210941e-04 2.530164e-04
Ga -3.250667e+00 -1.906204e+00 2.483762e+00 1.627305e-04 -4.111111e-04 -4.406424e-04
Ga -3.282125e+00 -1.913445e+00 7.738155e+00 3.159217e-04 -4.724924e-04 9.204033e-04
Al -3.247303e+00 -1.896320e+00 -2.782778e+00 5.788189e-04 -2.766174e-04 1.040270e-03
Ga -1.636476e+00 8.888402e-01 2.481105e+00 9.600303e-05 -5.256157e-04 -1.150460e-03
Ga -1.673126e+00 8.832492e-01 7.740206e+00 1.024622e-03 -3.533004e-04 1.981019e-04
Ga -1.643459e+00 8.947231e-01 -2.768806e+00 1.295980e-03 -4.494436e-04 1.190314e-03
Ga -3.259983e+00 3.686494e+00 2.487004e+00 2.002200e-04 -1.806161e-04 -6.788323e-04
Ga -3.291673e+00 3.679226e+00 7.739574e+00 5.494644e-04 -2.913200e-04 1.312175e-04
Ga -3.255463e+00 3.697551e+00 -2.772673e+00 5.336248e-04 -3.884623e-04 2.748186e-04
Ga -1.569627e-02 -1.895069e+00 2.481178e+00 4.686491e-04 -4.794818e-04 -7.012296e-04
Ga -4.972804e-02 -1.909103e+00 7.739490e+00 7.172092e-04 -6.960996e-04 4.629216e-04
Ga -2.206705e-02 -1.892564e+00 -2.772153e+00 9.445745e-04 -5.233557e-04 3.103187e-04
Ga -3.532092e-02 1.805147e+00 5.092644e+00 5.395816e-04 1.214626e-03 1.377749e-03
Ga -3.472630e-03 1.827383e+00 -5.400724e+00 -3.927805e-04 9.730659e-04 7.208180e-04
Ga -2.250629e-02 1.819035e+00 -1.362033e-01 -2.417774e-03 2.935138e-04 -5.179989e-04
Ga 3.201422e+00 -3.780835e+00 5.110511e+00 2.657871e-04 7.150905e-04 2.786486e-04
Ga 3.238194e+00 -3.762397e+00 -5.401333e+00 -2.551941e-04 4.658586e-04 3.414540e-04
Ga 3.203060e+00 -3.770182e+00 -1.425123e-01 7.836388e-04 6.544553e-04 -1.250921e-03
Ga 1.584342e+00 -9.787978e-01 5.098436e+00 -3.532407e-04 1.351144e-03 2.694241e-04
Ga 1.621707e+00 -9.664603e-01 -5.400412e+00 -6.816187e-04 5.944761e-04 2.389903e-05
Ga 1.587939e+00 -9.690050e-01 -1.341342e-01 4.918756e-04 4.266560e-04 -3.881604e-04
Ga 3.184679e+00 1.807922e+00 5.094576e+00 -2.181156e-04 5.412669e-04 8.998956e-04
Ga 3.227909e+00 1.830038e+00 -5.403100e+00 -9.502094e-05 5.965966e-04 6.273836e-04
Ga 3.190992e+00 1.821134e+00 -1.366884e-01 1.774968e-03 7.317909e-04 -4.106545e-04
Ga 6.432708e+00 -3.778438e+00 5.109408e+00 1.671644e-04 9.937852e-05 3.825066e-04
Ga 6.470073e+00 -3.754988e+00 -5.392732e+00 -2.396680e-05 -1.181508e-04 5.144588e-04
Ga 6.435497e+00 -3.757476e+00 -1.601213e-01 1.772801e-03 6.059039e-04 -4.909478e-07
Ga 4.817208e+00 -9.832065e-01 5.111211e+00 -2.947770e-04 4.988822e-04 2.801776e-04
Ga 4.858523e+00 -9.672390e-01 -5.391431e+00 -6.942832e-04 4.063792e-04 2.686440e-04
Ga 4.826800e+00 -9.766339e-01 -1.574966e-01 1.080929e-03 5.092013e-04 -1.003043e-03
Ga -3.277028e+00 1.813865e+00 5.108613e+00 -5.457969e-04 6.380707e-04 8.805806e-04
Ga -3.240279e+00 1.833238e+00 -5.403412e+00 -6.071096e-04 4.720561e-04 1.204640e-03
Ga -3.276759e+00 1.829361e+00 -1.416385e-01 1.645873e-03 -2.166129e-04 -1.310266e-03
Ga -3.661446e-02 -3.774853e+00 5.109342e+00 -3.220197e-04 2.022109e-04 6.259193e-04
Ga 1.062527e-03 -3.756468e+00 -5.402206e+00 -4.155247e-04 -2.737723e-05 7.340895e-04
Ga -3.257784e-02 -3.764266e+00 -1.435348e-01 8.963946e-04 2.449021e-04 -1.109122e-03
Ga -1.652282e+00 -9.791278e-01 5.110862e+00 -4.962054e-04 5.757332e-05 5.243646e-04
Ga -1.619224e+00 -9.638736e-01 -5.391908e+00 -6.905659e-04 2.564649e-04 7.592938e-04
Ga -1.658306e+00 -9.764326e-01 -1.562057e-01 3.779644e-04 1.467102e-03 -7.993819e-04
N 1.575214e+00 8.808258e-01 4.406437e+00 7.357392e-04 -2.376079e-04 -1.117414e-03
N 1.611370e+00 8.994116e-01 -6.047150e+00 7.189340e-04 -2.330353e-04 -5.203081e-04
N 1.584546e+00 8.924841e-01 -7.918976e-01 4.235189e-04 -6.077911e-04 -1.925486e-05
N -4.039888e-02 3.678359e+00 4.463938e+00 2.675313e-04 -2.879499e-04 -8.530935e-04
N -1.978009e-03 3.696005e+00 -6.041910e+00 3.274302e-04 -3.208362e-04 -5.834788e-04
N -3.523843e-02 3.687686e+00 -7.835490e-01 -5.020502e-05 -5.355164e-04 -4.031732e-04
N 3.201759e+00 -1.912500e+00 4.466000e+00 4.610645e-04 -5.454491e-04 -3.397274e-04
N 3.238958e+00 -1.893405e+00 -6.042695e+00 4.272629e-04 -4.016082e-04 -3.289544e-04
N 3.202354e+00 -1.900750e+00 -7.877420e-01 3.376152e-04 -6.155583e-04 6.536872e-04
N -4.893358e+00 8.826611e-01 4.465791e+00 5.378245e-04 -8.849086e-05 -5.735428e-04
N -4.857686e+00 8.993076e-01 -6.041791e+00 3.911659e-04 -1.662239e-04 -5.790000e-04
N -4.891239e+00 8.965549e-01 -7.866091e-01 5.085639e-04 -6.452242e-05 3.338536e-04
N -6.510185e+00 3.680692e+00 4.465902e+00 5.207090e-05 -1.148824e-04 -6.268661e-04
N -6.475318e+00 3.698987e+00 -6.041459e+00 -9.948377e-05 -2.559732e-04 -6.555491e-04
N -6.505397e+00 3.689462e+00 -7.863970e-01 1.508103e-04 -2.342138e-04 1.810578e-04
N -3.268188e+00 -1.910222e+00 4.468585e+00 1.986898e-04 -3.880574e-04 -4.182611e-04
N -3.232012e+00 -1.892496e+00 -6.046715e+00 2.252874e-04 -4.268696e-04 -2.903900e-04
N -3.265788e+00 -1.899395e+00 -8.564468e-01 4.716620e-04 -4.519808e-04 1.055054e-03
N -1.660510e+00 8.860284e-01 4.466077e+00 2.788209e-04 -6.156267e-04 -7.704424e-04
N -1.623290e+00 9.030224e-01 -6.041084e+00 5.794308e-04 -7.342023e-04 -7.152524e-04
N -1.653358e+00 9.005757e-01 -7.772386e-01 1.066805e-03 -4.684157e-04 -1.627756e-03
N -3.275963e+00 3.683852e+00 4.471396e+00 -6.474919e-05 -8.000250e-04 -6.834366e-04
N -3.239989e+00 3.701634e+00 -6.044618e+00 4.670971e-05 -6.812368e-04 -6.303627e-04
N -3.272333e+00 3.695512e+00 -7.885843e-01 1.335474e-05 -6.349439e-04 1.308237e-04
N -3.570409e-02 -1.906471e+00 4.466529e+00 9.889789e-05 -9.794359e-04 -4.324343e-04
N -5.177095e-04 -1.887462e+00 -6.041571e+00 2.091578e-04 -7.753757e-04 -5.651903e-04
N -2.893924e-02 -1.894237e+00 -7.855636e-01 5.413541e-04 -1.063953e-03 3.166743e-04
N 1.438345e-02 1.788983e+00 1.853448e+00 1.667193e-03 6.575707e-04 1.131268e-03
N -4.907304e-02 1.805449e+00 7.086714e+00 -8.175973e-04 7.388495e-04 -7.615498e-04
N -1.465887e-02 1.826207e+00 -3.413048e+00 -1.179904e-03 4.897378e-04 -7.128013e-04
N 3.220681e+00 -3.772059e+00 1.838844e+00 -1.176590e-03 -5.387052e-05 9.826086e-04
N 3.190425e+00 -3.783298e+00 7.097667e+00 -3.588919e-04 5.560205e-04 -4.883844e-04
N 3.226861e+00 -3.765013e+00 -3.415816e+00 -5.504057e-04 3.904263e-04 -3.810687e-04
N 1.606936e+00 -9.260872e-01 1.859592e+00 -2.215882e-03 -1.193290e-03 -7.801429e-04
N 1.573633e+00 -9.843373e-01 7.089243e+00 -8.159011e-04 1.327236e-04 -7.702458e-04
N 1.611157e+00 -9.693034e-01 -3.415987e+00 -1.214552e-03 -7.272471e-05 -1.948985e-04
N 3.171597e+00 1.793839e+00 1.853676e+00 -2.413992e-03 -2.089846e-04 1.294102e-03
N 3.178718e+00 1.808783e+00 7.088367e+00 -1.893141e-04 3.036639e-04 -8.128049e-04
N 3.219455e+00 1.829924e+00 -3.416522e+00 -4.628383e-04 6.823674e-05 -3.412229e-04
N 6.455639e+00 -3.767394e+00 1.827911e+00 -1.604981e-03 -4.509018e-04 3.187464e-04
N 6.422424e+00 -3.780426e+00 7.096750e+00 -1.912941e-04 1.377365e-04 -7.650984e-04
N 6.459415e+00 -3.714079e+00 -3.397278e+00 -5.016270e-04 3.336537e-04 -5.285897e-04
N 4.842960e+00 -9.778591e-01 1.826790e+00 -1.749651e-03 -2.892379e-04 9.799284e-04
N 4.806744e+00 -9.838456e-01 7.096678e+00 -6.249822e-04 -1.183151e-04 -6.133148e-04
N 4.885421e+00 -9.894095e-01 -3.397387e+00 -6.974574e-04 -2.426724e-04 -5.971476e-04
N -3.255863e+00 1.819784e+00 1.838567e+00 -2.041008e-03 4.954308e-04 1.785684e-03
N -3.287607e+00 1.811667e+00 7.096863e+00 -6.276036e-04 3.483464e-04 -3.214836e-04
N -3.250340e+00 1.831499e+00 -3.415980e+00 -9.010384e-04 8.147325e-05 -5.895075e-04
N -1.423413e-02 -3.768401e+00 1.838301e+00 -1.555233e-03 -9.431237e-05 1.381377e-03
N -4.750420e-02 -3.777283e+00 7.097205e+00 -4.056288e-04 1.281733e-04 -3.375737e-04
N -9.715005e-03 -3.759043e+00 -3.415831e+00 -6.894881e-04 7.990866e-05 -4.938877e-04
N -1.634027e+00 -9.749872e-01 1.828870e+00 -1.897938e-03 -6.810460e-04 8.696489e-04
N -1.662269e+00 -9.813452e-01 7.096768e+00 -9.744154e-04 2.381913e-05 -6.354394e-04
N -1.667141e+00 -9.879901e-01 -3.396766e+00 -1.707124e-03 -1.125205e-04 -5.395371e-04
