108
Energy=-2816989.980100 Lattice="9.703271 0.000000 0.000000 -4.873709 8.386449 0.000000 -0.081212 0.037127 15.776821" Stress="0.000012 -0.000006 -0.000016 -0.000006 0.000002 0.000006 -0.000016 0.000006 0.000034" Properties=species:S:1:pos:R:3:forces:R:3
Al 1.555601 0.929058 2.489174 0.002369 -0.000012 -0.000540
Ga 1.541832 0.913471 7.733680 0.001143 -0.000271 0.001082
Ga 1.612666 0.865994 -2.772050 0.001193 -0.000360 0.001936
Al -0.054533 3.705922 2.474866 0.000089 -0.000310 0.002149
Ga -0.075937 3.703675 7.732040 0.000589 0.000037 0.001338
Ga -0.006512 3.659309 -2.779116 0.000518 0.000161 0.001018
Ga 3.191285 -1.869351 2.487550 0.000945 -0.001003 -0.000304
Ga 3.176096 -1.884055 7.733029 0.000741 -0.000602 0.001004
Ga 3.245081 -1.931059 -2.777809 0.000509 -0.000356 0.000967
Ga -4.922158 0.929542 2.493249 0.001591 -0.000696 -0.001164
Ga -4.927499 0.917054 7.739635 0.000636 -0.000490 0.000215
Ga -4.857521 0.869483 -2.778531 0.000522 -0.000237 0.000035
Ga -6.547580 3.715742 2.486323 0.001298 -0.000414 -0.000248
Ga -6.547670 3.709058 7.734899 -0.000009 -0.000022 0.000489
Ga -6.477007 3.661914 -2.775053 -0.000030 0.000066 0.000764
Ga -3.286994 -1.874340 2.491289 0.000925 -0.000483 -0.000625
Ga -3.293215 -1.880822 7.737747 0.000208 -0.000724 0.000733
Ga -3.222748 -1.928075 -2.780671 0.000190 -0.000458 0.000487
Ga -1.667622 0.938145 2.487892 0.001062 -0.001242 -0.000945
Ga -1.692254 0.921542 7.736885 0.001566 -0.000684 -0.000054
Ga -1.623525 0.874057 -2.771695 0.001338 -0.000769 0.000441
Ga -3.293628 3.726132 2.491099 0.001304 -0.000463 -0.001206
Ga -3.313745 3.713837 7.738923 0.000888 -0.000242 0.000148
Ga -3.244048 3.666772 -2.777621 0.000689 -0.000179 0.000153
Ga -0.046418 -1.854988 2.493781 0.001921 -0.001109 -0.001187
Ga -0.060998 -1.875142 7.738866 0.000978 -0.000919 0.000442
Ga 0.009577 -1.922752 -2.777433 0.000844 -0.000707 0.000393
Ga -0.057996 1.848893 5.082793 -0.000230 0.001493 0.002031
Ga 0.005958 1.798658 -5.407969 -0.000696 0.001018 0.000974
Ga -0.005124 1.803310 -0.129539 -0.000763 -0.001037 0.001683
Ga 3.195117 -3.747082 5.098902 0.000375 0.000150 0.000591
Ga 3.259356 -3.790686 -5.408906 -0.000520 0.000433 0.000286
Ga 3.249805 -3.803098 -0.136837 -0.002398 0.002662 0.001116
Ga 1.569037 -0.944107 5.103551 -0.000963 0.001580 0.000056
Ga 1.639121 -0.996249 -5.406627 -0.001114 0.000971 0.000152
Ga 1.626373 -1.005552 -0.130989 -0.002661 0.004233 0.001444
Ga 3.160705 1.846110 5.100056 -0.000306 0.000643 0.001133
Ga 3.234674 1.801967 -5.409890 -0.000042 0.000676 0.001037
Ga 3.223975 1.787842 -0.133436 -0.002213 0.002088 0.001138
Ga 6.413483 -3.743360 5.099635 -0.000399 -0.000227 0.000954
Ga 6.489010 -3.788769 -5.409810 0.000100 0.000094 0.000567
Ga 6.474544 -3.799643 -0.135749 -0.000876 0.002190 0.000414
Ga 4.799459 -0.946456 5.115731 -0.000466 0.000674 0.000118
Ga 4.868499 -0.994578 -5.407692 -0.000502 0.000645 0.000104
Ga 4.858636 -1.006595 -0.148626 -0.001961 0.002742 0.001805
Ga -3.302752 1.853552 5.111226 -0.000440 0.000468 0.000863
Ga -3.232354 1.805895 -5.410877 -0.000617 0.000509 0.001163
Ga -3.247172 1.794263 -0.151746 -0.002018 0.002218 0.003236
Ga -0.050083 -3.735894 5.111478 -0.000430 -0.000134 0.000710
Ga 0.019379 -3.783757 -5.409085 -0.000485 -0.000051 0.000740
Ga 0.009414 -3.795686 -0.148094 -0.002035 0.002044 0.001685
Ga -1.670344 -0.942346 5.114429 -0.001086 0.000586 0.000281
Ga -1.599598 -0.988992 -5.408566 -0.001096 0.000531 0.000583
Ga -1.611254 -1.003308 -0.148364 -0.002432 0.002967 0.002602
N 1.551923 0.919098 4.418382 0.000983 -0.001079 -0.001645
N 1.619007 0.872048 -6.052997 0.000861 -0.000682 -0.000698
N 1.605844 0.863510 -0.777797 0.000105 -0.000106 -0.002544
N -0.067495 3.713812 4.413687 0.000077 -0.000354 -0.002761
N 0.000573 3.665318 -6.053295 0.000199 -0.000257 -0.000696
N -0.012256 3.659146 -0.789769 0.000143 0.000153 -0.000191
N 3.184466 -1.875714 4.471247 0.000466 -0.000683 -0.000036
N 3.252489 -1.923803 -6.053672 0.000354 -0.000528 -0.000479
N 3.238124 -1.935752 -0.788137 -0.000058 -0.000064 0.001241
N -4.919232 0.922125 4.475103 0.000749 -0.000654 -0.000294
N -4.850175 0.874996 -6.049508 0.000510 -0.000466 -0.000536
N -4.864265 0.862518 -0.792748 0.000358 0.000453 0.000832
N -6.539399 3.717745 4.472194 0.000280 -0.000238 -0.000714
N -6.469519 3.669307 -6.051755 -0.000000 -0.000149 -0.000833
N -6.483907 3.655712 -0.783241 0.000099 0.000665 0.000287
N -3.287523 -1.872468 4.474624 0.000414 -0.000456 -0.000393
N -3.216764 -1.920830 -6.050157 0.000228 -0.000418 -0.000496
N -3.228833 -1.934756 -0.793547 0.000299 0.000073 0.000913
N -1.687637 0.925886 4.471645 0.000844 -0.001114 -0.000602
N -1.616732 0.879768 -6.051782 0.001026 -0.000949 -0.000686
N -1.627970 0.871060 -0.780038 0.001823 -0.000212 -0.000677
N -3.306860 3.721492 4.473651 0.000268 -0.000695 -0.000466
N -3.237167 3.674059 -6.050054 0.000389 -0.000520 -0.000624
N -3.247682 3.662506 -0.791086 0.000450 0.000398 0.000680
N -0.055690 -1.868326 4.475134 0.000769 -0.001074 -0.000136
N 0.015228 -1.915938 -6.050157 0.000726 -0.000868 -0.000480
N 0.004807 -1.926768 -0.790707 0.000912 -0.000397 0.001082
N -0.006445 1.862775 1.879091 -0.001086 0.003360 -0.000035
N -0.066376 1.841714 7.080180 -0.001126 0.000527 -0.000898
N 0.001065 1.793599 -3.417449 -0.000972 0.000633 -0.001105
N 3.239940 -3.758610 1.864503 0.001322 -0.003007 -0.000849
N 3.186026 -3.751835 7.089973 -0.000890 0.000607 -0.000699
N 3.253219 -3.796622 -3.421160 -0.000578 0.000519 -0.000412
N 1.580050 -0.888061 1.874491 -0.000708 -0.003623 -0.003128
N 1.563477 -0.952081 7.091565 -0.001278 0.000598 -0.000600
N 1.633628 -1.001345 -3.419299 -0.001180 0.001050 -0.000524
N 3.136011 1.832907 1.865589 0.000159 -0.001656 -0.000846
N 3.159108 1.842601 7.091569 -0.000089 0.000384 -0.000833
N 3.230286 1.797590 -3.419417 -0.000356 0.000183 -0.000806
N 6.387813 -3.753724 1.860183 -0.000088 -0.003135 -0.000618
N 6.411246 -3.747561 7.091591 0.000151 0.000344 -0.000963
N 6.484489 -3.794238 -3.420605 -0.000117 0.000112 -0.000588
N 4.808784 -0.935787 1.845028 0.000289 -0.002082 -0.001890
N 4.794773 -0.950845 7.100142 -0.000599 0.000510 -0.000442
N 4.863516 -0.999080 -3.419698 -0.000601 0.000439 -0.000409
N -3.294611 1.859821 1.848119 0.000621 -0.001779 -0.002270
N -3.307758 1.847562 7.098480 -0.000685 0.000364 -0.000389
N -3.236788 1.800444 -3.420219 -0.000695 0.000193 -0.000362
N -0.042185 -3.728147 1.848412 0.000537 -0.002120 -0.001319
N -0.055445 -3.742608 7.098291 -0.000365 0.000226 -0.000279
N 0.014242 -3.790177 -3.418850 -0.000571 0.000193 -0.000466
N -1.664576 -0.936934 1.850538 0.000096 -0.001530 -0.002714
N -1.674933 -0.947743 7.099671 -0.001052 0.000506 -0.000375
N -1.603933 -0.994269 -3.419438 -0.001157 0.000730 -0.000213
