108
Energy=-2.542337e+06 Lattice="9.655538e+00 0.000000e+00 0.000000e+00 -4.828579e+00 8.361733e+00 0.000000e+00 -2.136512e-03 -6.048846e-04 1.567189e+01" Stress="3.581161e-06 -1.363371e-06 7.016744e-06 -5.547928e-06 1.016312e-05 2.812369e-06 2.069791e-06 5.082480e-06 -2.750895e-06" Properties=species:S:1:pos:R:3:forces:R:3 Config_type=AlGaN_super3_46_1_15.xyz
Al 1.583919e+00 8.897832e-01 2.466063e+00 -1.397016e-05 -1.479765e-05 3.839642e-06
Al 1.579037e+00 8.977430e-01 7.689745e+00 -7.073155e-06 5.221617e-06 -3.378177e-06
Ga 1.576409e+00 8.904610e-01 -2.760504e+00 -1.642202e-05 -1.651008e-05 2.349424e-05
Ga -2.895238e-02 3.670529e+00 2.450941e+00 -7.660791e-07 4.061371e-05 3.179248e-05
Al -1.982399e-02 3.665875e+00 7.691328e+00 8.447374e-06 1.327727e-05 -3.009987e-06
Ga -4.231122e-02 3.668428e+00 -2.748853e+00 -1.953533e-05 6.065930e-06 7.937126e-06
Ga 3.188716e+00 -1.901379e+00 2.457537e+00 6.575680e-06 1.187282e-05 -2.271685e-05
Ga 3.197916e+00 -1.896252e+00 7.698567e+00 -2.305328e-06 2.557026e-05 2.579651e-06
Ga 3.194718e+00 -1.907916e+00 -2.761879e+00 6.636294e-06 -6.514798e-06 -8.553003e-06
Ga -4.858863e+00 8.911782e-01 2.460275e+00 -3.748987e-05 3.213191e-05 4.517627e-06
Ga -4.858976e+00 8.847232e-01 7.705913e+00 2.025471e-05 1.741755e-05 3.377788e-06
Ga -4.840518e+00 8.913464e-01 -2.769986e+00 -1.624619e-05 2.920065e-06 -5.113774e-06
Ga -6.460661e+00 3.670350e+00 2.480516e+00 2.589313e-05 4.026956e-05 1.951090e-05
Ga -6.466356e+00 3.672929e+00 7.677883e+00 -2.584945e-06 8.354671e-06 -1.402550e-05
Ga -6.453315e+00 3.673052e+00 -2.761004e+00 -1.555576e-05 -4.695967e-06 -3.067274e-07
Ga -3.240117e+00 -1.898455e+00 2.466098e+00 -1.924364e-05 2.826077e-05 2.176263e-05
Ga -3.251844e+00 -1.902977e+00 7.706297e+00 9.702598e-06 2.050896e-05 -6.117159e-06
Ga -3.243519e+00 -1.888440e+00 -2.773979e+00 -1.194510e-05 -2.019002e-05 -1.460130e-05
Ga -1.621787e+00 8.915359e-01 2.468736e+00 -6.092880e-06 2.399124e-05 3.282651e-06
Ga -1.618787e+00 8.996083e-01 7.690825e+00 -9.805572e-07 4.477285e-06 1.897864e-06
Al -1.633812e+00 8.990741e-01 -2.763750e+00 -6.521808e-06 -1.077910e-06 -7.732360e-06
Ga -3.237590e+00 3.682027e+00 2.466352e+00 9.708370e-06 8.668505e-06 -6.348280e-06
Ga -3.241513e+00 3.678956e+00 7.684785e+00 1.599543e-06 7.170608e-06 1.370639e-05
Al -3.229689e+00 3.671681e+00 -2.752155e+00 -1.417013e-05 4.909898e-06 1.079921e-05
Ga -1.798560e-02 -1.894976e+00 2.473535e+00 9.598525e-06 -3.392417e-06 -3.543108e-05
Ga -1.866006e-02 -1.899554e+00 7.683190e+00 -9.338117e-07 1.211934e-05 -2.892646e-06
Ga -2.150492e-02 -1.896313e+00 -2.759785e+00 1.908901e-05 1.607590e-05 8.532022e-06
Ga -1.187091e-02 1.819689e+00 5.086649e+00 -2.028239e-05 -2.795143e-05 1.399126e-06
Ga -1.903870e-02 1.821561e+00 -5.376652e+00 -7.944324e-06 8.843747e-06 5.266811e-06
Ga -2.966153e-02 1.818919e+00 -1.475405e-01 1.452848e-06 -3.257781e-05 -4.768065e-06
Ga 3.190190e+00 -3.759005e+00 5.092796e+00 -8.637897e-06 1.732933e-05 1.676563e-05
Ga 3.203077e+00 -3.754706e+00 -5.373334e+00 1.519850e-06 8.100929e-06 -3.466871e-06
Al 3.187353e+00 -3.759560e+00 -1.608331e-01 1.182931e-05 -3.289530e-05 -3.996968e-06
Ga 1.581812e+00 -9.654045e-01 5.078467e+00 4.935824e-06 -9.501902e-06 -3.551620e-06
Ga 1.597150e+00 -9.625644e-01 -5.381715e+00 1.903404e-05 6.357107e-06 -8.731673e-06
Ga 1.591740e+00 -9.720068e-01 -1.365270e-01 1.076418e-05 -2.440215e-05 2.086472e-06
Ga 3.189229e+00 1.817755e+00 5.082512e+00 3.778909e-06 -1.603990e-05 -1.772996e-06
Ga 3.194091e+00 1.808193e+00 -5.384926e+00 -2.309730e-06 -1.390813e-05 -2.520829e-06
Ga 3.190765e+00 1.816480e+00 -1.348094e-01 1.407441e-05 9.030102e-06 1.711792e-05
Ga 6.415724e+00 -3.757649e+00 5.090519e+00 -1.955804e-05 -2.890362e-05 -1.144474e-05
Ga 6.403797e+00 -3.754312e+00 -5.381591e+00 -2.177337e-06 -1.969483e-05 -2.036450e-05
Ga 6.406289e+00 -3.756658e+00 -1.483498e-01 -6.144411e-06 3.997504e-06 2.082157e-05
Ga 4.803725e+00 -9.692134e-01 5.078480e+00 4.818028e-06 -7.938720e-06 2.198436e-05
Al 4.803607e+00 -9.690871e-01 -5.365801e+00 1.682095e-05 3.364765e-06 -1.703567e-06
Ga 4.799016e+00 -9.780958e-01 -1.505648e-01 -7.553102e-06 -3.301701e-05 1.396443e-05
Ga -3.248588e+00 1.827236e+00 5.079820e+00 1.071474e-06 -1.691118e-05 -1.507789e-05
Ga -3.240655e+00 1.816478e+00 -5.348151e+00 8.239066e-06 1.143152e-05 4.466562e-06
Ga -3.228677e+00 1.830649e+00 -1.717615e-01 4.373378e-06 -1.714086e-05 1.598497e-06
Al -2.144453e-02 -3.755976e+00 5.076690e+00 6.470836e-06 -3.007585e-06 -1.338935e-05
Ga -1.636228e-02 -3.759683e+00 -5.353778e+00 -1.829879e-05 3.192396e-06 7.718096e-06
Ga -6.441407e-03 -3.760847e+00 -1.581658e-01 1.136862e-05 -9.044934e-06 -1.275032e-06
Ga -1.629033e+00 -9.779305e-01 5.084188e+00 1.033334e-05 -2.286295e-05 6.495064e-07
Ga -1.639248e+00 -9.643047e-01 -5.363469e+00 -4.927882e-06 -3.252932e-06 7.288358e-06
Ga -1.632318e+00 -9.612372e-01 -1.585619e-01 2.592192e-06 -5.254283e-08 1.809954e-05
N 1.584175e+00 8.897360e-01 4.386880e+00 9.356912e-06 2.355251e-05 1.457547e-06
N 1.583278e+00 8.907100e-01 -6.064029e+00 5.869392e-06 4.437006e-06 1.136926e-05
N 1.585219e+00 8.884839e-01 -7.859800e-01 2.551301e-05 2.331942e-05 7.873259e-07
N -2.797763e-02 3.677718e+00 4.434139e+00 2.789308e-05 1.408357e-05 4.079818e-06
N -2.490124e-02 3.673681e+00 -6.060534e+00 -9.724280e-06 3.836563e-06 1.530032e-05
N -6.794994e-02 3.698407e+00 -7.620606e-01 2.067419e-05 2.337878e-05 -1.160792e-05
N 3.192131e+00 -1.903586e+00 4.440629e+00 -1.716900e-07 9.306013e-07 -7.886889e-06
N 3.240551e+00 -1.875068e+00 -5.987906e+00 -2.426298e-05 3.880292e-06 -8.270423e-06
N 3.193900e+00 -1.946567e+00 -7.712401e-01 1.265473e-05 3.427565e-05 -1.648564e-05
N -4.853482e+00 8.910888e-01 4.438971e+00 -1.982035e-05 1.128144e-05 -4.253588e-06
N -4.844427e+00 8.415793e-01 -5.977713e+00 -1.827092e-05 2.381227e-05 -1.110581e-05
N -4.852476e+00 8.884285e-01 -7.865297e-01 -1.486814e-06 2.075671e-05 -3.422772e-06
N -6.420308e+00 3.699548e+00 4.470920e+00 -5.887079e-06 7.970931e-06 1.101293e-05
N -6.455009e+00 3.679894e+00 -6.010779e+00 -5.982850e-06 8.958387e-07 7.760791e-06
N -6.460283e+00 3.674139e+00 -7.819897e-01 7.500890e-06 1.584360e-05 -1.404529e-05
N -3.241307e+00 -1.900380e+00 4.443159e+00 3.367889e-07 -1.084806e-05 -1.773802e-06
N -3.283437e+00 -1.871873e+00 -5.980250e+00 1.159733e-05 -6.928314e-06 5.689505e-06
N -3.243154e+00 -1.897577e+00 -7.950312e-01 8.518008e-06 3.495256e-05 -8.202282e-06
N -1.629931e+00 8.913531e-01 4.451501e+00 3.858305e-06 7.779667e-06 -3.498150e-06
N -1.632873e+00 8.930912e-01 -6.005636e+00 6.242911e-06 3.118032e-06 -3.622528e-06
N -1.627923e+00 8.904942e-01 -8.430283e-01 4.446105e-06 1.840305e-05 -1.488949e-06
N -3.280541e+00 3.704015e+00 4.456153e+00 3.494706e-06 -1.720568e-05 -2.982874e-06
N -3.242870e+00 3.675100e+00 -6.009576e+00 -4.877759e-07 1.705643e-06 -2.974137e-07
N -3.197329e+00 3.701990e+00 -8.268391e-01 -7.055214e-06 2.837486e-05 -6.182226e-06
N -2.177170e-02 -1.946349e+00 4.462473e+00 -2.974748e-07 1.910721e-05 1.270189e-05
N -2.323273e-02 -1.902290e+00 -6.004319e+00 4.811061e-06 -1.740014e-07 7.825186e-08
N -1.970639e-02 -1.896381e+00 -7.823880e-01 3.977517e-06 1.817512e-05 1.351686e-05
N 1.757346e-02 1.791463e+00 1.838801e+00 -1.147831e-05 -1.248083e-05 -1.838120e-05
N 2.263487e-02 1.843097e+00 7.082084e+00 3.260283e-08 2.493952e-06 1.203374e-06
N -6.318242e-02 1.797561e+00 -3.388231e+00 1.889701e-05 1.569918e-05 -1.157453e-05
N 3.190522e+00 -3.758180e+00 1.765291e+00 -1.665604e-05 -1.608711e-05 -1.282514e-05
N 3.238915e+00 -3.780106e+00 7.078579e+00 1.032943e-06 -2.612234e-05 -7.053136e-06
N 3.155774e+00 -3.782442e+00 -3.389232e+00 1.077922e-05 -1.518067e-05 8.897441e-06
N 1.585050e+00 -9.201328e-01 1.850915e+00 -1.357566e-05 2.112858e-06 3.078607e-05
N 1.587503e+00 -9.172726e-01 7.070691e+00 1.324543e-05 -2.387599e-05 4.206191e-06
N 1.588457e+00 -9.670031e-01 -3.403532e+00 -6.333219e-06 -7.471358e-06 -1.056940e-05
N 3.150746e+00 1.796281e+00 1.851785e+00 -1.095413e-05 1.244596e-06 -1.754155e-06
N 3.152434e+00 1.789801e+00 7.072007e+00 -4.230925e-06 -1.095123e-05 4.031016e-06
N 3.191968e+00 1.815146e+00 -3.406580e+00 9.635386e-06 3.397703e-07 1.021613e-05
N 6.416716e+00 -3.758458e+00 1.830680e+00 8.158693e-06 -4.124688e-05 -3.137724e-05
N 6.369357e+00 -3.778443e+00 7.077371e+00 4.482404e-06 -5.949432e-06 4.161293e-06
N 6.407887e+00 -3.762304e+00 -3.397857e+00 1.748563e-05 1.884643e-06 1.306471e-05
N 4.803572e+00 -9.707152e-01 1.826332e+00 1.707394e-05 -7.099393e-06 -1.082046e-05
N 4.803835e+00 -9.683240e-01 7.051640e+00 2.005142e-06 -2.991793e-05 -1.491542e-05
N 4.799389e+00 -9.693750e-01 -3.446703e+00 1.053081e-05 -3.916765e-06 3.076900e-06
N -3.237274e+00 1.821198e+00 1.817088e+00 3.364459e-06 -3.559878e-05 -1.848756e-06
N -3.245630e+00 1.815926e+00 7.057156e+00 -1.913834e-05 -1.287958e-05 -1.094585e-05
N -3.198193e+00 1.846171e+00 -3.352898e+00 7.452381e-06 -6.720639e-06 -4.631646e-06
N -2.171596e-02 -3.758141e+00 1.822645e+00 -3.478451e-05 -2.955434e-05 1.595010e-05
N -2.238034e-02 -3.756685e+00 6.996837e+00 3.038586e-06 -1.283882e-05 9.579173e-06
N 2.428065e-02 -3.782836e+00 -3.368429e+00 -8.941853e-06 5.717168e-06 -1.874021e-05
N -1.630062e+00 -9.661247e-01 1.824467e+00 2.840987e-06 -2.611951e-05 -1.398426e-05
N -1.636587e+00 -9.700540e-01 7.062369e+00 -2.553192e-05 -1.983485e-05 1.232174e-05
N -1.630379e+00 -9.175220e-01 -3.378148e+00 -3.040047e-06 -9.623636e-06 -6.668073e-07
