108
Energy=-1169071.901079 Lattice="9.482555 0.000000 0.000000 -4.745630 8.213924 0.000000 -0.000813 0.002966 15.279595" Stress="0.000001 -0.000002 0.000000 -0.000002 0.000003 0.000001 0.000000 0.000001 -0.000002" Properties=species:S:1:pos:R:3:forces:R:3
Al 1.553609 0.872743 2.409935 0.000150 -0.000145 -0.000089
Al 1.560874 0.868356 7.482884 -0.000500 -0.000076 0.000212
Al 1.542037 0.882326 -2.705465 -0.000086 -0.000131 0.000342
Al -0.023160 3.614624 2.377986 0.000038 0.000073 0.000023
Al -0.024487 3.609096 7.484756 -0.000201 0.000308 0.000097
Al -0.014374 3.595335 -2.672819 -0.000160 -0.000102 0.000094
Al 3.137233 -1.870327 2.399670 0.000024 -0.000137 0.000229
Al 3.131866 -1.860339 7.468346 -0.000010 -0.000121 0.000028
Al 3.140641 -1.862427 -2.672363 0.000158 0.000016 0.000282
Al -4.762400 0.873850 2.380770 0.000028 0.000079 0.000432
Al -4.782750 0.870454 7.496827 0.000251 -0.000164 0.000247
Ga -4.780043 0.863735 -2.678202 0.000148 -0.000003 0.000073
Al -6.349308 3.618144 2.408175 0.000113 -0.000074 0.000056
Ga -6.350616 3.603947 7.482634 0.000148 0.000129 0.000023
Al -6.355519 3.616642 -2.698514 -0.000124 -0.000253 0.000106
Al -3.185472 -1.874207 2.384419 -0.000063 -0.000109 0.000070
Ga -3.184933 -1.864096 7.511883 0.000057 0.000125 0.000182
Ga -3.186489 -1.874265 -2.700477 0.000074 0.000162 0.000078
Al -1.599902 0.881553 2.376514 -0.000101 0.000078 0.000659
Al -1.588990 0.873627 7.507300 0.000284 -0.000247 0.000211
Al -1.577123 0.876965 -2.687666 0.000026 -0.000050 0.000044
Al -3.183414 3.617551 2.380286 -0.000047 -0.000138 0.000024
Ga -3.180359 3.626504 7.482144 0.000172 0.000027 -0.000009
Ga -3.191399 3.624380 -2.664152 -0.000033 -0.000088 -0.000051
Al -0.014974 -1.869066 2.405146 -0.000110 -0.000270 0.000414
Al -0.010451 -1.854137 7.486499 -0.000283 -0.000227 -0.000522
Al -0.020699 -1.864791 -2.694628 -0.000778 -0.000108 0.000081
Ga -0.011295 1.798207 4.941607 -0.000127 0.000095 0.000187
Al -0.011709 1.790139 -5.247733 -0.000498 -0.000337 0.000043
Al -0.027763 1.800716 -0.139938 -0.000322 -0.000056 -0.000005
Al 3.142769 -3.683966 4.921018 -0.000143 0.000215 -0.000090
Ga 3.162378 -3.684964 -5.227446 -0.000114 0.000108 0.000165
Al 3.152026 -3.693901 -0.137337 -0.000065 0.000175 -0.000029
Al 1.563382 -0.961370 4.939026 -0.000448 0.000287 0.000132
Ga 1.557116 -0.948625 -5.241125 -0.000010 -0.000012 0.000116
Ga 1.562906 -0.956669 -0.144699 -0.000161 0.000059 0.000051
Al 3.133770 1.788532 4.922405 0.000088 0.000110 0.000165
Al 3.127672 1.792163 -5.236102 0.000432 -0.000463 -0.000188
Ga 3.129256 1.801520 -0.130701 0.000191 0.000088 -0.000381
Al 6.299231 -3.699819 4.919586 0.000308 0.000233 -0.000026
Al 6.302742 -3.703806 -5.226920 -0.000049 0.000513 -0.000032
Al 6.296050 -3.698660 -0.138977 0.000075 -0.000111 -0.000013
Ga 4.707907 -0.957330 4.930783 -0.000164 0.000121 0.000008
Al 4.712856 -0.952573 -5.253350 -0.000064 0.000204 -0.000210
Al 4.717185 -0.965265 -0.114331 0.000067 0.000182 -0.000125
Ga -3.193214 1.796995 4.936860 -0.000037 0.000118 0.000110
Ga -3.186990 1.770975 -5.243980 0.000057 -0.000110 0.000092
Al -3.174232 1.791677 -0.128146 -0.000396 -0.000317 0.000156
Al -0.020269 -3.685664 4.914131 -0.000065 0.000084 0.000004
Al -0.045481 -3.681410 -5.230786 0.000353 0.000192 -0.000001
Al -0.028639 -3.692999 -0.127053 -0.000033 -0.000632 0.000194
Ga -1.588989 -0.963939 4.932236 -0.000267 0.000013 0.000214
Al -1.593031 -0.953662 -5.236262 -0.000612 0.000002 0.000099
Ga -1.604197 -0.950222 -0.135954 -0.000294 0.000107 0.000183
N 1.592966 0.846641 4.322699 0.000057 -0.000126 -0.000006
N 1.560223 0.918057 -5.872717 0.000265 -0.000001 -0.000026
N 1.511895 0.900970 -0.792241 0.000251 -0.000027 -0.000220
N -0.025850 3.657873 4.293285 -0.000054 -0.000267 -0.000104
N 0.017804 3.589094 -5.876450 0.000198 0.000186 -0.000221
N -0.021083 3.608057 -0.746165 -0.000066 0.000018 -0.000175
N 3.096684 -1.889179 4.311810 0.000248 -0.000070 -0.000304
N 3.172561 -1.847038 -5.902829 0.000041 0.000005 -0.000149
N 3.184819 -1.886437 -0.758153 -0.000022 -0.000253 -0.000311
N -4.802738 0.895922 4.286608 0.000129 -0.000058 -0.000440
N -4.814982 0.852852 -5.865496 -0.000233 0.000191 0.000231
N -4.727760 0.845364 -0.700318 0.000079 0.000023 0.000193
N -6.347428 3.612065 4.330458 -0.000073 0.000009 -0.000023
N -6.347640 3.609828 -5.810179 -0.000275 -0.000036 -0.000071
N -6.347313 3.661266 -0.777155 0.000256 0.000162 0.000014
N -3.182345 -1.912589 4.293034 0.000006 -0.000052 0.000058
N -3.180765 -1.870735 -5.780168 0.000501 -0.000210 0.000096
N -3.226094 -1.889635 -0.718575 0.000003 0.000020 -0.000027
N -1.601697 0.879882 4.277019 0.000289 -0.000165 -0.000441
N -1.556596 0.849075 -5.860846 0.000176 0.000009 0.000094
N -1.600241 0.922266 -0.765947 0.000588 0.000022 0.000159
N -3.182945 3.658723 4.303950 0.000050 -0.000057 0.000063
N -3.226955 3.643624 -5.824735 0.000006 -0.000148 -0.000145
N -3.190473 3.614681 -0.680189 0.000031 0.000572 -0.000092
N 0.024622 -1.886660 4.311822 0.000054 -0.000053 -0.000286
N -0.060118 -1.889937 -5.874354 0.000276 -0.000255 0.000370
N -0.023912 -1.916059 -0.785983 0.000176 0.000209 -0.000272
N -0.015981 1.787124 1.782524 -0.000145 -0.000034 -0.000125
N -0.022064 1.788380 6.923910 0.000132 -0.000122 -0.000079
N -0.024718 1.791449 -3.317457 0.000003 0.000094 -0.000203
N 3.144677 -3.687126 1.781831 -0.000004 0.000092 -0.000124
N 3.186359 -3.667418 6.844289 0.000038 -0.000119 0.000176
N 3.186658 -3.668104 -3.249644 0.000073 0.000017 0.000005
N 1.558569 -0.950801 1.833684 0.000236 0.000485 -0.000302
N 1.557196 -0.950177 6.872366 -0.000178 0.000167 -0.000014
N 1.560752 -0.954711 -3.249642 0.000492 0.000386 -0.000121
N 3.130285 1.792434 1.842798 -0.000181 0.000002 0.000258
N 3.136961 1.739510 6.845927 -0.000015 0.000235 -0.000429
N 3.095876 1.809059 -3.314731 -0.000111 0.000123 0.000103
N 6.305804 -3.696457 1.780575 -0.000061 -0.000078 -0.000128
N 6.260551 -3.710018 6.833372 -0.000079 -0.000096 -0.000139
N 6.293014 -3.744400 -3.313572 0.000110 -0.000040 -0.000257
N 4.715164 -0.956481 1.800936 -0.000064 -0.000019 -0.000010
N 4.683450 -0.927237 6.904971 0.000074 -0.000030 -0.000157
N 4.671401 -0.975508 -3.346272 -0.000273 -0.000059 0.000007
N -3.181532 1.788618 1.788592 0.000052 -0.000109 -0.000030
N -3.183989 1.737596 6.922268 -0.000305 -0.000013 -0.000150
N -3.145618 1.761517 -3.274614 0.000074 0.000015 0.000088
N -0.028572 -3.687981 1.794406 0.000017 -0.000041 -0.000205
N -0.024850 -3.639660 6.825996 0.000049 0.000174 -0.000001
N -0.063377 -3.664925 -3.317972 -0.000132 0.000040 0.000075
N -1.597128 -0.953229 1.841802 0.000045 0.000117 -0.000285
N -1.563194 -0.926776 6.910283 0.000087 -0.000066 -0.000019
N -1.559131 -0.924327 -3.312367 0.000234 -0.000183 -0.000055
