108
Energy=-1809928.781674 Lattice="9.561688 0.000000 0.000000 -4.781387 8.278429 0.000000 -0.002366 0.001394 15.471072" Stress="0.000000 -0.000000 -0.000000 -0.000000 -0.000000 -0.000000 -0.000000 -0.000000 -0.000000" Properties=species:S:1:pos:R:3:forces:R:3
Al 1.571860 0.883692 2.430710 -0.000023 -0.000014 0.000254
Al 1.574988 0.891624 7.604320 -0.000032 -0.000012 0.000102
Al 1.568021 0.883416 -2.742859 0.000016 0.000056 0.000171
Al -0.021822 3.650623 2.442700 0.000010 -0.000038 0.000201
Al -0.018613 3.647848 7.574709 0.000016 0.000010 0.000103
Ga -0.025421 3.616068 -2.725145 0.000036 -0.000018 0.000094
Ga 3.171643 -1.880424 2.411151 -0.000018 0.000018 0.000133
Al 3.177303 -1.882604 7.584792 -0.000057 -0.000025 0.000101
Ga 3.175582 -1.858961 -2.701566 -0.000002 -0.000045 0.000046
Ga -4.809993 0.873528 2.444671 -0.000027 -0.000007 0.000187
Ga -4.815182 0.872460 7.603429 -0.000011 -0.000004 0.000017
Al -4.806998 0.868829 -2.757749 0.000086 0.000015 0.000070
Ga -6.418247 3.637321 2.445119 0.000056 -0.000000 0.000119
Ga -6.423745 3.630803 7.587637 -0.000019 0.000027 0.000025
Ga -6.389778 3.622441 -2.732630 -0.000076 0.000009 0.000061
Al -3.214428 -1.880645 2.416946 0.000041 0.000008 0.000171
Al -3.231457 -1.891933 7.593170 0.000027 -0.000021 0.000115
Ga -3.221168 -1.855262 -2.715323 0.000017 -0.000080 0.000038
Ga -1.610671 0.875651 2.433871 0.000017 -0.000052 0.000162
Ga -1.613084 0.892166 7.601653 0.000030 -0.000049 0.000038
Al -1.609186 0.883531 -2.740570 -0.000016 0.000029 0.000150
Ga -3.192109 3.642214 2.433306 -0.000054 0.000031 0.000157
Ga -3.195479 3.637667 7.599623 0.000010 0.000018 0.000020
Ga -3.214383 3.629820 -2.725686 0.000039 -0.000003 0.000070
Ga -0.026343 -1.863099 2.402376 0.000023 -0.000032 0.000108
Ga -0.019213 -1.872505 7.604856 0.000007 0.000013 0.000029
Ga -0.021630 -1.872570 -2.703810 -0.000005 -0.000015 0.000029
Ga -0.010325 1.819767 5.006395 0.000003 0.000001 0.000064
Al -0.015411 1.800285 -5.312536 -0.000005 0.000152 -0.000013
Ga -0.020608 1.787556 -0.138431 0.000008 0.000016 -0.000152
Al 3.177375 -3.725675 5.022936 -0.000031 0.000000 0.000087
Ga 3.168103 -3.722842 -5.322193 0.000022 0.000012 -0.000022
Al 3.160266 -3.707918 -0.140177 0.000005 0.000003 -0.000315
Ga 1.584644 -0.947342 5.025707 -0.000017 -0.000013 0.000062
Ga 1.585404 -0.947561 -5.307660 0.000011 -0.000061 -0.000016
Al 1.572254 -0.957987 -0.156154 0.000015 -0.000017 -0.000301
Al 3.157110 1.799810 5.015949 0.000020 0.000029 0.000087
Al 3.167432 1.790076 -5.295675 -0.000003 0.000074 0.000056
Ga 3.166775 1.779768 -0.164771 0.000000 0.000062 -0.000184
Al 6.334465 -3.714860 5.005611 0.000050 -0.000016 0.000074
Ga 6.350375 -3.725894 -5.319385 0.000010 0.000050 -0.000026
Ga 6.347033 -3.703522 -0.130074 0.000022 -0.000040 -0.000245
Ga 4.764252 -0.965435 5.017574 0.000012 0.000013 0.000022
Al 4.756273 -0.950065 -5.320887 0.000135 -0.000460 -0.000235
Al 4.758175 -0.957810 -0.141945 -0.000030 -0.000007 -0.000300
Al -3.215941 1.808681 5.015274 -0.000025 0.000026 0.000107
Al -3.217959 1.793386 -5.279643 0.000004 0.000037 0.000073
Ga -3.212859 1.790956 -0.177792 -0.000030 0.000037 -0.000170
Ga -0.021122 -3.734059 5.010087 -0.000000 -0.000022 0.000011
Al -0.022104 -3.738174 -5.304834 -0.000014 0.000013 0.000073
Al -0.013568 -3.706831 -0.138013 -0.000009 -0.000012 -0.000311
Ga -1.636576 -0.965139 5.019485 0.000020 -0.000032 0.000051
Ga -1.626565 -0.953808 -5.299790 -0.000036 -0.000072 -0.000011
Al -1.617985 -0.958975 -0.155336 0.000021 -0.000045 -0.000320
N 1.613374 0.900841 4.346110 0.000025 0.000032 -0.000122
N 1.575091 0.932329 -5.943824 0.000072 -0.000019 -0.000016
N 1.566241 0.836259 -0.825816 -0.000006 0.000031 -0.000111
N -0.027990 3.692604 4.369718 0.000003 0.000006 -0.000118
N -0.021865 3.589673 -5.977389 -0.000000 -0.000015 -0.000016
N -0.064295 3.657540 -0.753077 0.000000 0.000013 -0.000100
N 3.163299 -1.928090 4.395357 0.000008 -0.000029 -0.000083
N 3.207125 -1.857785 -5.971379 0.000019 0.000003 0.000003
N 3.169081 -1.875519 -0.707948 0.000013 0.000016 -0.000035
N -4.806761 0.927075 4.429786 0.000016 0.000060 -0.000106
N -4.802820 0.883956 -5.874296 -0.000002 0.000304 -0.000094
N -4.806352 0.824682 -0.834152 -0.000010 -0.000002 -0.000218
N -6.445905 3.616284 4.432168 -0.000008 0.000001 -0.000069
N -6.358788 3.605353 -5.896503 0.000028 -0.000040 -0.000062
N -6.355393 3.662832 -0.751913 0.000007 0.000005 -0.000075
N -3.211933 -1.923349 4.337482 0.000009 -0.000031 -0.000089
N -3.251862 -1.859210 -5.964196 -0.000051 0.000069 0.000086
N -3.215198 -1.828964 -0.738235 0.000017 0.000028 -0.000070
N -1.655154 0.903360 4.412020 -0.000008 0.000035 -0.000108
N -1.618928 0.933777 -5.886781 -0.000096 -0.000051 -0.000069
N -1.608112 0.836096 -0.816933 0.000005 0.000032 -0.000131
N -3.160947 3.619936 4.420085 -0.000015 -0.000039 -0.000114
N -3.247968 3.604813 -5.889413 -0.000038 -0.000043 -0.000083
N -3.211217 3.690670 -0.742236 -0.000022 -0.000011 -0.000098
N -0.020352 -1.872602 4.380781 -0.000023 -0.000016 -0.000080
N -0.020420 -1.927599 -5.896472 -0.000021 -0.000061 -0.000004
N -0.022206 -1.879520 -0.709644 -0.000046 0.000021 -0.000034
N 0.020246 1.826930 1.851343 0.000016 0.000043 0.000084
N 0.023017 1.824126 6.992327 0.000014 0.000021 -0.000063
N -0.018833 1.751788 -3.381924 0.000052 0.000032 -0.000004
N 3.209025 -3.744266 1.770045 0.000025 -0.000013 0.000246
N 3.205679 -3.696767 6.953496 0.000003 0.000036 -0.000079
N 3.167644 -3.710834 -3.353263 -0.000010 0.000048 -0.000022
N 1.574163 -0.901962 1.762560 0.000028 0.000022 0.000212
N 1.613765 -0.928069 7.013933 0.000035 -0.000006 -0.000064
N 1.575088 -0.916801 -3.330437 -0.000003 -0.000044 -0.000061
N 3.125176 1.774745 1.811648 0.000037 -0.000017 0.000114
N 3.120064 1.770564 6.932934 0.000012 0.000000 -0.000071
N 3.160464 1.747991 -3.369455 -0.000000 0.000051 -0.000049
N 6.308023 -3.695191 1.846675 -0.000017 0.000010 0.000133
N 6.305799 -3.691060 6.940834 0.000005 0.000030 -0.000103
N 6.349480 -3.714519 -3.347789 0.000014 0.000013 -0.000006
N 4.799701 -0.973968 1.775056 0.000013 0.000039 0.000198
N 4.759314 -1.004056 6.996320 -0.000019 0.000025 -0.000111
N 4.754753 -0.920564 -3.404467 -0.000013 -0.000067 0.000159
N -3.212808 1.796465 1.792565 -0.000019 -0.000015 0.000155
N -3.215769 1.797638 6.922351 -0.000035 0.000003 0.000001
N -3.208724 1.751364 -3.353385 -0.000067 0.000012 -0.000034
N -0.023880 -3.724967 1.773657 -0.000029 -0.000036 0.000331
N -0.024674 -3.721924 6.973380 -0.000020 0.000004 -0.000028
N -0.021704 -3.715372 -3.396879 -0.000027 0.000004 0.000006
N -1.662507 -0.976527 1.763012 -0.000067 0.000013 0.000244
N -1.664844 -0.983047 6.997893 -0.000047 -0.000019 -0.000053
N -1.616097 -0.917058 -3.328448 -0.000000 -0.000039 -0.000033
