108
Energy=-1672596.592153 Lattice="9.476278 0.000000 0.000000 -4.738139 8.206697 0.000000 0.000000 0.000000 15.313968" Stress="-0.000234 0.000033 0.000001 0.000033 -0.000194 -0.000001 0.000001 -0.000001 -0.000182" Properties=species:S:1:pos:R:3:forces:R:3
Al 1.564294 0.903146 2.504900 -0.001219 -0.014102 -0.012758
Al 1.564294 0.903146 7.521855 -0.001624 -0.014726 -0.005300
Al 1.564294 0.903146 -2.775158 -0.001435 -0.014869 -0.005326
Al 0.000000 3.612582 2.504900 -0.002923 -0.001438 -0.011499
Al 0.000000 3.612582 7.521855 -0.003332 -0.001563 -0.003102
Ga 0.000000 3.612582 -2.775158 -0.003355 -0.001621 -0.003868
Al 3.173845 -1.884678 2.504900 -0.002738 0.001652 -0.012453
Ga 3.173845 -1.884678 7.521855 -0.003812 0.001464 -0.004030
Ga 3.173845 -1.884678 -2.775158 -0.003739 0.001899 -0.005154
Al -4.783396 0.903146 2.504900 0.000991 -0.013576 -0.011220
Ga -4.783396 0.903146 7.521855 0.000639 -0.016579 -0.004420
Ga -4.783396 0.903146 -2.775158 0.001133 -0.016988 -0.006441
Al -6.347690 3.612582 2.504900 0.000097 0.000023 -0.010303
Ga -6.347690 3.612582 7.521855 -0.000293 -0.000133 -0.000905
Ga -6.347690 3.612582 -2.775158 0.000179 0.000185 -0.002302
Al -3.173845 -1.884678 2.504900 -0.000886 0.003026 -0.011338
Ga -3.173845 -1.884678 7.521855 -0.000155 0.003045 -0.002332
Ga -3.173845 -1.884678 -2.775158 0.000194 0.003652 -0.004243
Ga -1.654808 0.903146 2.504900 0.016164 -0.009109 -0.016019
Ga -1.654808 0.903146 7.521855 0.016679 -0.008779 -0.008952
Al -1.654808 0.903146 -2.775158 0.013714 -0.008139 -0.006595
Al -3.219102 3.612582 2.504900 0.012035 0.005860 -0.011138
Al -3.219102 3.612582 7.521855 0.012409 0.005351 -0.004620
Al -3.219102 3.612582 -2.775158 0.012188 0.005083 -0.005257
Al -0.045257 -1.884678 2.504900 0.012085 0.007725 -0.012135
Ga -0.045257 -1.884678 7.521855 0.015207 0.011051 -0.007132
Al -0.045257 -1.884678 -2.775158 0.011907 0.008627 -0.005175
Ga 0.000000 1.806291 5.013378 -0.015569 -0.011173 -0.007292
Ga 0.000000 1.806291 -5.283635 -0.014711 -0.010652 -0.006515
Al 0.000000 1.806291 -0.266680 -0.011856 -0.008829 0.034932
Al 3.173845 -3.690969 5.013378 -0.012342 -0.005512 -0.005824
Al 3.173845 -3.690969 -5.283635 -0.011939 -0.005448 -0.004740
Ga 3.173845 -3.690969 -0.266680 -0.015274 -0.008148 0.046125
Al 1.609551 -0.981532 5.013378 -0.014132 0.007740 -0.007787
Ga 1.609551 -0.981532 -5.283635 -0.015508 0.009447 -0.008198
Ga 1.609551 -0.981532 -0.266680 -0.016378 0.009706 0.042051
Ga 3.128588 1.806291 5.013378 0.000706 -0.003339 -0.004819
Al 3.128588 1.806291 -5.283635 0.000955 -0.003178 -0.003599
Al 3.128588 1.806291 -0.266680 -0.000062 -0.003506 0.037214
Ga 6.302433 -3.690969 5.013378 0.000158 -0.000040 -0.003591
Al 6.302433 -3.690969 -5.283635 0.000138 -0.000158 -0.002624
Ga 6.302433 -3.690969 -0.266680 0.000296 -0.000736 0.050204
Ga 4.738139 -0.981532 5.013378 -0.000630 0.017459 -0.007071
Al 4.738139 -0.981532 -5.283635 -0.001407 0.013737 -0.004096
Ga 4.738139 -0.981532 -0.266680 -0.000907 0.017382 0.046699
Al -3.219102 1.806291 5.013378 0.003332 -0.001792 -0.005761
Al -3.219102 1.806291 -5.283635 0.002333 -0.001661 -0.004178
Ga -3.219102 1.806291 -0.266680 0.003363 -0.001865 0.046814
Ga -0.045257 -3.690969 5.013378 0.003364 0.001533 -0.004977
Ga -0.045257 -3.690969 -5.283635 0.002921 0.000106 -0.002834
Al -0.045257 -3.690969 -0.266680 0.003172 0.001374 0.037066
Al -1.609551 -0.981532 5.013378 0.001696 0.014921 -0.006730
Ga -1.609551 -0.981532 -5.283635 0.001243 0.018441 -0.005441
Ga -1.609551 -0.981532 -0.266680 0.002473 0.018572 0.044601
N 1.564294 0.903146 4.418497 -0.000834 -0.035429 -0.009644
N 1.564294 0.903146 -5.878516 0.017067 -0.006949 -0.008997
N 1.564294 0.903146 -0.861561 -0.000611 0.003961 0.000592
N 0.000000 3.612582 4.418497 -0.020965 0.010880 -0.012247
N 0.000000 3.612582 -5.878516 -0.002074 0.021835 -0.005990
N 0.000000 3.612582 -0.861561 -0.002176 -0.020758 0.013430
N 3.173845 -1.884678 4.418497 -0.021385 -0.009366 -0.005026
N 3.173845 -1.884678 -5.878516 0.015837 -0.009267 0.017426
N 3.173845 -1.884678 -0.861561 -0.002763 0.001589 0.006078
N -4.783396 0.903146 4.418497 0.019646 -0.006489 -0.008280
N -4.783396 0.903146 -5.878516 0.001090 -0.013786 0.028081
N -4.783396 0.903146 -0.861561 -0.018268 -0.007166 0.017091
N -6.347690 3.612582 4.418497 -0.000821 0.000223 -0.019801
N -6.347690 3.612582 -5.878516 -0.019663 -0.010269 0.018362
N -6.347690 3.612582 -0.861561 0.018121 -0.010382 0.020949
N -3.173845 -1.884678 4.418497 0.017917 0.012956 -0.012954
N -3.173845 -1.884678 -5.878516 -0.019707 -0.009008 0.017568
N -3.173845 -1.884678 -0.861561 -0.001611 0.001876 0.006478
N -1.654808 0.903146 4.418497 -0.001821 -0.016553 0.025123
N -1.654808 0.903146 -5.878516 -0.001797 0.000999 0.019121
N -1.654808 0.903146 -0.861561 0.031280 -0.000953 -0.003581
N -3.219102 3.612582 4.418497 0.031155 -0.005523 -0.001354
N -3.219102 3.612582 -5.878516 0.031189 -0.004723 -0.002790
N -3.219102 3.612582 -0.861561 -0.003141 0.019382 -0.006267
N -0.045257 -1.884678 4.418497 0.011164 0.029533 -0.002583
N -0.045257 -1.884678 -5.878516 0.015058 0.010672 0.006621
N -0.045257 -1.884678 -0.861561 0.014617 -0.011761 -0.006336
N 0.000000 1.806291 1.910020 0.003948 0.000783 -0.035936
N 0.000000 1.806291 6.926975 0.004227 0.001034 0.021889
N 0.000000 1.806291 -3.370038 -0.011645 -0.029562 0.020675
N 3.173845 -3.690969 1.910020 -0.012576 -0.006165 -0.017197
N 3.173845 -3.690969 6.926975 -0.011760 -0.027912 -0.002404
N 3.173845 -3.690969 -3.370038 -0.030802 -0.016866 -0.010864
N 1.609551 -0.981532 1.910020 -0.014286 0.008084 -0.014666
N 1.609551 -0.981532 6.926975 -0.016351 0.027277 -0.006742
N 1.609551 -0.981532 -3.370038 -0.032863 0.018966 0.022633
N 3.128588 1.806291 1.910020 0.001071 -0.001777 -0.032632
N 3.128588 1.806291 6.926975 -0.017645 -0.012951 0.010423
N 3.128588 1.806291 -3.370038 -0.018426 -0.013055 -0.012771
N 6.302433 -3.690969 1.910020 0.000613 -0.000166 -0.020344
N 6.302433 -3.690969 6.926975 -0.018426 -0.011289 0.010775
N 6.302433 -3.690969 -3.370038 0.000366 -0.000457 -0.020716
N 4.738139 -0.981532 1.910020 -0.000836 0.013780 -0.017743
N 4.738139 -0.981532 6.926975 -0.000509 0.018016 0.007077
N 4.738139 -0.981532 -3.370038 -0.000563 0.017325 -0.016578
N -3.219102 1.806291 1.910020 -0.015841 0.009273 -0.028782
N -3.219102 1.806291 6.926975 0.002424 0.019820 -0.013168
N -3.219102 1.806291 -3.370038 0.021665 0.009371 -0.005846
N -0.045257 -3.690969 1.910020 0.002230 0.000128 -0.032414
N -0.045257 -3.690969 6.926975 0.020756 -0.011088 0.010601
N -0.045257 -3.690969 -3.370038 0.020952 0.011436 0.018601
N -1.609551 -0.981532 1.910020 0.001433 -0.003574 -0.023957
N -1.609551 -0.981532 6.926975 0.000942 0.017814 -0.016796
N -1.609551 -0.981532 -3.370038 0.019853 0.024829 0.020199
