108
Energy=-7.570926e+05 Lattice="9.435195e+00 0.000000e+00 0.000000e+00 -4.721009e+00 8.169147e+00 0.000000e+00 -2.725308e-03 4.575283e-03 1.515271e+01" Stress="8.910994e-05 -1.519385e-04 -9.824355e-05 -1.534828e-04 -1.776756e-04 2.170879e-04 -9.495466e-05 2.111116e-04 7.630787e-05" Properties=species:S:1:pos:R:3:forces:R:3 Config_type=AlGaN_super3_7_0_19.xyz
Al 1.549984e+00 8.770837e-01 2.370690e+00 -2.274215e-04 3.306925e-04 4.856496e-04
Al 1.547132e+00 8.799100e-01 7.433347e+00 2.247960e-04 -7.630846e-05 6.464167e-05
Al 1.555027e+00 8.731824e-01 -2.680973e+00 1.274502e-05 -6.403856e-05 -1.318788e-04
Al -3.172140e-02 3.589778e+00 2.392119e+00 -2.860958e-04 -9.792781e-05 -1.085694e-04
Al -2.440764e-02 3.588546e+00 7.401680e+00 -1.342825e-04 -1.072725e-04 3.284664e-05
Al -2.654741e-02 3.578700e+00 -2.662961e+00 4.432751e-04 1.560516e-04 -4.170664e-04
Al 3.128648e+00 -1.855514e+00 2.372423e+00 1.625600e-04 -3.957033e-04 -1.104957e-04
Al 3.131702e+00 -1.851340e+00 7.423719e+00 8.001691e-05 -2.175108e-05 -7.183634e-06
Al 3.134609e+00 -1.849356e+00 -2.666462e+00 -9.565164e-05 -1.034156e-05 3.724972e-05
Al -4.742242e+00 8.722574e-01 2.378041e+00 2.959602e-04 2.128908e-04 1.127705e-04
Al -4.743926e+00 8.703947e-01 7.421471e+00 1.844801e-04 -7.760513e-05 2.990520e-04
Al -4.740181e+00 8.665805e-01 -2.682790e+00 3.084205e-04 9.193381e-06 -1.766879e-04
Al -6.316311e+00 3.584730e+00 2.409438e+00 2.343996e-04 3.026211e-04 6.333457e-05
Al -6.311637e+00 3.590378e+00 7.408081e+00 -3.006436e-05 8.375553e-05 -6.924255e-05
Al -6.308064e+00 3.571942e+00 -2.684031e+00 -1.602979e-03 7.755900e-04 -5.583071e-04
Al -3.175392e+00 -1.846450e+00 2.408993e+00 7.524942e-04 3.245782e-04 4.452941e-04
Al -3.169657e+00 -1.846119e+00 7.408255e+00 2.963652e-05 -3.832589e-05 -1.063736e-04
Al -3.177983e+00 -1.844530e+00 -2.684332e+00 -1.949133e-04 -1.739619e-03 -1.398115e-03
Al -1.597230e+00 8.803045e-01 2.396138e+00 -9.157595e-05 3.628745e-04 2.878173e-04
Al -1.597411e+00 8.748240e-01 7.418434e+00 2.897879e-04 -2.008709e-04 -1.543880e-06
Al -1.601400e+00 8.808159e-01 -2.691008e+00 3.338539e-04 1.938237e-05 -1.032984e-04
Al -3.162251e+00 3.589574e+00 2.396996e+00 2.043685e-04 -1.769733e-04 -4.052583e-05
Al -3.174301e+00 3.592595e+00 7.408405e+00 6.588399e-05 -1.369379e-04 -3.921895e-05
Al -3.167182e+00 3.575375e+00 -2.677119e+00 3.264915e-04 -1.394413e-04 -2.172838e-05
Al -1.703850e-02 -1.847597e+00 2.397505e+00 -1.462315e-03 -7.436429e-04 6.460114e-04
Al -2.896177e-02 -1.854787e+00 7.434357e+00 1.123842e-04 -1.253090e-04 -3.292009e-04
Ga -1.745417e-02 -1.853993e+00 -2.695477e+00 4.162067e-04 -9.777610e-05 -3.819995e-04
Al -2.750616e-02 1.783249e+00 4.902486e+00 -2.136879e-04 -4.938643e-05 1.017495e-04
Al -2.223512e-02 1.759354e+00 -5.206815e+00 -1.238100e-04 4.812810e-05 -5.957396e-06
Al -2.469150e-02 1.771128e+00 -1.457721e-01 -2.229356e-04 3.565594e-04 4.231587e-04
Al 3.127834e+00 -3.673827e+00 4.905636e+00 -1.451550e-04 3.506290e-05 -5.845353e-05
Ga 3.118234e+00 -3.673495e+00 -5.201816e+00 -3.743929e-04 1.083034e-04 -2.653631e-05
Al 3.121995e+00 -3.675550e+00 -1.496124e-01 -1.402233e-05 3.598997e-04 7.479063e-04
Ga 1.554560e+00 -9.427458e-01 4.910570e+00 -7.115018e-04 3.978164e-04 3.258979e-04
Al 1.556853e+00 -9.390240e-01 -5.219496e+00 -3.340707e-04 1.686034e-04 -2.463162e-04
Al 1.569325e+00 -9.367462e-01 -1.332042e-01 8.988769e-06 6.831671e-05 6.839697e-04
Al 3.123874e+00 1.781276e+00 4.905391e+00 -4.316783e-05 -4.493449e-05 2.060785e-04
Al 3.127014e+00 1.765583e+00 -5.209239e+00 -2.362256e-06 4.385277e-05 6.435607e-05
Al 3.123301e+00 1.757798e+00 -1.496145e-01 -4.411529e-05 3.966270e-04 7.611530e-04
Al 6.266638e+00 -3.667670e+00 4.903623e+00 7.130083e-05 3.109437e-05 -1.404176e-04
Ga 6.277786e+00 -3.673046e+00 -5.208899e+00 8.385524e-05 -6.209456e-05 3.398723e-04
Ga 6.258330e+00 -3.677208e+00 -1.338714e-01 -2.761032e-04 -3.425086e-04 -5.375194e-04
Al 4.700591e+00 -9.407649e-01 4.902441e+00 -3.269079e-05 1.029277e-04 1.932140e-04
Al 4.697057e+00 -9.335091e-01 -5.206548e+00 -8.058665e-05 5.815846e-06 1.630904e-04
Al 4.684235e+00 -9.392349e-01 -1.433110e-01 -2.767757e-04 3.242762e-04 -8.023608e-05
Al -3.172279e+00 1.777747e+00 4.903831e+00 6.130339e-05 3.268031e-05 5.266862e-05
Al -3.174096e+00 1.767450e+00 -5.214567e+00 -1.563738e-06 -3.604015e-05 -7.323832e-06
Al -3.169350e+00 1.772384e+00 -1.473625e-01 1.889185e-05 4.307898e-04 1.116909e-03
Al -2.467792e-02 -3.672261e+00 4.903430e+00 7.811805e-07 1.588449e-04 -2.907284e-04
Al -1.989041e-02 -3.680014e+00 -5.218167e+00 -8.952683e-05 -2.378185e-05 -1.488592e-04
Ga -8.631725e-03 -3.688182e+00 -1.253424e-01 3.875084e-06 -1.544334e-04 1.497714e-03
Al -1.601946e+00 -9.398778e-01 4.907363e+00 -5.129341e-05 2.964237e-05 -2.105804e-04
Al -1.595715e+00 -9.368596e-01 -5.220305e+00 -2.435276e-04 3.803480e-05 -1.112092e-04
Ga -1.603101e+00 -9.277084e-01 -1.317577e-01 -7.153393e-05 7.000220e-04 1.988047e-03
N 1.548436e+00 9.202125e-01 4.281412e+00 2.606880e-04 -5.283816e-05 -1.573169e-04
N 1.549956e+00 8.733625e-01 -5.805380e+00 1.459106e-04 -1.202756e-04 8.075157e-05
N 1.548114e+00 8.662751e-01 -7.504101e-01 1.236334e-04 -1.366505e-04 8.968951e-05
N -2.769003e-02 3.592308e+00 4.309686e+00 -6.967528e-05 -8.542289e-05 -6.822166e-05
N -2.388156e-02 3.539997e+00 -5.846497e+00 4.575167e-05 -1.490272e-04 -1.997364e-05
N -6.426413e-02 3.561759e+00 -7.552820e-01 -4.973589e-05 -3.736564e-05 3.502747e-05
N 3.165606e+00 -1.876583e+00 4.283863e+00 2.595254e-04 -1.561507e-04 -1.747875e-04
N 3.132184e+00 -1.812805e+00 -5.823117e+00 8.646041e-05 1.720131e-04 -5.904846e-05
N 3.123460e+00 -1.854376e+00 -7.400584e-01 -8.980143e-05 1.295185e-04 3.872121e-05
N -4.744184e+00 8.720771e-01 4.298743e+00 2.674346e-04 -1.944450e-05 -2.117958e-04
N -4.741493e+00 8.664890e-01 -5.811580e+00 1.475601e-04 -8.425690e-05 -2.625357e-05
N -4.739755e+00 8.663554e-01 -7.537198e-01 1.285034e-04 8.560504e-05 4.454990e-05
N -6.316241e+00 3.589675e+00 4.320646e+00 -1.455134e-04 -6.883452e-05 6.708314e-05
N -6.274027e+00 3.561713e+00 -5.833360e+00 2.009198e-04 -1.991603e-04 -9.151023e-05
N -6.313116e+00 3.541074e+00 -7.759129e-01 4.730970e-04 -9.965985e-05 -1.122069e-03
N -3.170563e+00 -1.849409e+00 4.320804e+00 -6.200635e-05 3.696936e-05 3.698212e-05
N -3.169580e+00 -1.809775e+00 -5.831185e+00 2.080376e-05 5.132490e-04 -1.665661e-04
N -3.209632e+00 -1.830143e+00 -7.799961e-01 2.436104e-04 3.732101e-04 3.574995e-04
N -1.598977e+00 8.766825e-01 4.311542e+00 3.259992e-04 6.003118e-05 8.143192e-05
N -1.596214e+00 8.722366e-01 -5.814281e+00 3.230716e-04 -1.725323e-04 1.485709e-05
N -1.597211e+00 9.181764e-01 -7.746357e-01 -1.096035e-05 -5.409184e-04 -1.354208e-04
N -3.167028e+00 3.593475e+00 4.313331e+00 2.805387e-04 -3.642083e-04 1.922454e-04
N -3.207637e+00 3.564303e+00 -5.834566e+00 2.741689e-04 -1.816810e-04 3.749415e-05
N -3.132063e+00 3.562103e+00 -7.657909e-01 9.482319e-05 -2.277420e-05 2.154065e-04
N -6.134984e-02 -1.870667e+00 4.301126e+00 2.443858e-04 -2.626545e-04 3.422869e-04
N -2.352477e-02 -1.858103e+00 -5.796185e+00 2.467581e-04 -1.811880e-05 2.201464e-04
N 1.778238e-02 -1.832533e+00 -7.265828e-01 4.129317e-04 7.087593e-06 1.412896e-04
N -2.726559e-02 1.778208e+00 1.777074e+00 2.606742e-04 -4.428257e-05 -3.916672e-04
N -2.258970e-02 1.773134e+00 6.815293e+00 -2.227137e-04 6.762807e-06 -1.963945e-05
N -1.967274e-02 1.772678e+00 -3.285453e+00 -2.215507e-04 -9.881856e-05 4.588364e-05
N 3.122743e+00 -3.671214e+00 1.777357e+00 -2.305061e-05 -9.141305e-05 -8.368498e-04
N 3.122799e+00 -3.665816e+00 6.821803e+00 -1.653743e-04 2.105801e-04 -5.199721e-05
N 3.125912e+00 -3.670684e+00 -3.223600e+00 -1.451029e-04 1.683788e-04 1.715341e-04
N 1.551480e+00 -9.442394e-01 1.792422e+00 1.140113e-03 6.707694e-04 -1.850374e-03
N 1.550205e+00 -9.433429e-01 6.884896e+00 -3.089005e-04 1.941364e-04 1.775777e-04
N 1.601318e+00 -9.234083e-01 -3.304668e+00 -3.172201e-04 2.188089e-04 -1.008920e-04
N 3.123740e+00 1.781226e+00 1.773203e+00 -1.791976e-04 -4.868545e-04 -3.178373e-04
N 3.119862e+00 1.773851e+00 6.821030e+00 -8.267194e-05 -1.731546e-04 -1.800858e-04
N 3.123959e+00 1.768898e+00 -3.288135e+00 1.608272e-05 -1.194294e-04 3.044528e-04
N 6.268214e+00 -3.665256e+00 1.844449e+00 4.148473e-04 -3.868133e-04 7.962044e-04
N 6.269421e+00 -3.666063e+00 6.821034e+00 4.908818e-06 -1.506396e-05 2.338067e-04
N 6.268215e+00 -3.675475e+00 -3.230410e+00 6.834651e-04 8.863045e-04 1.556601e-03
N 4.698160e+00 -9.419021e-01 1.776588e+00 -2.201842e-05 -1.962317e-04 -4.771262e-05
N 4.693697e+00 -9.404608e-01 6.815056e+00 -2.567905e-04 1.469415e-04 -7.494966e-05
N 4.693501e+00 -9.454980e-01 -3.286053e+00 -1.255317e-04 -3.062725e-07 -5.191189e-06
N -3.168572e+00 1.779337e+00 1.781435e+00 -5.485396e-05 -3.200814e-04 -8.283274e-04
N -3.172084e+00 1.775689e+00 6.819674e+00 -6.053986e-05 3.121654e-05 -4.271362e-05
N -3.171612e+00 1.773375e+00 -3.293052e+00 -1.412492e-04 -2.672167e-05 1.115893e-04
N -2.048778e-02 -3.672387e+00 1.854606e+00 -3.761686e-04 -2.755779e-05 -1.802217e-03
N -2.199256e-02 -3.663270e+00 6.818385e+00 6.827230e-05 8.629536e-05 1.276115e-04
N -1.719868e-02 -3.723093e+00 -3.304585e+00 -9.418927e-05 1.287377e-05 1.338855e-04
N -1.597510e+00 -9.378287e-01 1.851671e+00 -7.770017e-04 -1.149167e-03 -2.503862e-03
N -1.592053e+00 -9.415412e-01 6.825400e+00 -1.200560e-04 1.842824e-04 1.423906e-04
N -1.635924e+00 -9.213291e-01 -3.306182e+00 -3.216992e-04 2.609323e-04 2.154002e-04
