108
Energy=-2450785.948015 Lattice="9.644665 0.000000 0.000000 -4.819306 8.347536 0.000000 -0.000112 -0.003062 15.646530" Stress="-0.000001 0.000002 0.000002 0.000002 -0.000005 -0.000000 0.000002 -0.000000 -0.000001" Properties=species:S:1:pos:R:3:forces:R:3
Al 1.572314 0.884241 2.461430 -0.000572 -0.000636 -0.000103
Al 1.592824 0.885818 7.672723 -0.000045 0.000029 0.000134
Ga 1.579282 0.897341 -2.752913 0.000016 0.000176 0.000115
Al -0.013608 3.656948 2.476944 -0.000644 -0.000205 -0.000351
Ga -0.009237 3.664868 7.665428 -0.000106 0.000143 0.000050
Al -0.021257 3.667903 -2.757444 0.000015 0.000345 0.000153
Ga 3.188935 -1.895532 2.453290 -0.000827 -0.000244 -0.000102
Ga 3.189008 -1.882887 7.670720 -0.000056 0.000317 0.000083
Ga 3.198514 -1.899085 -2.745156 -0.000072 0.000385 0.000622
Ga -4.858197 0.875978 2.459841 -0.000271 -0.000619 -0.000234
Al -4.850475 0.890089 7.684203 0.000046 -0.000001 0.000124
Ga -4.842326 0.887385 -2.754768 -0.000029 0.000162 -0.000527
Ga -6.468477 3.664118 2.474160 -0.000659 -0.000285 0.000097
Ga -6.462192 3.657928 7.659323 0.000050 0.000150 0.000096
Ga -6.460351 3.667702 -2.753345 0.000085 0.000344 0.000211
Ga -3.246308 -1.910485 2.460790 -0.000415 0.000014 -0.000036
Ga -3.236750 -1.898179 7.675615 0.000009 0.000373 0.000003
Ga -3.239963 -1.895288 -2.753363 -0.000096 0.000350 -0.000042
Ga -1.613988 0.886188 2.465639 -0.000509 -0.000510 -0.000082
Ga -1.632891 0.884363 7.691116 0.000155 0.000061 0.000042
Ga -1.630804 0.892919 -2.775737 0.000283 0.000321 -0.000143
Ga -3.233970 3.671395 2.463878 -0.000390 -0.000380 -0.000139
Ga -3.238660 3.658429 7.687056 0.000149 0.000207 0.000045
Ga -3.229608 3.662426 -2.763798 0.000295 0.000503 0.000038
Al -0.020630 -1.892565 2.465065 -0.000606 -0.000166 -0.000104
Ga -0.022195 -1.883007 7.686527 0.000084 0.000325 -0.000041
Ga -0.030735 -1.890200 -2.763793 0.000322 0.000541 0.000081
Ga -0.007044 1.820903 5.064626 -0.000320 -0.000034 -0.000020
Ga -0.028445 1.810529 -5.369464 -0.000227 0.000069 0.000018
Ga -0.013249 1.835219 -0.134683 -0.001205 -0.001350 0.000405
Ga 3.207053 -3.754880 5.057197 -0.000349 -0.000089 0.000026
Ga 3.192045 -3.757435 -5.352474 -0.000224 -0.000057 0.000119
Ga 3.214832 -3.745694 -0.143124 -0.001434 -0.000713 0.000430
Ga 1.578316 -0.961141 5.058785 -0.000377 0.000286 -0.000191
Ga 1.577034 -0.959510 -5.369542 -0.000288 0.000266 0.000050
Ga 1.593191 -0.957234 -0.127660 -0.001325 -0.001199 0.000460
Ga 3.182083 1.809289 5.078065 0.000101 0.000029 0.000100
Ga 3.200930 1.810005 -5.386054 0.000019 0.000163 -0.000081
Ga 3.203190 1.813210 -0.133784 -0.001585 -0.001253 0.000750
Al 6.397827 -3.753738 5.055554 0.000053 0.000224 0.000156
Ga 6.406326 -3.741600 -5.349878 0.000003 0.000124 0.000078
Ga 6.397080 -3.740620 -0.146938 -0.001421 -0.001110 0.000517
Ga 4.806169 -0.972828 5.086606 0.000031 0.000520 0.000042
Ga 4.813741 -0.953057 -5.378380 0.000071 0.000351 0.000035
Al 4.805551 -0.961183 -0.147910 -0.001240 -0.000993 0.000645
Ga -3.240869 1.810780 5.083692 -0.000209 0.000001 -0.000042
Al -3.241140 1.804019 -5.374490 0.000019 0.000085 -0.000044
Ga -3.236529 1.812709 -0.148275 -0.000834 -0.001103 0.000997
Ga -0.032143 -3.743345 5.064552 0.000018 0.000159 0.000094
Ga -0.026164 -3.747820 -5.368639 -0.000022 0.000084 0.000140
Ga -0.018731 -3.737604 -0.134247 -0.001111 -0.001002 0.000666
Ga -1.630503 -0.980464 5.057997 -0.000176 0.000319 -0.000027
Al -1.637516 -0.958818 -5.364504 -0.000013 0.000313 0.000100
Ga -1.631973 -0.960990 -0.134046 -0.000856 -0.000886 0.000731
N 1.585738 0.889018 4.378280 0.000004 -0.000605 -0.000391
N 1.582537 0.890983 -6.054520 0.000069 -0.000352 -0.000449
N 1.585990 0.894074 -0.776497 0.000661 0.000333 -0.000045
N 0.022275 3.689270 4.401241 0.000141 -0.000057 -0.000245
N -0.016554 3.674493 -6.007296 0.000002 -0.000139 -0.000039
N -0.018032 3.670668 -0.841040 0.000749 0.000514 -0.000363
N 3.195784 -1.890933 4.434258 -0.000153 -0.000194 0.000074
N 3.191271 -1.895009 -5.996481 -0.000018 -0.000116 -0.000233
N 3.231361 -1.867510 -0.752999 0.001124 0.000643 0.000196
N -4.847799 0.884186 4.435201 0.000098 -0.000477 -0.000114
N -4.803554 0.915417 -6.040466 0.000262 -0.000159 -0.000232
N -4.842867 0.844381 -0.768922 0.000549 0.000206 0.000064
N -6.493648 3.688344 4.462587 -0.000383 -0.000038 -0.000075
N -6.458057 3.675559 -6.008415 0.000019 -0.000137 0.000011
N -6.448858 3.673111 -0.770280 0.000720 0.000522 -0.000230
N -3.244406 -1.942947 4.447054 0.000080 -0.000461 0.000040
N -3.193881 -1.874903 -5.986194 0.000237 0.000093 0.000128
N -3.274220 -1.864485 -0.764192 0.000279 0.000381 0.000009
N -1.628717 0.891074 4.443043 0.000251 -0.000415 0.000037
N -1.671909 0.865978 -5.960849 0.000045 -0.000370 0.000169
N -1.624274 0.892353 -0.788167 0.000848 0.000435 0.000323
N -3.237023 3.668024 4.440115 0.000244 -0.000123 0.000066
N -3.235049 3.623905 -5.974102 0.000313 -0.000280 0.000078
N -3.233345 3.673687 -0.779211 0.000938 0.000602 0.000098
N -0.021876 -1.894972 4.381157 0.000278 -0.000095 -0.000294
N -0.067936 -1.866052 -5.978048 0.000066 0.000173 0.000070
N -0.023429 -1.886171 -0.784595 0.000939 0.000693 -0.000006
N 0.014443 1.837820 1.862623 0.001101 0.000972 -0.000478
N 0.019528 1.787294 7.055420 0.000115 -0.000350 0.000076
N -0.020429 1.863991 -3.384410 -0.000037 -0.000037 0.000092
N 3.235321 -3.785121 1.848292 0.001211 0.000493 -0.000489
N 3.191631 -3.752590 7.037341 -0.000143 -0.000354 -0.000042
N 3.232817 -3.771348 -3.367089 0.000163 -0.000462 -0.000005
N 1.536977 -0.950115 1.865186 0.000647 0.001232 -0.000208
N 1.580412 -0.918826 7.046609 -0.000196 0.000077 0.000306
N 1.587663 -0.963893 -3.390118 -0.000220 -0.000159 -0.000100
N 3.143415 1.784788 1.849759 0.000880 0.000691 -0.000250
N 3.191701 1.761212 7.074065 -0.000115 -0.000436 0.000114
N 3.192922 1.812978 -3.403895 0.000063 -0.000327 0.000164
N 6.354018 -3.784562 1.836186 0.000856 0.000689 -0.000120
N 6.402078 -3.747952 6.976497 -0.000056 -0.000286 -0.000531
N 6.363636 -3.770446 -3.366541 -0.000307 -0.000415 0.000126
N 4.796124 -0.975659 1.772376 0.000939 0.001109 -0.000813
N 4.802559 -0.919316 7.070010 -0.000053 0.000127 0.000067
N 4.798719 -0.965008 -3.400833 0.000055 -0.000058 0.000004
N -3.242810 1.805406 1.829295 0.001000 0.000847 -0.000674
N -3.278470 1.788127 7.065022 -0.000221 -0.000304 0.000005
N -3.243883 1.812696 -3.449996 0.000049 -0.000245 -0.000285
N -0.034307 -3.711147 1.855912 0.001177 0.001290 -0.000643
N -0.023078 -3.745066 7.045740 0.000013 -0.000184 -0.000051
N -0.026361 -3.750926 -3.390330 0.000029 -0.000199 -0.000163
N -1.597764 -0.999799 1.852884 0.001182 0.000964 -0.000444
N -1.629668 -0.967751 7.033115 0.000072 -0.000100 -0.000006
N -1.635550 -0.967109 -3.442746 0.000119 -0.000053 -0.000443
