108
Energy=-8.028680e+05 Lattice="9.440027e+00 0.000000e+00 0.000000e+00 -4.720809e+00 8.173181e+00 0.000000e+00 9.112507e-04 5.326962e-03 1.516874e+01" Stress="7.225408e-04 -3.211502e-04 -1.074481e-04 -3.237213e-04 -4.481888e-04 5.024728e-05 -1.035471e-04 4.556186e-05 -3.904330e-04" Properties=species:S:1:pos:R:3:forces:R:3 Config_type=AlGaN_super3_8_2_21.xyz
Al 1.541647e+00 8.740194e-01 2.409717e+00 2.693407e-04 7.766138e-04 -4.547728e-04
Al 1.549955e+00 8.727742e-01 7.433212e+00 5.439877e-05 -5.020499e-05 1.439181e-04
Al 1.551743e+00 8.788294e-01 -2.706493e+00 2.774204e-05 1.437396e-03 4.292505e-04
Al -1.188339e-02 3.589422e+00 2.373461e+00 8.652351e-04 -2.495740e-04 -1.043081e-03
Al -1.633599e-02 3.590487e+00 7.453323e+00 -7.035399e-04 2.945714e-04 -2.117726e-04
Al -2.758317e-02 3.584983e+00 -2.689611e+00 -1.806200e-04 2.491217e-05 1.913157e-04
Al 3.132678e+00 -1.846545e+00 2.386764e+00 1.956762e-03 -5.392016e-04 6.203207e-04
Al 3.126385e+00 -1.846447e+00 7.448464e+00 -2.446201e-04 -2.433017e-04 -1.406074e-04
Al 3.129064e+00 -1.857918e+00 -2.697763e+00 -1.276037e-03 2.848920e-04 -1.664843e-03
Al -4.741721e+00 8.588360e-01 2.396762e+00 -4.991257e-04 2.122407e-03 -1.847566e-03
Al -4.743082e+00 8.703696e-01 7.438230e+00 -2.785454e-06 3.949748e-05 9.357153e-05
Al -4.746413e+00 8.726870e-01 -2.700386e+00 -5.343848e-05 -8.739152e-05 2.938057e-03
Al -6.333669e+00 3.595616e+00 2.415869e+00 4.707744e-04 4.357245e-03 7.105648e-04
Al -6.318578e+00 3.594319e+00 7.434338e+00 1.912881e-05 -1.177326e-04 7.518223e-05
Al -6.323183e+00 3.578166e+00 -2.707383e+00 1.446299e-03 5.953548e-04 -3.409462e-03
Al -3.178260e+00 -1.858790e+00 2.371663e+00 8.822983e-05 -8.344380e-05 -9.596661e-04
Al -3.177280e+00 -1.858134e+00 7.447274e+00 5.031950e-04 4.665409e-04 -2.423999e-04
Ga -3.177272e+00 -1.855664e+00 -2.674367e+00 8.015894e-05 -1.602217e-04 -1.617143e-04
Al -1.594193e+00 8.725580e-01 2.377900e+00 1.341462e-03 -4.324190e-04 -1.666099e-03
Al -1.595255e+00 8.816672e-01 7.448844e+00 1.301675e-04 5.840330e-04 3.533213e-04
Al -1.596371e+00 8.804104e-01 -2.687554e+00 1.921810e-04 6.183707e-04 6.358676e-04
Ga -3.163468e+00 3.581650e+00 2.382439e+00 -7.507958e-04 4.350195e-04 5.822230e-04
Al -3.174554e+00 3.590201e+00 7.450013e+00 -4.213814e-06 3.124242e-05 6.147748e-05
Al -3.161635e+00 3.583546e+00 -2.698182e+00 6.877961e-04 6.028291e-04 -1.464265e-03
Al -2.874352e-02 -1.847103e+00 2.405767e+00 1.763183e-03 -9.851405e-04 -2.693143e-03
Al -1.411485e-02 -1.855917e+00 7.450011e+00 -1.066221e-04 3.534576e-04 1.158787e-05
Ga -1.859104e-02 -1.846994e+00 -2.706433e+00 -3.287046e-05 -2.196794e-04 3.510384e-05
Al -1.804681e-02 1.780823e+00 4.918769e+00 7.042400e-04 6.254316e-04 -2.365907e-04
Al -2.418939e-02 1.775204e+00 -5.209991e+00 7.160341e-05 -6.555589e-05 2.308943e-04
Al -3.529515e-02 1.782466e+00 -1.578218e-01 -1.291839e-04 2.328370e-04 1.819289e-04
Ga 3.134907e+00 -3.670305e+00 4.928199e+00 -2.620809e-04 1.853433e-04 4.353854e-04
Al 3.125062e+00 -3.674488e+00 -5.216821e+00 -1.209366e-04 3.025198e-05 4.403431e-04
Al 3.139409e+00 -3.677581e+00 -1.596279e-01 2.681514e-03 2.610874e-03 -2.727050e-03
Al 1.555535e+00 -9.397500e-01 4.919179e+00 6.880537e-04 6.378609e-05 -4.106967e-05
Al 1.557774e+00 -9.449668e-01 -5.220590e+00 -1.846379e-04 3.899254e-04 -7.585551e-04
Ga 1.564601e+00 -9.407824e-01 -1.413155e-01 -5.755255e-04 1.136063e-04 2.924142e-04
Al 3.123962e+00 1.776903e+00 4.915288e+00 -1.462420e-04 3.020426e-04 -1.340519e-04
Al 3.123583e+00 1.774645e+00 -5.219261e+00 -1.442887e-04 -5.472749e-05 9.991811e-05
Ga 3.125459e+00 1.781017e+00 -1.393052e-01 -3.707637e-04 -4.577155e-05 -7.618381e-05
Al 6.270451e+00 -3.676578e+00 4.918857e+00 7.760880e-04 7.561938e-04 -2.879124e-04
Al 6.269200e+00 -3.678173e+00 -5.220057e+00 3.181548e-05 -8.695990e-05 2.983502e-04
Al 6.257814e+00 -3.673923e+00 -1.430853e-01 2.360103e-03 -1.529967e-03 -6.688336e-04
Al 4.695523e+00 -9.405075e-01 4.917886e+00 -3.625239e-04 -5.463618e-04 -5.835873e-04
Al 4.693942e+00 -9.466010e-01 -5.218674e+00 -1.673466e-04 2.587368e-05 9.978623e-04
Al 4.703826e+00 -9.482588e-01 -1.462360e-01 -3.667114e-04 -1.943204e-03 1.943335e-03
Al -3.177059e+00 1.769046e+00 4.932792e+00 1.071812e-03 -3.675228e-04 -4.095418e-04
Al -3.170345e+00 1.773930e+00 -5.209389e+00 1.142704e-06 7.853676e-05 4.376021e-05
Al -3.159591e+00 1.762991e+00 -1.644890e-01 1.254402e-03 5.916510e-04 -3.160932e-03
Al -3.232104e-02 -3.674491e+00 4.933542e+00 1.022839e-03 -9.654529e-04 -7.662009e-04
Al -2.302629e-02 -3.680837e+00 -5.221563e+00 1.408388e-04 1.406963e-04 -7.508980e-04
Ga -2.197019e-02 -3.678650e+00 -1.570101e-01 -8.921944e-04 4.941359e-04 1.245852e-03
Ga -1.597268e+00 -9.429991e-01 4.917117e+00 -5.435053e-04 1.022111e-04 2.603046e-04
Al -1.599420e+00 -9.428550e-01 -5.237965e+00 -2.739129e-05 1.083183e-04 3.499384e-04
Al -1.608802e+00 -9.312088e-01 -1.224869e-01 7.909160e-04 8.392928e-05 1.799934e-04
N 1.545646e+00 8.723918e-01 4.327492e+00 1.717737e-04 -3.610444e-04 8.437546e-05
N 1.548333e+00 8.704073e-01 -5.817025e+00 2.093738e-05 1.210528e-04 -4.528757e-04
N 1.512339e+00 8.975721e-01 -7.954715e-01 -1.154334e-04 -3.470996e-04 -1.305105e-04
N 2.225365e-02 3.571670e+00 4.286851e+00 -1.077116e-03 -8.627256e-04 4.271613e-04
N -2.200036e-02 3.587209e+00 -5.805877e+00 -7.849385e-05 7.931122e-05 -3.464284e-04
N -2.214970e-02 3.591349e+00 -7.629370e-01 9.361160e-04 -1.963318e-05 1.571306e-05
N 3.125693e+00 -1.810434e+00 4.296639e+00 8.268036e-04 4.907021e-04 1.293241e-03
N 3.125257e+00 -1.856233e+00 -5.810705e+00 1.432843e-04 -7.348877e-05 -1.890210e-04
N 3.171329e+00 -1.872499e+00 -7.886883e-01 -1.007042e-03 -2.248105e-03 3.145952e-03
N -4.739407e+00 8.684132e-01 4.319057e+00 3.341499e-04 9.882745e-06 -4.853755e-04
N -4.742768e+00 8.685490e-01 -5.814384e+00 1.580657e-04 -1.550916e-04 -2.663332e-05
N -4.705124e+00 8.354605e-01 -7.619918e-01 -3.441398e-04 4.305996e-03 -6.692093e-03
N -6.320258e+00 3.596434e+00 4.332565e+00 3.734366e-04 4.089394e-04 4.533746e-04
N -6.318728e+00 3.589586e+00 -5.819238e+00 -7.241449e-05 -1.977206e-05 -2.589375e-04
N -6.350978e+00 3.611533e+00 -8.169056e-01 -3.360501e-03 1.823900e-03 5.371872e-03
N -3.211257e+00 -1.877729e+00 4.288304e+00 -4.658538e-04 -4.725007e-04 1.342063e-03
N -3.176309e+00 -1.861360e+00 -5.809748e+00 6.981578e-06 6.881996e-05 -1.652547e-04
N -3.166543e+00 -1.855830e+00 -6.886887e-01 5.099715e-04 -4.010150e-04 -6.887518e-04
N -1.592650e+00 9.228812e-01 4.287936e+00 -1.983335e-03 2.046483e-04 2.051232e-03
N -1.596766e+00 8.775601e-01 -5.812506e+00 -5.040105e-06 -5.447795e-05 -1.305963e-04
N -1.594423e+00 8.652800e-01 -7.612510e-01 3.817732e-04 -2.945709e-04 -4.169871e-04
N -3.204791e+00 3.563944e+00 4.352392e+00 -1.357687e-03 1.120516e-03 1.032311e-03
N -3.170811e+00 3.587138e+00 -5.805151e+00 2.447333e-04 -1.752956e-04 -4.777862e-04
N -3.116318e+00 3.575172e+00 -7.808958e-01 -3.393155e-03 -3.111014e-03 1.483197e-03
N 1.916153e-02 -1.878606e+00 4.312654e+00 -3.226416e-04 -1.560512e-04 2.725499e-04
N -1.716037e-02 -1.859607e+00 -5.804189e+00 -1.396979e-04 9.521290e-05 -4.479141e-04
N -6.277656e-02 -1.825065e+00 -7.412201e-01 -4.671308e-04 4.003081e-04 4.186548e-04
N -2.142530e-02 1.775485e+00 1.769114e+00 -8.534347e-05 -4.597690e-04 -5.588316e-05
N -2.375085e-02 1.781067e+00 6.836763e+00 -1.772934e-04 2.360627e-04 -2.521473e-04
N -2.691054e-02 1.776978e+00 -3.292699e+00 -1.348398e-04 1.896340e-04 -5.901011e-05
N 3.168709e+00 -3.645711e+00 1.753112e+00 -3.736803e-04 -1.505564e-04 2.248684e-03
N 3.125282e+00 -3.669705e+00 6.900860e+00 1.155006e-03 -1.379894e-04 9.290188e-04
N 3.126045e+00 -3.673418e+00 -3.293431e+00 1.047385e-04 2.113570e-04 -7.824885e-04
N 1.563146e+00 -9.448083e-01 1.839665e+00 -4.229130e-03 1.294847e-03 -2.938463e-04
N 1.553008e+00 -9.457031e-01 6.840081e+00 -2.535222e-05 6.814061e-05 -1.167325e-04
N 1.593956e+00 -9.140031e-01 -3.316551e+00 1.261307e-03 -2.853512e-03 1.367070e-03
N 3.114152e+00 1.801465e+00 1.849707e+00 3.125590e-03 -9.031278e-03 -7.919621e-04
N 3.125078e+00 1.777855e+00 6.835628e+00 3.693864e-05 -8.178126e-05 -7.871504e-05
N 3.125037e+00 1.773857e+00 -3.301206e+00 5.109935e-04 -5.802077e-05 -8.675444e-05
N 6.273210e+00 -3.677563e+00 1.777665e+00 2.760069e-04 4.796675e-04 -6.088277e-04
N 6.267981e+00 -3.669819e+00 6.838511e+00 -7.289304e-05 2.456713e-04 -7.859435e-05
N 6.265847e+00 -3.716975e+00 -3.310433e+00 -3.764997e-05 7.361451e-05 -2.673225e-04
N 4.692256e+00 -9.421042e-01 1.774942e+00 -2.713107e-04 3.400472e-04 4.746714e-04
N 4.698681e+00 -9.455407e-01 6.837607e+00 -1.344729e-04 -5.733241e-05 -2.361043e-04
N 4.657289e+00 -9.252861e-01 -3.305880e+00 9.039907e-04 5.359944e-04 -2.131145e-03
N -3.165176e+00 1.724822e+00 1.735510e+00 -3.230730e-03 -1.316303e-04 5.173898e-03
N -3.169476e+00 1.775196e+00 6.846447e+00 -3.920727e-05 2.569021e-05 -4.312245e-04
N -3.169213e+00 1.773629e+00 -3.290249e+00 -5.231753e-04 -7.578326e-05 2.752056e-04
N -6.577152e-02 -3.656882e+00 1.815789e+00 -4.207422e-04 1.932978e-03 5.433571e-04
N -2.357643e-02 -3.668592e+00 6.850218e+00 -5.579381e-05 3.044760e-05 -2.918053e-04
N -1.768101e-02 -3.717370e+00 -3.315791e+00 -1.233480e-03 -1.403698e-03 2.215814e-03
N -1.596877e+00 -9.432497e-01 1.800727e+00 7.048585e-04 -2.325824e-04 -7.382619e-05
N -1.595224e+00 -9.393100e-01 6.897104e+00 -4.174438e-04 -1.834790e-03 3.816220e-04
N -1.605228e+00 -8.953226e-01 -3.333254e+00 1.213395e-04 -7.190269e-04 -7.767275e-04
