108
Energy=-1.855704e+06 Lattice="9.572561e+00 0.000000e+00 0.000000e+00 -4.792730e+00 8.282995e+00 0.000000e+00 8.485490e-03 8.499722e-03 1.549142e+01" Stress="3.586244e-04 -1.355141e-04 3.207615e-04 -1.280034e-04 -4.540446e-04 3.356233e-04 3.267034e-04 3.332235e-04 2.417657e-03" Properties=species:S:1:pos:R:3:forces:R:3 Config_type=AlGaN_super3_31_2_13.xyz
Al 1.582838e+00 8.887579e-01 2.409935e+00 -5.760097e-04 -1.730893e-05 8.866437e-06
Al 1.573336e+00 8.949417e-01 7.596727e+00 8.460739e-04 1.160033e-04 2.263607e-03
Al 1.570158e+00 8.602552e-01 -2.723040e+00 -3.124325e-04 2.596471e-04 2.836983e-04
Al -7.724040e-03 3.635861e+00 2.405939e+00 -6.205336e-04 9.321887e-04 -1.481838e-03
Al -2.401430e-02 3.639948e+00 7.612158e+00 9.565748e-05 4.889926e-07 1.010434e-03
Ga -2.552465e-02 3.624086e+00 -2.724610e+00 -1.264632e-03 8.870361e-05 8.584162e-04
Al 3.178369e+00 -1.860007e+00 2.419281e+00 -2.200943e-04 -1.114590e-03 1.140247e-03
Ga 3.186955e+00 -1.882231e+00 7.623623e+00 1.950937e-04 -4.137521e-05 1.350083e-03
Al 3.163579e+00 -1.867583e+00 -2.757376e+00 7.144343e-04 -1.736395e-03 -2.616589e-04
Al -4.820617e+00 8.838888e-01 2.445607e+00 3.598203e-04 9.493784e-04 -1.759679e-04
Ga -4.818306e+00 8.826459e-01 7.591637e+00 4.458670e-04 -7.082702e-05 9.074385e-04
Al -4.831630e+00 8.563566e-01 -2.735531e+00 9.846617e-04 5.279245e-04 -1.571097e-04
Al -6.425553e+00 3.638207e+00 2.442982e+00 -3.962105e-04 4.046042e-04 -2.467238e-04
Ga -6.414800e+00 3.636917e+00 7.585852e+00 3.866192e-04 -1.915564e-04 2.750929e-04
Ga -6.418439e+00 3.621913e+00 -2.712224e+00 3.733117e-04 1.426509e-05 -4.031581e-04
Al -3.220937e+00 -1.877632e+00 2.383303e+00 4.093712e-04 -3.877071e-04 4.468295e-03
Al -3.217401e+00 -1.878150e+00 7.605026e+00 1.851415e-04 -2.690545e-05 1.215632e-03
Ga -3.231302e+00 -1.879805e+00 -2.703680e+00 3.348522e-05 2.529176e-04 1.019183e-03
Al -1.614323e+00 8.816396e-01 2.413333e+00 7.310980e-04 1.477578e-04 -4.234455e-05
Ga -1.608315e+00 9.026044e-01 7.607634e+00 9.466593e-04 -8.012550e-04 7.158136e-04
Ga -1.615217e+00 8.819296e-01 -2.714959e+00 1.200527e-03 1.584016e-04 4.213220e-04
Ga -3.206069e+00 3.643138e+00 2.436841e+00 2.932124e-04 3.020724e-04 -9.504340e-04
Al -3.196366e+00 3.652713e+00 7.607952e+00 5.076122e-06 -3.489896e-04 8.188890e-04
Ga -3.215731e+00 3.638310e+00 -2.723186e+00 1.614721e-03 6.200493e-05 -5.115244e-04
Ga -2.210007e-02 -1.854237e+00 2.417468e+00 6.336253e-04 -4.733515e-04 5.197592e-05
Ga -9.586899e-03 -1.863854e+00 7.605759e+00 6.687418e-04 -5.322270e-04 4.511774e-04
Ga -2.350426e-03 -1.865257e+00 -2.708830e+00 5.094459e-04 -1.380257e-04 4.054152e-04
Ga -5.841175e-04 1.807557e+00 4.991778e+00 -1.181472e-03 -1.449446e-04 1.422534e-03
Al -1.422621e-02 1.794250e+00 -5.320336e+00 -9.261960e-05 9.363152e-04 1.508313e-03
Al -1.696137e-02 1.781625e+00 -1.346492e-01 -7.658650e-04 7.141857e-04 1.510909e-03
Ga 3.192076e+00 -3.717498e+00 5.014389e+00 -7.648572e-04 6.059032e-04 9.990466e-04
Al 3.176090e+00 -3.723532e+00 -5.318107e+00 1.876350e-05 3.279884e-04 1.247181e-03
Ga 3.182544e+00 -3.712914e+00 -1.408538e-01 2.809234e-05 3.352557e-04 7.137878e-05
Ga 1.599323e+00 -9.361775e-01 5.004479e+00 -7.937688e-04 4.341130e-04 1.269530e-03
Al 1.586795e+00 -9.514074e-01 -5.305881e+00 2.852243e-05 2.557226e-04 9.770118e-04
Al 1.573714e+00 -9.522311e-01 -1.545927e-01 -8.568363e-04 1.603969e-04 1.103184e-03
Al 3.160099e+00 1.801902e+00 4.988356e+00 2.489733e-04 8.476834e-05 9.427538e-04
Ga 3.142728e+00 1.769340e+00 -5.295736e+00 6.048107e-06 5.122921e-04 1.384734e-03
Ga 3.142337e+00 1.784226e+00 -1.402527e-01 7.618003e-04 8.752742e-04 1.333407e-03
Ga 6.361267e+00 -3.718315e+00 5.003732e+00 2.872894e-04 6.637300e-04 5.763819e-04
Ga 6.333848e+00 -3.721150e+00 -5.328191e+00 1.673085e-04 -4.627776e-05 1.239724e-03
Al 6.358572e+00 -3.730117e+00 -1.190528e-01 -4.624172e-04 1.150282e-04 5.884058e-04
Ga 4.776224e+00 -9.557430e-01 4.986425e+00 -3.094838e-04 4.657747e-04 1.679565e-03
Al 4.755474e+00 -9.729875e-01 -5.299206e+00 -7.022453e-04 -4.952253e-04 1.358111e-03
Ga 4.751576e+00 -9.697341e-01 -1.312045e-01 -2.987590e-04 9.887606e-04 -3.815872e-03
Ga -3.218170e+00 1.806527e+00 5.008866e+00 -4.683010e-04 -5.698554e-04 8.062431e-04
Ga -3.216795e+00 1.801722e+00 -5.307804e+00 -5.111901e-04 4.884616e-04 3.844903e-04
Ga -3.219544e+00 1.778503e+00 -1.301979e-01 1.430441e-04 2.441988e-04 -3.834785e-04
Ga -2.031329e-02 -3.721143e+00 5.017997e+00 -6.635941e-04 -1.611579e-04 -2.391686e-04
Ga -4.567023e-03 -3.717212e+00 -5.313221e+00 -3.361751e-04 -2.079472e-04 7.198464e-04
Ga -3.887428e-02 -3.711384e+00 -1.280016e-01 4.022975e-05 3.742287e-04 1.366103e-03
Ga -1.620956e+00 -9.517107e-01 5.005314e+00 -1.129211e-03 5.139418e-04 4.444524e-04
Ga -1.619861e+00 -9.587782e-01 -5.309907e+00 -9.568070e-04 -4.588147e-05 9.003659e-04
Al -1.614667e+00 -9.566840e-01 -1.271222e-01 -5.904161e-04 2.112491e-04 1.630168e-04
N 1.613660e+00 9.097125e-01 4.327572e+00 7.280718e-04 -5.466075e-04 -2.986268e-04
N 1.527922e+00 8.534941e-01 -5.960447e+00 -3.548365e-04 -5.810481e-04 -1.959876e-03
N 1.520370e+00 8.504198e-01 -7.904362e-01 -6.844126e-07 -8.582804e-05 -5.751183e-04
N -1.767081e-02 3.645599e+00 4.317419e+00 -1.492586e-04 -4.718965e-04 3.217532e-04
N -7.150731e-02 3.609306e+00 -5.948987e+00 -8.800311e-04 -8.821329e-04 -1.368630e-03
N 1.205586e-02 3.608227e+00 -7.283959e-01 1.017646e-03 -8.234623e-04 -2.490109e-04
N 3.175469e+00 -1.876135e+00 4.337484e+00 1.704602e-06 -4.036095e-04 -2.250499e-03
N 3.170058e+00 -1.883283e+00 -5.872247e+00 -1.166256e-04 -1.167535e-04 -3.211825e-04
N 3.124594e+00 -1.858601e+00 -8.232907e-01 -5.181925e-04 5.969464e-05 -1.662727e-03
N -4.849890e+00 9.102285e-01 4.364949e+00 2.481148e-04 2.080364e-04 -1.344672e-03
N -4.821969e+00 8.280913e-01 -5.916868e+00 7.407077e-04 -3.791879e-04 -6.135658e-04
N -4.821478e+00 8.694033e-01 -8.232792e-01 2.710458e-04 5.063921e-04 5.276952e-04
N -6.409525e+00 3.604292e+00 4.369052e+00 2.932147e-04 -5.907283e-04 -9.486759e-04
N -6.411223e+00 3.628911e+00 -5.930846e+00 -6.899010e-06 -1.056843e-04 -7.191923e-04
N -6.456169e+00 3.656304e+00 -7.418010e-01 -4.990881e-04 2.293630e-04 3.760290e-04
N -3.200737e+00 -1.879690e+00 4.313684e+00 -1.096690e-03 -1.327306e-05 -3.387854e-03
N -3.258618e+00 -1.856421e+00 -5.964413e+00 -3.036704e-04 6.950753e-04 -1.470003e-03
N -3.181127e+00 -1.909068e+00 -7.124755e-01 1.355283e-03 -2.073232e-04 3.146266e-04
N -1.615384e+00 8.914045e-01 4.336602e+00 1.448876e-03 -2.765752e-04 -1.245824e-03
N -1.584235e+00 9.069118e-01 -5.909342e+00 1.318499e-03 -4.837865e-04 -9.248585e-04
N -1.583343e+00 8.591084e-01 -7.262082e-01 1.687002e-03 -6.357243e-04 -4.589143e-04
N -3.208579e+00 3.653818e+00 4.395218e+00 6.712534e-04 -2.543047e-04 -3.067802e-05
N -3.176817e+00 3.664015e+00 -5.962470e+00 9.944909e-04 -2.938479e-04 -1.255572e-03
N -3.220544e+00 3.638778e+00 -7.556163e-01 2.093273e-04 -3.010533e-05 1.515411e-03
N -1.246453e-02 -1.863924e+00 4.393158e+00 8.826033e-04 -4.113760e-04 -6.038765e-04
N 2.119608e-02 -1.851576e+00 -5.909315e+00 8.808315e-04 1.407762e-04 -7.044113e-04
N -2.349294e-02 -1.830252e+00 -7.192827e-01 5.926324e-04 3.689948e-04 7.418480e-05
N -1.626587e-02 1.793204e+00 1.800959e+00 -3.744621e-04 8.324729e-04 -1.476407e-04
N 2.622426e-02 1.829255e+00 6.990799e+00 -5.192668e-05 9.573684e-04 -1.348854e-03
N 2.096884e-02 1.767359e+00 -3.389647e+00 2.911466e-04 5.777031e-05 -1.059871e-03
N 3.218530e+00 -3.683973e+00 1.837200e+00 8.731940e-04 -9.275507e-04 1.880752e-05
N 3.185414e+00 -3.761626e+00 7.008811e+00 1.963672e-04 -2.137652e-05 -1.058050e-03
N 3.174238e+00 -3.690150e+00 -3.387450e+00 2.070825e-05 2.111880e-03 -1.891846e-04
N 1.623395e+00 -9.319672e-01 1.775754e+00 4.470619e-04 1.240164e-03 -4.103614e-04
N 1.595660e+00 -9.059659e-01 6.988555e+00 -8.742818e-04 4.307990e-04 -1.120126e-03
N 1.613398e+00 -9.357786e-01 -3.377192e+00 -1.319462e-04 3.122926e-04 3.444127e-04
N 3.172263e+00 1.809640e+00 1.856591e+00 -6.761649e-04 -1.604165e-03 -2.121287e-03
N 3.125898e+00 1.778070e+00 6.923371e+00 -6.900879e-04 -2.210976e-04 -2.309892e-03
N 3.154500e+00 1.744556e+00 -3.308236e+00 -7.503635e-05 -7.010417e-04 -1.589753e-05
N 6.365204e+00 -3.721860e+00 1.807390e+00 9.266913e-06 -7.074364e-05 -4.709649e-05
N 6.319345e+00 -3.691773e+00 7.004136e+00 -8.219788e-04 1.870236e-04 -8.226044e-04
N 6.355868e+00 -3.723168e+00 -3.355032e+00 8.037101e-05 2.752028e-04 -1.215267e-03
N 4.753291e+00 -9.396266e-01 1.837072e+00 1.942193e-03 -2.100043e-03 5.666633e-03
N 4.811020e+00 -9.810447e-01 6.972795e+00 -2.115652e-04 -3.025856e-04 -1.652834e-03
N 4.729963e+00 -9.482971e-01 -3.367732e+00 -9.136160e-04 2.356598e-04 -5.684696e-04
N -3.218663e+00 1.756425e+00 1.847440e+00 -8.787700e-04 -1.292953e-03 8.352976e-04
N -3.212613e+00 1.852476e+00 6.993611e+00 -4.611064e-04 5.250738e-04 -8.636600e-04
N -3.259547e+00 1.771279e+00 -3.328809e+00 -1.360112e-03 -7.107546e-04 1.215974e-04
N -6.199295e-02 -3.738460e+00 1.848059e+00 -9.399710e-04 -6.082234e-04 -1.629306e-03
N 2.637067e-02 -3.736869e+00 6.997782e+00 9.861976e-05 -1.655670e-04 -2.345607e-04
N -2.350846e-02 -3.721946e+00 -3.339910e+00 -6.747092e-04 2.791845e-04 -2.348473e-04
N -1.657536e+00 -9.315720e-01 1.793354e+00 -9.730725e-04 6.896574e-04 -2.300816e-03
N -1.654250e+00 -9.741350e-01 6.993366e+00 -1.209465e-03 -1.455906e-06 -8.946755e-04
N -1.620012e+00 -9.683998e-01 -3.338485e+00 -1.144769e-03 5.788193e-06 -4.703754e-04
