108
Energy=-1.169072e+06 Lattice="9.481797e+00 0.000000e+00 0.000000e+00 -4.743103e+00 8.210324e+00 0.000000e+00 -1.020098e-03 -9.562300e-04 1.528434e+01" Stress="-4.254353e-05 -1.281402e-04 9.229691e-05 -1.221068e-04 -2.733412e-04 2.415049e-05 6.742419e-05 2.538109e-05 5.891426e-05" Properties=species:S:1:pos:R:3:forces:R:3 Config_type=AlGaN_super3_16_1_29.xyz
Al 1.569119e+00 8.639298e-01 2.407788e+00 -1.027892e-04 -6.987544e-06 -9.265107e-05
Al 1.564589e+00 8.598736e-01 7.490871e+00 1.168427e-05 3.357265e-06 4.513302e-05
Al 1.565262e+00 8.693868e-01 -2.706517e+00 1.167400e-04 -6.513057e-05 6.045647e-05
Al -1.944209e-02 3.613432e+00 2.389397e+00 -1.267901e-04 -7.122876e-05 -4.905948e-04
Al -2.489088e-02 3.610114e+00 7.523211e+00 -2.427919e-04 -8.411943e-07 -4.335505e-05
Al -3.074478e-02 3.622837e+00 -2.714058e+00 6.156739e-05 -1.904371e-04 -1.671378e-04
Al 3.126453e+00 -1.859052e+00 2.406904e+00 6.304562e-05 -3.215717e-05 -6.810580e-05
Al 3.129141e+00 -1.855344e+00 7.504817e+00 1.360874e-06 1.986844e-05 2.333710e-05
Al 3.134165e+00 -1.874405e+00 -2.721673e+00 3.089713e-04 2.132994e-05 -4.823681e-05
Al -4.779966e+00 8.766856e-01 2.425515e+00 8.558853e-05 -1.261941e-04 -8.069655e-05
Al -4.775601e+00 8.685553e-01 7.491498e+00 1.635983e-05 -9.003062e-05 6.869004e-05
Ga -4.776112e+00 8.694007e-01 -2.716710e+00 7.288719e-05 8.238793e-06 1.664798e-05
Al -6.357762e+00 3.596815e+00 2.416762e+00 8.526742e-05 1.540172e-04 -3.387480e-05
Ga -6.342981e+00 3.603049e+00 7.494553e+00 1.037223e-05 3.430423e-05 7.446143e-06
Ga -6.356513e+00 3.603871e+00 -2.712638e+00 2.232659e-05 5.092691e-06 5.168835e-05
Ga -3.178090e+00 -1.869913e+00 2.421247e+00 -4.171459e-05 8.612562e-05 -7.531589e-05
Ga -3.201080e+00 -1.868164e+00 7.474622e+00 -4.154633e-05 5.791349e-05 8.131022e-05
Al -3.198204e+00 -1.877268e+00 -2.691926e+00 -3.515798e-05 2.258946e-05 7.693997e-05
Al -1.599803e+00 8.647263e-01 2.422644e+00 2.519501e-04 -9.424512e-05 -5.896093e-04
Ga -1.602931e+00 8.838956e-01 7.500245e+00 4.926383e-05 3.314360e-05 8.794454e-05
Ga -1.598350e+00 8.860928e-01 -2.711427e+00 1.874648e-04 -2.085676e-05 7.596484e-06
Ga -3.176574e+00 3.613785e+00 2.427308e+00 1.007317e-04 7.151347e-06 -1.289117e-04
Al -3.188479e+00 3.614206e+00 7.491634e+00 -1.246092e-04 -9.380365e-05 -1.330488e-04
Al -3.166790e+00 3.621698e+00 -2.716976e+00 -1.602477e-07 -6.464375e-05 1.006505e-04
Al -1.318793e-02 -1.846085e+00 2.410995e+00 1.450465e-05 -9.080890e-05 -2.371172e-05
Al 2.681565e-03 -1.866197e+00 7.483939e+00 5.204387e-06 -8.084608e-05 8.707165e-05
Ga -1.780234e-03 -1.859723e+00 -2.691552e+00 6.138396e-05 4.269441e-05 -8.833946e-06
Ga -1.143877e-02 1.784177e+00 4.938493e+00 8.507077e-05 7.677682e-05 9.435086e-06
Al -1.358195e-03 1.797295e+00 -5.245462e+00 -1.167079e-05 -6.141345e-05 -2.983366e-05
Ga -6.465657e-03 1.788494e+00 -1.361784e-01 -1.213244e-04 1.101112e-04 8.965459e-05
Ga 3.146305e+00 -3.675235e+00 4.976700e+00 -5.969203e-05 6.424435e-05 2.604541e-05
Al 3.137601e+00 -3.687809e+00 -5.262508e+00 6.947873e-06 -2.971057e-06 -1.349571e-05
Al 3.145145e+00 -3.675383e+00 -1.639678e-01 4.561958e-05 -1.788035e-04 3.434684e-04
Al 1.559963e+00 -9.519334e-01 4.950856e+00 8.577838e-06 -1.574578e-06 -1.812281e-05
Al 1.571106e+00 -9.461026e-01 -5.263113e+00 2.342772e-05 7.752803e-05 1.082470e-05
Al 1.567840e+00 -9.490053e-01 -1.394150e-01 8.117166e-05 -4.158954e-05 4.101406e-05
Al 3.145835e+00 1.779978e+00 4.946561e+00 -1.919163e-05 1.485222e-05 2.699642e-05
Al 3.131838e+00 1.775740e+00 -5.269556e+00 1.289523e-05 1.843169e-05 -3.003224e-05
Al 3.122638e+00 1.782019e+00 -1.236935e-01 3.672459e-05 4.600343e-05 -1.139072e-04
Al 6.305938e+00 -3.693504e+00 4.943982e+00 -1.686023e-04 -3.416647e-05 -1.049053e-06
Al 6.287567e+00 -3.692972e+00 -5.234708e+00 -1.060909e-04 5.483737e-05 3.401922e-05
Al 6.295096e+00 -3.692193e+00 -1.495624e-01 4.422242e-05 2.908270e-04 -2.974369e-05
Al 4.707699e+00 -9.376355e-01 4.944808e+00 -1.276922e-04 -6.444547e-05 -2.450620e-05
Al 4.706362e+00 -9.539926e-01 -5.246443e+00 1.380220e-05 -3.762647e-05 -5.914627e-05
Ga 4.707991e+00 -9.650446e-01 -1.445309e-01 -7.890691e-05 -4.886439e-05 1.156954e-05
Al -3.202734e+00 1.771862e+00 4.954816e+00 -3.933122e-05 1.407792e-05 1.575290e-04
Al -3.197433e+00 1.802967e+00 -5.261413e+00 1.367204e-04 -1.874823e-04 -1.383844e-04
Ga -3.185910e+00 1.789374e+00 -1.302335e-01 4.624381e-06 -6.835441e-05 -4.446670e-05
Al -3.376180e-02 -3.679122e+00 4.944306e+00 -1.778559e-05 -1.226146e-05 1.245161e-05
Al -6.427065e-03 -3.692666e+00 -5.257625e+00 -1.498450e-04 -1.047471e-04 -1.810645e-05
Ga -2.559576e-02 -3.683911e+00 -1.285988e-01 2.643400e-05 -1.848095e-05 -9.787954e-05
Al -1.594237e+00 -9.581897e-01 4.948985e+00 -1.266549e-05 -2.759766e-05 -7.324534e-05
Ga -1.600906e+00 -9.629862e-01 -5.251434e+00 2.045661e-05 5.458766e-05 6.322867e-05
Al -1.599059e+00 -9.599703e-01 -1.320755e-01 -1.939394e-04 -5.117489e-05 3.350200e-06
N 1.605161e+00 8.441642e-01 4.320225e+00 7.342349e-07 -4.345954e-05 1.184478e-04
N 1.556703e+00 8.697050e-01 -5.875779e+00 4.136769e-05 -4.535528e-06 -4.361516e-05
N 1.601626e+00 8.473476e-01 -7.785069e-01 9.819615e-05 -1.872463e-05 3.777229e-05
N 1.107353e-02 3.640249e+00 4.291418e+00 1.855350e-04 5.792529e-05 3.340624e-04
N -2.003885e-02 3.611221e+00 -5.846455e+00 -4.475528e-05 -2.919358e-05 -5.282076e-05
N -2.544822e-02 3.656880e+00 -7.877756e-01 -5.636373e-05 -6.763217e-05 8.799588e-05
N 3.132421e+00 -1.820900e+00 4.321794e+00 9.038404e-05 7.434549e-05 8.482672e-05
N 3.139127e+00 -1.860480e+00 -5.859357e+00 3.091639e-05 -1.830034e-06 -2.425324e-05
N 3.092692e+00 -1.886600e+00 -7.969257e-01 -1.987711e-04 2.916976e-04 -3.050887e-05
N -4.768223e+00 8.751395e-01 4.340523e+00 -5.582706e-06 7.635069e-06 5.329522e-06
N -4.763948e+00 8.680313e-01 -5.864588e+00 3.029370e-05 -8.172138e-06 -3.415449e-06
N -4.809541e+00 8.977940e-01 -7.466627e-01 -1.741340e-05 5.382441e-05 3.103584e-05
N -6.347559e+00 3.605319e+00 4.344664e+00 -2.738446e-05 -2.432002e-05 3.929721e-06
N -6.346524e+00 3.614511e+00 -5.805412e+00 1.255113e-04 -7.240912e-05 -4.131348e-06
N -6.385175e+00 3.580549e+00 -7.306248e-01 -3.250961e-05 -8.865437e-05 9.142288e-05
N -3.183484e+00 -1.863634e+00 4.403950e+00 6.666433e-05 -4.670979e-05 3.646213e-05
N -3.229196e+00 -1.890142e+00 -5.839393e+00 -2.176738e-05 5.303749e-05 -1.760141e-05
N -3.142279e+00 -1.888968e+00 -7.658493e-01 -1.813303e-05 -7.694117e-05 4.181601e-05
N -1.645649e+00 8.482181e-01 4.338020e+00 -6.374751e-05 -1.555508e-05 4.037694e-04
N -1.600021e+00 9.236419e-01 -5.811161e+00 -1.310471e-04 9.136602e-05 2.210810e-05
N -1.601600e+00 8.303466e-01 -7.410599e-01 1.787523e-04 -5.577976e-05 5.955238e-06
N -3.218358e+00 3.589426e+00 4.394596e+00 7.165041e-05 -8.875145e-05 1.882208e-05
N -3.184968e+00 3.611916e+00 -5.873731e+00 -1.281587e-05 -5.656609e-05 -9.204395e-06
N -3.145027e+00 3.634917e+00 -7.954664e-01 3.729358e-05 -6.867749e-06 8.405913e-06
N -1.664483e-02 -1.856809e+00 4.335484e+00 -3.176563e-06 -4.786220e-05 -1.232687e-05
N 2.583547e-02 -1.887210e+00 -5.882634e+00 -5.409004e-06 2.041070e-05 -1.705845e-04
N -1.503523e-02 -1.814966e+00 -7.177487e-01 1.658431e-05 -1.562666e-05 -4.366725e-05
N -1.951162e-02 1.781398e+00 1.853512e+00 -5.975343e-05 8.051388e-05 1.103514e-04
N 2.190645e-02 1.812136e+00 6.914871e+00 -3.389504e-06 5.936317e-05 -1.948997e-05
N 2.933230e-02 1.812118e+00 -3.323123e+00 -1.797955e-04 3.310240e-04 8.140544e-05
N 3.177855e+00 -3.661183e+00 1.762656e+00 3.571250e-05 1.069755e-04 -1.163344e-04
N 3.144098e+00 -3.685917e+00 6.956829e+00 2.301588e-04 -6.076452e-05 5.630839e-05
N 3.139273e+00 -3.688122e+00 -3.333761e+00 -1.721187e-05 2.177129e-05 -5.697186e-05
N 1.562169e+00 -9.508093e-01 1.786161e+00 4.256280e-06 2.284690e-05 -3.240227e-05
N 1.561783e+00 -9.521607e-01 6.875978e+00 -7.535533e-05 3.951264e-05 -4.703820e-08
N 1.601269e+00 -9.242658e-01 -3.345249e+00 -1.037684e-04 -6.006021e-06 3.644981e-05
N 3.135996e+00 1.784543e+00 1.800958e+00 1.282440e-05 -9.169416e-06 -1.589608e-05
N 3.136029e+00 1.736659e+00 6.865508e+00 -6.556066e-05 4.445231e-05 -1.246982e-04
N 3.093296e+00 1.759024e+00 -3.367799e+00 -4.173733e-06 -1.739413e-05 1.681662e-05
N 6.301824e+00 -3.734543e+00 1.768751e+00 -1.877536e-05 -5.998694e-05 -6.881471e-05
N 6.253926e+00 -3.723432e+00 6.847068e+00 1.019478e-04 4.356660e-05 -1.355542e-04
N 6.255673e+00 -3.663719e+00 -3.325134e+00 -2.473648e-05 -9.707961e-05 -4.293387e-05
N 4.677656e+00 -9.303512e-01 1.832896e+00 -3.746457e-05 7.898079e-05 1.221315e-04
N 4.666008e+00 -9.258229e-01 6.860480e+00 -5.650500e-05 -1.351696e-05 3.078005e-05
N 4.717670e+00 -1.001564e+00 -3.325654e+00 -9.091906e-05 -3.941001e-05 8.057854e-05
N -3.185879e+00 1.738836e+00 1.841919e+00 -6.349782e-05 -1.674686e-05 8.696989e-05
N -3.231097e+00 1.803963e+00 6.873012e+00 9.721847e-05 1.654120e-04 -9.530001e-05
N -3.189854e+00 1.836620e+00 -3.352716e+00 -3.310682e-05 7.411594e-05 4.006882e-05
N -6.405462e-02 -3.664380e+00 1.847087e+00 -3.056960e-05 -8.184621e-05 8.316034e-05
N 1.404937e-02 -3.663380e+00 6.861497e+00 9.647366e-05 -6.049516e-05 8.738030e-05
N 2.071771e-02 -3.708321e+00 -3.343956e+00 -9.944364e-06 -3.132030e-05 -3.263901e-05
N -1.563614e+00 -9.308049e-01 1.786166e+00 -2.640274e-05 1.956781e-04 7.298945e-05
N -1.556581e+00 -9.749096e-01 6.859562e+00 -3.685500e-05 5.046051e-05 2.799286e-05
N -1.641662e+00 -9.820252e-01 -3.289893e+00 -2.268860e-04 -4.992775e-05 1.916930e-05
