108
Energy=-2313459.239948 Lattice="9.627095 0.000000 0.000000 -4.813774 8.336081 0.000000 0.001068 -0.001131 15.610061" Stress="0.000000 0.000000 0.000000 -0.000000 0.000000 -0.000000 0.000000 -0.000000 0.000000" Properties=species:S:1:pos:R:3:forces:R:3
Al 1.557130 0.890025 2.430028 -0.000002 0.000004 -0.000004
Al 1.574083 0.889291 7.667885 -0.000010 0.000010 -0.000008
Ga 1.569679 0.900811 -2.737747 -0.000007 0.000023 0.000006
Al -0.031941 3.642506 2.432202 -0.000004 -0.000004 0.000000
Ga -0.017744 3.651105 7.669762 -0.000006 0.000007 -0.000004
Al -0.014574 3.662191 -2.743514 -0.000005 0.000009 0.000000
Ga 3.170798 -1.902216 2.451638 0.000003 -0.000004 0.000001
Ga 3.180773 -1.887476 7.653186 -0.000007 0.000016 -0.000005
Al 3.197121 -1.900282 -2.737676 -0.000007 0.000011 -0.000002
Ga -4.835702 0.893572 2.449916 0.000006 0.000002 0.000007
Ga -4.845268 0.886659 7.659035 -0.000010 0.000010 0.000014
Ga -4.840865 0.880046 -2.740806 -0.000005 0.000015 0.000017
Ga -6.444882 3.663284 2.450430 0.000005 -0.000002 -0.000009
Ga -6.446961 3.658583 7.650986 -0.000010 0.000004 0.000006
Al -6.454161 3.674028 -2.736734 -0.000000 0.000002 -0.000002
Ga -3.219300 -1.893801 2.454439 0.000000 -0.000003 -0.000006
Ga -3.221175 -1.890090 7.649925 -0.000009 0.000009 -0.000002
Al -3.239358 -1.908142 -2.737891 -0.000008 0.000007 0.000001
Al -1.606429 0.891332 2.445455 0.000001 0.000013 0.000003
Ga -1.608625 0.880964 7.648437 -0.000003 0.000005 0.000002
Ga -1.612388 0.895203 -2.733924 -0.000012 0.000014 -0.000003
Al -3.221362 3.665075 2.443492 -0.000009 0.000015 0.000006
Ga -3.228230 3.666982 7.658808 -0.000008 0.000007 0.000008
Ga -3.229675 3.674153 -2.734012 -0.000011 0.000009 0.000009
Al -0.023280 -1.880803 2.456484 -0.000006 0.000017 0.000003
Ga -0.024767 -1.878731 7.645751 -0.000010 0.000005 0.000000
Ga -0.026572 -1.898612 -2.738667 -0.000012 0.000012 0.000004
Ga -0.020112 1.803337 5.026221 0.000001 0.000008 -0.000009
Al -0.017779 1.813500 -5.347905 0.000001 0.000004 -0.000013
Al -0.024528 1.819902 -0.123460 -0.000003 -0.000002 -0.000016
Ga 3.189829 -3.756194 5.030243 -0.000007 0.000009 0.000004
Ga 3.196926 -3.749308 -5.317661 0.000002 0.000013 0.000003
Ga 3.199635 -3.755987 -0.147329 -0.000001 0.000012 -0.000005
Ga 1.564968 -0.951702 5.039446 -0.000006 0.000010 0.000001
Ga 1.579675 -0.951316 -5.344634 -0.000006 0.000004 0.000004
Ga 1.577637 -0.959599 -0.132757 -0.000004 0.000007 0.000009
Ga 3.169878 1.803094 5.053222 -0.000008 0.000012 -0.000000
Ga 3.167307 1.815025 -5.340222 -0.000006 0.000001 0.000001
Ga 3.171600 1.817589 -0.147880 -0.000000 -0.000004 0.000008
Ga 6.388282 -3.741705 5.039408 -0.000002 0.000012 0.000003
Ga 6.390218 -3.751667 -5.312311 -0.000002 0.000004 0.000012
Ga 6.385280 -3.756739 -0.167189 0.000007 -0.000005 0.000009
Ga 4.801312 -0.967412 5.052835 -0.000009 0.000006 0.000009
Ga 4.791001 -0.972371 -5.323266 -0.000007 -0.000003 0.000009
Ga 4.790979 -0.975024 -0.159498 0.000000 -0.000004 0.000023
Ga -3.217498 1.807942 5.027517 -0.000011 0.000009 0.000007
Ga -3.218268 1.811189 -5.343187 0.000004 0.000005 -0.000002
Ga -3.215945 1.812919 -0.120723 0.000002 0.000004 0.000006
Ga -0.018848 -3.732729 5.025998 -0.000017 0.000011 0.000001
Ga -0.028350 -3.745047 -5.335193 -0.000005 0.000004 0.000002
Ga -0.026005 -3.744040 -0.126343 -0.000006 0.000009 0.000011
Al -1.619434 -0.959877 5.022592 -0.000014 0.000009 -0.000003
Ga -1.627275 -0.956112 -5.329323 -0.000006 -0.000007 0.000001
Ga -1.624571 -0.958155 -0.135466 -0.000004 -0.000001 0.000002
N 1.579315 0.888569 4.342949 0.000011 -0.000015 0.000001
N 1.536020 0.912464 -6.012419 0.000018 -0.000003 0.000008
N 1.528992 0.912177 -0.754749 0.000013 0.000002 -0.000004
N -0.021493 3.658708 4.349730 0.000007 -0.000008 0.000002
N -0.021257 3.619598 -5.954326 0.000002 -0.000007 -0.000000
N -0.025035 3.604351 -0.816768 -0.000009 0.000003 0.000002
N 3.182912 -1.890320 4.424827 0.000010 -0.000010 -0.000007
N 3.185221 -1.894641 -5.976800 0.000010 -0.000013 -0.000007
N 3.178993 -1.895324 -0.817975 0.000000 -0.000001 -0.000013
N -4.840247 0.888139 4.421996 0.000013 -0.000016 -0.000005
N -4.839417 0.885734 -5.967162 0.000014 -0.000007 -0.000007
N -4.833197 0.891290 -0.764476 0.000001 0.000001 -0.000012
N -6.443100 3.661225 4.421514 0.000007 -0.000014 -0.000000
N -6.446975 3.668915 -5.981158 0.000008 -0.000007 -0.000008
N -6.436874 3.667572 -0.819405 -0.000008 0.000006 -0.000009
N -3.188396 -1.868823 4.432300 0.000012 -0.000011 -0.000005
N -3.228500 -1.894690 -5.976149 0.000009 -0.000006 -0.000010
N -3.225902 -1.893129 -0.822174 -0.000004 0.000005 -0.000014
N -1.620383 0.840521 4.370430 0.000012 -0.000016 -0.000003
N -1.580259 0.908092 -5.971090 0.000000 -0.000010 0.000010
N -1.578704 0.914359 -0.749722 -0.000002 -0.000001 -0.000001
N -3.230775 3.664834 4.357730 0.000021 -0.000021 0.000001
N -3.228262 3.670752 -5.971146 0.000000 -0.000017 0.000002
N -3.234299 3.664953 -0.763079 0.000005 -0.000010 -0.000000
N -0.062745 -1.864871 4.378980 0.000020 -0.000017 0.000007
N -0.026753 -1.888125 -5.980251 0.000010 -0.000011 0.000002
N -0.023181 -1.892673 -0.768477 0.000005 -0.000013 -0.000001
N -0.025961 1.814509 1.812009 0.000002 -0.000003 0.000002
N 0.023351 1.789209 7.015821 -0.000004 0.000002 0.000003
N -0.021994 1.860932 -3.425631 0.000006 -0.000017 0.000007
N 3.190381 -3.793836 1.841897 0.000005 -0.000007 0.000004
N 3.193001 -3.750239 7.012609 -0.000002 -0.000003 0.000001
N 3.232168 -3.722659 -3.327731 -0.000000 -0.000010 -0.000002
N 1.538699 -0.944072 1.853760 -0.000006 -0.000005 -0.000001
N 1.579600 -0.910432 7.032256 -0.000004 -0.000004 0.000005
N 1.625005 -0.984740 -3.356337 -0.000005 -0.000009 -0.000009
N 3.140828 1.789268 1.828918 -0.000001 0.000004 0.000005
N 3.137129 1.783216 7.041481 0.000008 -0.000006 -0.000004
N 3.180047 1.861374 -3.354827 0.000003 -0.000013 -0.000008
N 6.349507 -3.770006 1.819690 0.000000 0.000005 0.000009
N 6.388565 -3.746814 7.016081 0.000002 -0.000005 -0.000001
N 6.392647 -3.746645 -3.311747 0.000007 -0.000011 -0.000005
N 4.790014 -0.972307 1.814681 -0.000008 0.000004 -0.000012
N 4.793211 -0.967177 7.025182 0.000003 -0.000004 -0.000003
N 4.791485 -1.017397 -3.332502 0.000003 -0.000007 -0.000008
N -3.185310 1.833555 1.865575 -0.000004 -0.000008 -0.000003
N -3.225832 1.811060 7.014555 0.000006 0.000003 -0.000010
N -3.228089 1.812347 -3.370376 0.000005 -0.000008 -0.000003
N 0.017128 -3.718260 1.863466 0.000005 -0.000014 -0.000009
N -0.019815 -3.742076 7.009085 0.000007 0.000003 -0.000005
N -0.067092 -3.769885 -3.356455 0.000012 0.000002 0.000000
N -1.586612 -0.941642 1.849807 0.000004 -0.000011 0.000006
N -1.624387 -0.962183 6.949638 0.000007 -0.000001 0.000002
N -1.672079 -0.986098 -3.347944 0.000014 -0.000001 -0.000003
