108
Energy=-1.947255e+06 Lattice="9.577616e+00 0.000000e+00 0.000000e+00 -4.788643e+00 8.295368e+00 0.000000e+00 -1.345403e-04 -2.118759e-03 1.551024e+01" Stress="3.697532e-05 -2.446990e-05 -3.205216e-05 -1.533352e-05 5.915680e-05 -2.060893e-05 -1.958802e-05 -2.471811e-05 4.952423e-05" Properties=species:S:1:pos:R:3:forces:R:3 Config_type=AlGaN_super3_33_2_14.xyz
Al 1.572724e+00 8.750388e-01 2.413053e+00 1.469760e-05 -5.439026e-05 9.402631e-05
Al 1.570313e+00 8.811340e-01 7.618167e+00 -4.221367e-06 3.277976e-06 1.374303e-04
Al 1.571913e+00 8.690672e-01 -2.722101e+00 -4.242194e-06 4.352001e-05 1.488833e-04
Al -1.342588e-02 3.645162e+00 2.424952e+00 -2.372182e-05 -1.335852e-05 1.448557e-04
Al -1.198135e-02 3.647490e+00 7.615825e+00 8.800420e-06 -5.346647e-06 1.298817e-04
Ga -1.186630e-02 3.644025e+00 -2.728292e+00 1.943571e-05 -7.502650e-06 6.175604e-05
Al 3.161990e+00 -1.875811e+00 2.412578e+00 -6.747381e-05 4.987813e-05 1.082734e-04
Ga 3.174037e+00 -1.876458e+00 7.627817e+00 -2.068837e-05 -1.723824e-05 7.140089e-05
Al 3.175488e+00 -1.859440e+00 -2.733636e+00 4.256337e-06 -2.903292e-07 1.159855e-04
Ga -4.830086e+00 8.733724e-01 2.426501e+00 -6.208459e-05 -5.487395e-05 4.315116e-05
Ga -4.808554e+00 8.754783e-01 7.631043e+00 -6.171313e-05 6.020403e-06 5.203837e-05
Ga -4.810431e+00 8.626094e-01 -2.740843e+00 -4.724975e-05 3.682379e-05 -6.748694e-06
Al -6.414491e+00 3.648785e+00 2.423662e+00 1.624078e-05 -3.664546e-05 1.152825e-04
Ga -6.429608e+00 3.644821e+00 7.607766e+00 -8.965354e-06 2.997056e-07 2.546982e-05
Al -6.412865e+00 3.652728e+00 -2.716833e+00 -5.693096e-05 -3.928897e-05 1.271723e-04
Ga -3.218849e+00 -1.892526e+00 2.428667e+00 -6.909626e-05 -1.519006e-05 4.428388e-05
Al -3.217144e+00 -1.888072e+00 7.605910e+00 2.380037e-05 -2.600004e-05 1.205388e-04
Al -3.227286e+00 -1.879267e+00 -2.723668e+00 -1.395459e-05 -3.790223e-05 8.420881e-05
Ga -1.602042e+00 8.753856e-01 2.464737e+00 -1.051029e-05 1.082427e-05 1.386291e-04
Ga -1.618970e+00 8.774378e-01 7.594911e+00 4.196499e-05 -2.509297e-05 1.138275e-05
Al -1.616208e+00 8.782820e-01 -2.742011e+00 1.947041e-05 3.711686e-05 1.088161e-04
Ga -3.219939e+00 3.662517e+00 2.429514e+00 -4.013027e-05 5.188485e-05 4.497651e-05
Ga -3.206369e+00 3.635751e+00 7.610491e+00 -8.193357e-06 8.809812e-05 2.011747e-05
Ga -3.218918e+00 3.645238e+00 -2.715160e+00 2.836012e-05 1.593297e-05 -1.036410e-05
Al -1.470864e-02 -1.881892e+00 2.409269e+00 5.207938e-05 -2.286637e-05 1.550031e-04
Ga -2.650105e-02 -1.867224e+00 7.618262e+00 3.296597e-05 -9.438040e-06 8.238314e-05
Ga -1.107656e-02 -1.872359e+00 -2.716333e+00 -1.577390e-05 -3.020672e-05 -1.310193e-04
Ga -1.958544e-02 1.801523e+00 5.023659e+00 -6.606404e-06 -2.672879e-06 9.739623e-05
Ga -2.063991e-02 1.790777e+00 -5.316942e+00 3.398431e-06 7.192010e-06 6.451503e-05
Ga -1.937480e-02 1.786637e+00 -1.425281e-01 5.332401e-05 -4.317488e-05 -2.716811e-05
Ga 3.175524e+00 -3.728586e+00 5.010839e+00 -4.077452e-05 4.462067e-05 6.656473e-05
Ga 3.168099e+00 -3.714881e+00 -5.303740e+00 -2.903506e-05 -2.579414e-05 4.228685e-05
Ga 3.163399e+00 -3.695854e+00 -1.427363e-01 5.425696e-07 -3.308674e-05 -3.824109e-05
Ga 1.564468e+00 -9.578372e-01 4.993239e+00 3.549235e-05 -4.582830e-05 4.295837e-05
Al 1.588109e+00 -9.493286e-01 -5.297943e+00 8.302485e-06 -1.160174e-05 1.188039e-04
Al 1.583759e+00 -9.679328e-01 -1.429169e-01 9.220609e-04 7.623794e-04 8.599830e-05
Ga 3.169598e+00 1.799772e+00 5.010948e+00 2.375371e-05 5.504481e-06 8.071697e-05
Ga 3.166144e+00 1.787054e+00 -5.292962e+00 1.166197e-05 8.600672e-06 7.370242e-05
Ga 3.165042e+00 1.801040e+00 -1.567786e-01 -4.173551e-05 -1.179974e-04 -1.040320e-04
Ga 6.360677e+00 -3.721829e+00 5.017126e+00 1.843772e-05 1.521170e-05 8.589750e-05
Ga 6.357765e+00 -3.708401e+00 -5.304690e+00 3.358306e-06 3.143564e-06 4.601164e-05
Ga 6.372859e+00 -3.717645e+00 -1.452089e-01 -2.461512e-05 -1.985918e-06 -9.078155e-05
Ga 4.774775e+00 -9.581925e-01 5.025582e+00 -4.428287e-05 -1.044680e-05 6.164512e-05
Al 4.769391e+00 -9.645976e-01 -5.307080e+00 -2.586908e-05 5.830572e-06 8.835701e-05
Al 4.750122e+00 -9.704228e-01 -1.599862e-01 -9.972139e-05 -2.548295e-05 -1.097587e-04
Al -3.214010e+00 1.794679e+00 5.017449e+00 1.567813e-06 1.863191e-05 1.901239e-04
Al -3.214682e+00 1.794725e+00 -5.297093e+00 -2.824016e-05 2.140663e-05 1.359380e-04
Ga -3.215168e+00 1.796686e+00 -1.531045e-01 -7.683985e-05 -1.659275e-06 -5.035343e-05
Ga -2.796994e-02 -3.718122e+00 5.000068e+00 1.697006e-05 -1.037968e-05 7.886574e-05
Ga -1.706100e-02 -3.726738e+00 -5.300265e+00 3.080336e-05 2.872382e-05 1.983084e-05
Al -2.985144e-02 -3.717299e+00 -1.350660e-01 -3.157379e-05 -1.115246e-04 -7.593914e-05
Al -1.618565e+00 -9.645918e-01 5.018264e+00 3.624319e-05 -5.107089e-05 1.673422e-04
Ga -1.635866e+00 -9.559501e-01 -5.296178e+00 3.439174e-05 -2.332282e-05 6.377961e-05
Ga -1.618420e+00 -9.633003e-01 -1.641773e-01 -1.570288e-04 5.717950e-05 -1.412842e-05
N 1.572721e+00 8.817658e-01 4.323741e+00 2.198582e-05 1.490848e-05 -7.101061e-05
N 1.575685e+00 8.321740e-01 -5.973572e+00 -1.540464e-06 -5.196273e-06 -1.121675e-04
N 1.570620e+00 8.258575e-01 -8.029136e-01 -7.125107e-05 -1.803642e-04 -1.671076e-05
N -2.033532e-02 3.644020e+00 4.337002e+00 1.473378e-05 -1.364931e-06 -8.278753e-05
N -2.163868e-02 3.647446e+00 -5.976209e+00 2.094555e-05 1.034171e-05 -9.738689e-05
N -2.451925e-02 3.645452e+00 -7.624145e-01 -5.008124e-06 2.083737e-05 -5.207352e-05
N 3.172213e+00 -1.878434e+00 4.331874e+00 3.155714e-05 -2.621476e-06 -7.550161e-05
N 3.169084e+00 -1.830167e+00 -5.899541e+00 1.471049e-05 3.973496e-05 -5.217389e-05
N 3.165275e+00 -1.826805e+00 -8.029469e-01 -1.336954e-04 -5.729840e-05 -8.617319e-05
N -4.772664e+00 9.008696e-01 4.403380e+00 4.374982e-05 6.120848e-05 -7.080625e-05
N -4.769631e+00 8.584832e-01 -5.884502e+00 6.196466e-05 2.619365e-05 -9.088709e-05
N -4.812227e+00 8.305191e-01 -7.624675e-01 4.954870e-05 1.703231e-05 -6.094494e-05
N -6.410202e+00 3.646348e+00 4.339064e+00 8.474869e-06 -8.814836e-06 -8.727404e-05
N -6.410921e+00 3.643933e+00 -5.934677e+00 1.589837e-05 -6.077015e-08 -4.698990e-05
N -6.364763e+00 3.673724e+00 -8.008387e-01 6.354067e-05 5.475997e-05 -5.462665e-05
N -3.175783e+00 -1.858064e+00 4.401888e+00 4.285484e-05 1.056024e-05 -7.841199e-05
N -3.254626e+00 -1.856398e+00 -5.980741e+00 -3.743996e-05 6.297125e-06 -9.707655e-05
N -3.263653e+00 -1.858055e+00 -8.044651e-01 2.955082e-05 7.299991e-06 -6.944289e-05
N -1.654442e+00 8.552040e-01 4.448847e+00 -4.776475e-05 1.179771e-05 -1.148969e-04
N -1.663041e+00 9.030249e-01 -5.933747e+00 -2.651112e-05 8.869584e-06 -8.503180e-05
N -1.617606e+00 8.843556e-01 -8.334165e-01 5.714949e-06 -2.945328e-05 -1.431256e-04
N -3.215707e+00 3.600917e+00 4.407839e+00 -1.241262e-05 -8.761880e-05 -6.583033e-05
N -3.213519e+00 3.595454e+00 -5.917166e+00 -5.490611e-06 -6.661282e-05 -3.951149e-05
N -3.258491e+00 3.673331e+00 -7.377141e-01 -3.901042e-05 2.511848e-05 -4.906512e-05
N -6.438011e-02 -1.856438e+00 4.337878e+00 -8.465184e-05 1.288276e-05 -7.365269e-05
N 1.844982e-02 -1.850576e+00 -5.905109e+00 6.068832e-06 -1.549174e-05 -5.881519e-05
N 2.830257e-02 -1.904334e+00 -7.310918e-01 -5.122949e-04 -3.810349e-04 -2.369784e-04
N 1.396674e-02 1.821063e+00 1.840122e+00 1.842040e-05 6.325596e-05 -3.224282e-05
N 2.440706e-02 1.828626e+00 7.017314e+00 2.647060e-05 5.885557e-05 -7.810790e-05
N -1.634593e-02 1.752490e+00 -3.329667e+00 -7.239535e-06 -1.034072e-05 -9.827085e-05
N 3.211830e+00 -3.698346e+00 1.840934e+00 1.029830e-04 -2.972472e-06 4.683940e-06
N 3.214333e+00 -3.745456e+00 6.999603e+00 3.495700e-05 -3.325852e-05 -6.535702e-05
N 3.169795e+00 -3.674734e+00 -3.324628e+00 -1.556484e-05 1.495540e-05 -4.714084e-05
N 1.575845e+00 -9.622972e-01 1.794974e+00 3.962436e-05 2.111989e-05 5.118443e-05
N 1.574301e+00 -9.143713e-01 6.978166e+00 -1.096990e-05 1.894852e-05 -8.317543e-05
N 1.618317e+00 -9.327606e-01 -3.373854e+00 8.683940e-06 -4.290406e-05 -6.190634e-05
N 3.124519e+00 1.829059e+00 1.827701e+00 -1.927323e-05 6.678488e-05 1.126475e-04
N 3.128943e+00 1.773896e+00 6.997942e+00 -2.570089e-05 -1.150585e-05 -7.048407e-05
N 3.123086e+00 1.827999e+00 -3.304969e+00 -1.431369e-06 4.003649e-05 -8.539806e-05
N 6.363905e+00 -3.772483e+00 1.833419e+00 5.374810e-06 -1.782827e-05 2.707788e-05
N 6.316986e+00 -3.702399e+00 7.006509e+00 -3.740656e-05 2.504121e-05 -8.547479e-05
N 6.405073e+00 -3.696983e+00 -3.319198e+00 4.580508e-05 1.610302e-05 -7.718013e-05
N 4.723523e+00 -9.899514e-01 1.759713e+00 3.049960e-05 9.948192e-06 1.128697e-04
N 4.803663e+00 -9.848984e-01 7.001041e+00 3.759539e-05 -1.286945e-05 -9.109164e-05
N 4.770229e+00 -1.016339e+00 -3.383071e+00 1.962027e-05 -4.686976e-05 -8.353432e-05
N -3.208986e+00 1.797236e+00 1.811540e+00 7.358046e-05 3.164599e-06 6.873207e-05
N -3.221683e+00 1.799613e+00 6.926782e+00 -5.145426e-06 6.000294e-06 -8.294426e-05
N -3.173317e+00 1.782598e+00 -3.380904e+00 5.110353e-05 -7.454091e-06 -8.467017e-05
N -6.997355e-02 -3.702984e+00 1.792193e+00 -3.877054e-05 2.433385e-05 5.618106e-05
N -2.480920e-02 -3.722235e+00 6.979236e+00 -1.217715e-05 -2.380054e-05 -4.754798e-05
N -6.372640e-02 -3.745965e+00 -3.330806e+00 -5.985012e-05 -1.442914e-05 -3.652854e-05
N -1.582085e+00 -9.809093e-01 1.810900e+00 5.922872e-05 3.869937e-06 -1.344468e-05
N -1.658257e+00 -9.925659e-01 6.945571e+00 -7.382362e-05 -2.568471e-05 -1.160013e-04
N -1.662298e+00 -9.440572e-01 -3.308898e+00 -4.193025e-05 -2.485208e-05 -6.166878e-05
