108
Energy=-8.486435e+05 Lattice="9.453949e+00 0.000000e+00 0.000000e+00 -4.733790e+00 8.180080e+00 0.000000e+00 -1.998675e-02 -1.096702e-02 1.520852e+01" Stress="3.236848e-03 -3.928500e-04 -9.240614e-04 -3.958267e-04 2.038390e-03 -4.940957e-04 -9.378762e-04 -4.984878e-04 4.740850e-03" Properties=species:S:1:pos:R:3:forces:R:3 Config_type=AlGaN_super3_9_1_19.xyz
Al 1.545455e+00 8.693589e-01 2.426837e+00 4.931665e-04 -9.828468e-04 -5.442294e-04
Al 1.546353e+00 8.689061e-01 7.452902e+00 1.713538e-04 1.467245e-04 2.259490e-04
Al 1.557063e+00 8.725622e-01 -2.722568e+00 1.382916e-04 8.958195e-05 -2.384833e-04
Al -1.585875e-02 3.599095e+00 2.421675e+00 6.899213e-04 -4.487076e-04 9.430182e-05
Al -3.501713e-02 3.588020e+00 7.452234e+00 -1.373302e-04 1.747681e-05 3.812623e-05
Al -1.723750e-02 3.591584e+00 -2.719119e+00 -9.855665e-05 3.861228e-05 3.631407e-04
Al 3.137055e+00 -1.848768e+00 2.418499e+00 -1.122666e-04 3.470554e-04 -1.497108e-04
Al 3.132790e+00 -1.865404e+00 7.453985e+00 -1.541738e-04 4.481421e-06 2.138230e-04
Al 3.137440e+00 -1.850770e+00 -2.714453e+00 -1.191835e-05 1.106597e-05 8.930877e-05
Al -4.752099e+00 8.590675e-01 2.405739e+00 -2.061043e-04 1.887845e-04 -7.321292e-06
Al -4.768607e+00 8.614132e-01 7.443029e+00 3.091360e-04 3.848609e-05 -2.149364e-05
Al -4.753794e+00 8.715191e-01 -2.692204e+00 3.044075e-05 -1.269663e-04 1.535387e-04
Al -6.347602e+00 3.599270e+00 2.396119e+00 3.830394e-04 -2.640879e-04 -4.272106e-04
Al -6.349711e+00 3.577764e+00 7.467641e+00 8.521586e-05 -4.099734e-05 1.136391e-04
Al -6.321025e+00 3.596234e+00 -2.703160e+00 -1.981938e-04 -6.406253e-05 5.225074e-06
Al -3.176561e+00 -1.860271e+00 2.385733e+00 -2.331160e-04 3.349021e-05 -2.699572e-04
Al -3.187555e+00 -1.862747e+00 7.453208e+00 -1.687985e-05 1.542584e-04 2.049966e-04
Ga -3.166893e+00 -1.853303e+00 -2.684704e+00 -2.139037e-04 -1.794714e-05 8.196436e-04
Al -1.610003e+00 8.632176e-01 2.403626e+00 4.676767e-04 -2.238508e-04 3.011302e-04
Al -1.612148e+00 8.682130e-01 7.445111e+00 5.003609e-04 -1.442483e-04 1.693473e-04
Al -1.588020e+00 8.774255e-01 -2.691897e+00 3.047343e-04 -4.713559e-04 1.709896e-05
Ga -3.181083e+00 3.591950e+00 2.393289e+00 -4.450871e-06 -4.373146e-04 -3.695430e-04
Al -3.176805e+00 3.585664e+00 7.460199e+00 2.834675e-04 -8.488753e-05 8.688148e-06
Al -3.177083e+00 3.605631e+00 -2.690510e+00 9.841629e-05 -2.201633e-04 1.585207e-04
Al -3.668810e-02 -1.848787e+00 2.397557e+00 5.880225e-04 1.842684e-04 -7.100462e-05
Ga -3.150966e-02 -1.853416e+00 7.471551e+00 3.376400e-04 1.326025e-04 4.015990e-04
Al -1.052263e-02 -1.853145e+00 -2.706122e+00 -1.057271e-04 3.742874e-06 -9.038416e-04
Al -3.464426e-02 1.773240e+00 4.928865e+00 -9.817793e-05 1.302539e-05 -1.408110e-04
Al -1.027369e-02 1.779117e+00 -5.234982e+00 -1.137763e-04 2.552918e-04 4.125700e-04
Ga -3.061903e-02 1.782491e+00 -1.410452e-01 -6.778422e-05 -7.189456e-05 3.977946e-04
Al 3.138786e+00 -3.676697e+00 4.939726e+00 7.499776e-04 5.576347e-04 4.060358e-04
Al 3.145919e+00 -3.666205e+00 -5.227371e+00 -5.781823e-05 2.075781e-04 3.211508e-04
Ga 3.142843e+00 -3.668935e+00 -1.581811e-01 1.733954e-04 4.085823e-05 4.765024e-04
Al 1.556413e+00 -9.463742e-01 4.924066e+00 -1.679430e-04 2.060525e-04 -1.146741e-04
Al 1.572704e+00 -9.442166e-01 -5.218838e+00 -2.866288e-04 3.066551e-04 2.193346e-04
Ga 1.554421e+00 -9.556471e-01 -1.495068e-01 -2.062400e-04 3.056804e-04 9.182111e-04
Al 3.113350e+00 1.768103e+00 4.926665e+00 6.272504e-05 8.625279e-05 1.331413e-04
Al 3.127223e+00 1.781706e+00 -5.226203e+00 9.750693e-05 -1.340811e-04 2.936911e-04
Ga 3.138590e+00 1.786507e+00 -1.440927e-01 2.053907e-04 -1.300349e-04 -1.941981e-04
Al 6.268443e+00 -3.677691e+00 4.932033e+00 2.565811e-04 2.174163e-04 4.110328e-04
Al 6.291917e+00 -3.673869e+00 -5.239965e+00 5.306883e-06 2.459762e-06 2.520242e-08
Al 6.291268e+00 -3.666871e+00 -1.403486e-01 -9.943313e-05 3.803049e-05 2.459343e-04
Al 4.703637e+00 -9.555096e-01 4.927125e+00 -2.160515e-04 -4.540034e-07 1.951121e-04
Al 4.710336e+00 -9.492468e-01 -5.241597e+00 -1.924762e-04 -1.953638e-05 1.243458e-04
Al 4.716591e+00 -9.442176e-01 -1.331501e-01 -1.346133e-04 1.759251e-04 4.508436e-04
Al -3.182225e+00 1.760355e+00 4.944061e+00 2.339301e-04 3.119367e-04 1.450689e-04
Ga -3.170475e+00 1.781697e+00 -5.223384e+00 6.566707e-05 -1.243298e-04 3.283668e-04
Al -3.179969e+00 1.766181e+00 -1.678766e-01 -7.120179e-04 8.809416e-05 1.326468e-03
Ga -3.546915e-02 -3.679960e+00 4.936512e+00 -5.148957e-05 5.761259e-05 1.291347e-04
Al -1.658180e-02 -3.670282e+00 -5.217100e+00 1.026492e-04 -8.809581e-05 -3.191053e-05
Al -3.544552e-02 -3.666288e+00 -1.625734e-01 -9.349940e-05 4.168727e-04 1.203619e-03
Al -1.615033e+00 -9.439300e-01 4.915790e+00 -2.374472e-04 -1.097328e-04 1.074426e-04
Al -1.587765e+00 -9.435797e-01 -5.222315e+00 -3.283214e-04 4.957575e-05 5.017639e-04
Al -1.600714e+00 -9.450793e-01 -1.385347e-01 -8.169821e-04 -1.037955e-03 -3.078827e-04
N 1.540762e+00 8.663192e-01 4.338396e+00 4.114552e-04 1.774446e-04 -1.300921e-04
N 1.560748e+00 8.715239e-01 -5.828844e+00 9.465980e-05 -7.276435e-05 -3.000930e-04
N 1.551915e+00 8.733914e-01 -8.170695e-01 1.626820e-04 -1.608521e-04 3.539275e-04
N -3.018459e-02 3.593678e+00 4.339410e+00 9.247727e-05 -7.954702e-05 3.779126e-05
N -1.858475e-02 3.598132e+00 -5.833496e+00 -1.662639e-04 -4.844245e-06 -1.755291e-04
N 2.274619e-02 3.620257e+00 -8.052136e-01 -8.413828e-05 3.325569e-05 -3.541333e-04
N 3.129210e+00 -1.862156e+00 4.334905e+00 -7.483275e-05 1.922180e-04 -4.895999e-05
N 3.140280e+00 -1.855918e+00 -5.833077e+00 -2.324792e-04 -8.913415e-06 -2.201351e-04
N 3.178269e+00 -1.826476e+00 -8.027921e-01 4.690409e-05 -7.184909e-05 2.325552e-05
N -4.757020e+00 8.643765e-01 4.332025e+00 3.887613e-04 2.175576e-04 -1.230610e-04
N -4.787254e+00 8.518326e-01 -5.853553e+00 1.067311e-04 1.120628e-04 -3.059059e-04
N -4.717479e+00 8.412292e-01 -7.763462e-01 6.682708e-04 4.993702e-06 -3.026688e-05
N -6.381292e+00 3.570301e+00 4.307634e+00 -2.818044e-04 1.863271e-05 -4.067030e-04
N -6.320571e+00 3.596354e+00 -5.824436e+00 -7.785740e-05 9.708401e-05 -5.727624e-05
N -6.332647e+00 3.643808e+00 -7.824826e-01 -4.548679e-05 4.891590e-04 7.790817e-05
N -3.179923e+00 -1.864993e+00 4.314221e+00 -1.331523e-04 1.296314e-04 -4.579667e-04
N -3.160730e+00 -1.852061e+00 -5.831524e+00 5.914718e-06 8.693388e-05 -2.795172e-04
N -3.172532e+00 -1.854564e+00 -6.959818e-01 6.536333e-04 2.784221e-04 2.852644e-04
N -1.614139e+00 8.690050e-01 4.324932e+00 4.296434e-04 2.584927e-05 -6.850559e-06
N -1.553921e+00 8.520275e-01 -5.851822e+00 6.166758e-04 -4.259716e-04 -4.853734e-04
N -1.634671e+00 8.467577e-01 -7.762899e-01 3.966445e-04 1.537859e-04 6.597251e-04
N -3.140846e+00 3.568800e+00 4.365392e+00 -9.418167e-04 -1.096152e-03 -2.627873e-04
N -3.167068e+00 3.649398e+00 -5.836938e+00 6.469542e-05 -1.393054e-04 -1.660234e-04
N -3.220160e+00 3.580383e+00 -7.643209e-01 4.677592e-04 -1.354561e-04 -4.455283e-04
N -3.043509e-02 -1.813236e+00 4.312723e+00 -4.843698e-05 1.458962e-04 -7.647199e-05
N -1.040741e-02 -1.848414e+00 -5.764805e+00 -2.015372e-05 -2.760389e-04 5.699140e-05
N -6.351591e-02 -1.869582e+00 -7.863514e-01 2.338174e-05 -1.083985e-03 1.529829e-03
N -3.004146e-02 1.778665e+00 1.848808e+00 5.585372e-04 1.021748e-04 -1.392097e-04
N -3.260487e-02 1.770333e+00 6.851149e+00 -7.936797e-05 2.223255e-04 -1.853230e-04
N -2.154585e-02 1.778301e+00 -3.313213e+00 -2.883807e-04 1.713240e-04 -1.157272e-04
N 3.179694e+00 -3.649216e+00 1.821513e+00 -1.082018e-03 -8.977413e-05 -5.921282e-04
N 3.126845e+00 -3.681258e+00 6.857769e+00 1.770291e-04 2.536475e-04 5.686379e-05
N 3.137168e+00 -3.674808e+00 -3.300910e+00 -1.995113e-04 1.292903e-04 3.612403e-06
N 1.552751e+00 -9.537471e-01 1.842905e+00 2.797698e-04 1.670429e-03 -6.665813e-04
N 1.590196e+00 -9.333112e-01 6.838786e+00 -3.749330e-04 2.265926e-04 -2.604874e-04
N 1.565508e+00 -9.482953e-01 -3.301868e+00 -3.578752e-04 2.377760e-04 -8.146245e-05
N 3.124189e+00 1.774346e+00 1.840681e+00 -6.408268e-04 -2.040652e-04 5.995948e-04
N 3.114423e+00 1.774070e+00 6.847450e+00 5.675362e-06 2.538671e-05 -2.719985e-04
N 3.136830e+00 1.782865e+00 -3.303102e+00 -9.901627e-05 -9.423779e-05 -2.316792e-04
N 6.275415e+00 -3.679702e+00 1.785758e+00 3.176686e-04 -1.261162e-04 -3.896635e-04
N 6.274971e+00 -3.680393e+00 6.857369e+00 7.348545e-05 -1.213235e-04 -1.090197e-04
N 6.292029e+00 -3.714379e+00 -3.328867e+00 -1.925564e-05 -2.056590e-04 -3.657907e-04
N 4.698646e+00 -9.481815e-01 1.794743e+00 4.398023e-05 2.734973e-04 -2.760676e-04
N 4.700298e+00 -9.570330e-01 6.848452e+00 -2.915261e-04 -9.789826e-05 -2.726409e-04
N 4.678756e+00 -9.212740e-01 -3.329813e+00 -5.447119e-04 8.483295e-05 -5.408766e-04
N -3.180851e+00 1.727643e+00 1.760583e+00 -2.027210e-04 -2.077092e-04 -1.380579e-03
N -3.187666e+00 1.770711e+00 6.862764e+00 -6.697929e-05 -1.034992e-04 -5.955632e-05
N -3.171592e+00 1.781988e+00 -3.244793e+00 1.153012e-04 1.217535e-04 2.337409e-04
N -6.647778e-02 -3.649454e+00 1.768989e+00 -6.921652e-04 -1.249983e-04 -1.129154e-03
N -3.370980e-02 -3.726858e+00 6.900846e+00 -2.793929e-04 -1.733924e-04 -9.750563e-05
N -1.477979e-02 -3.674083e+00 -3.298058e+00 2.130297e-04 -9.446595e-05 1.859680e-04
N -1.600456e+00 -9.433946e-01 1.788190e+00 9.387372e-05 -3.633210e-04 -2.993243e-04
N -1.647594e+00 -9.326097e-01 6.829571e+00 -4.978916e-04 8.365329e-05 -4.820977e-04
N -1.554934e+00 -9.188844e-01 -3.312710e+00 -1.463363e-04 3.124972e-04 -1.583200e-04
