108
Energy=-1.535276e+06 Lattice="9.527587e+00 0.000000e+00 0.000000e+00 -4.766043e+00 8.250335e+00 0.000000e+00 -3.641362e-03 8.448436e-03 1.538831e+01" Stress="-6.486841e-05 -2.569444e-05 -1.401317e-05 -2.595248e-05 3.300094e-06 5.160180e-04 -1.545962e-05 5.026713e-04 -2.161195e-04" Properties=species:S:1:pos:R:3:forces:R:3 Config_type=AlGaN_super3_24_1_27.xyz
Al 1.553458e+00 8.827176e-01 2.390966e+00 -1.625926e-04 7.307899e-05 4.134304e-04
Al 1.552798e+00 8.772507e-01 7.541927e+00 -9.427826e-06 -2.668249e-05 1.518137e-04
Al 1.546030e+00 8.582770e-01 -2.688717e+00 -1.506246e-04 5.404898e-05 1.898357e-05
Al -2.377147e-02 3.610040e+00 2.408699e+00 -6.319388e-05 1.326255e-04 1.263994e-04
Al -1.789366e-02 3.630112e+00 7.537539e+00 -2.400396e-04 -8.646529e-05 -4.696911e-05
Al -3.383260e-02 3.622782e+00 -2.704658e+00 1.535046e-04 -5.029575e-05 8.097277e-05
Al 3.160369e+00 -1.861409e+00 2.386455e+00 4.032188e-05 -7.195399e-05 9.610201e-05
Al 3.150250e+00 -1.868118e+00 7.556552e+00 3.990393e-06 -3.525480e-06 1.094713e-04
Al 3.138580e+00 -1.881377e+00 -2.697867e+00 1.814630e-04 2.648983e-04 5.690808e-05
Al -4.798057e+00 8.628587e-01 2.411995e+00 2.417430e-05 1.216252e-04 -1.238738e-05
Ga -4.805361e+00 8.664941e-01 7.534242e+00 1.525980e-04 -8.885884e-07 2.643481e-05
Ga -4.795009e+00 8.657365e-01 -2.684933e+00 4.483912e-05 1.392981e-06 2.825960e-05
Al -6.377604e+00 3.624611e+00 2.424613e+00 -1.935967e-04 6.547689e-05 -2.208922e-05
Ga -6.394171e+00 3.634746e+00 7.547263e+00 5.361190e-05 3.229403e-05 7.624053e-05
Ga -6.385315e+00 3.632491e+00 -2.712936e+00 -7.761601e-07 1.629574e-05 -1.935924e-05
Ga -3.209938e+00 -1.861654e+00 2.417850e+00 2.041157e-04 5.199583e-05 1.365147e-04
Ga -3.208142e+00 -1.880906e+00 7.531230e+00 4.151665e-05 1.563885e-04 2.135784e-04
Ga -3.193099e+00 -1.875332e+00 -2.697648e+00 -1.273756e-06 2.481651e-05 7.269071e-05
Al -1.587562e+00 8.810238e-01 2.409092e+00 4.976468e-06 1.123950e-04 5.114152e-04
Ga -1.590932e+00 8.814064e-01 7.540037e+00 1.958249e-04 1.058552e-05 6.912365e-05
Al -1.584839e+00 8.680182e-01 -2.692209e+00 4.080795e-05 1.061968e-04 -6.607367e-05
Ga -3.196692e+00 3.636190e+00 2.399776e+00 1.433038e-04 2.265274e-04 5.384123e-05
Ga -3.192282e+00 3.648810e+00 7.559051e+00 1.043408e-04 1.811942e-05 7.249377e-05
Ga -3.181079e+00 3.648857e+00 -2.696309e+00 -7.968310e-05 -5.276678e-05 3.306720e-05
Ga -1.937385e-02 -1.864139e+00 2.401498e+00 1.100547e-04 6.528472e-05 2.717996e-04
Ga -1.530448e-02 -1.860214e+00 7.559551e+00 1.139607e-04 1.771320e-05 3.273613e-04
Al -1.064236e-02 -1.857567e+00 -2.706898e+00 -2.899821e-05 1.383815e-04 8.816507e-05
Al -1.878277e-02 1.797384e+00 4.964824e+00 3.748523e-05 3.511127e-05 -2.683656e-05
Ga -1.412187e-02 1.795377e+00 -5.259549e+00 -1.221887e-04 1.056793e-04 2.450413e-04
Al -2.877094e-02 1.788257e+00 -1.568373e-01 -2.278679e-04 -2.429343e-04 1.358436e-04
Ga 3.174999e+00 -3.696248e+00 4.974034e+00 -4.159125e-05 8.595638e-05 1.565171e-04
Al 3.164575e+00 -3.694063e+00 -5.275570e+00 3.735474e-05 -8.459866e-05 -1.901686e-04
Al 3.164025e+00 -3.692458e+00 -1.448111e-01 6.265823e-05 6.381437e-05 2.956380e-04
Ga 1.566296e+00 -9.519335e-01 4.969345e+00 -1.162292e-04 1.406758e-04 7.384387e-05
Al 1.563501e+00 -9.714734e-01 -5.260978e+00 -4.989232e-05 1.167182e-04 7.437461e-05
Al 1.565026e+00 -9.652949e-01 -1.608912e-01 -1.252352e-04 1.114389e-04 7.839997e-06
Ga 3.137005e+00 1.801408e+00 4.949362e+00 1.156846e-04 8.142044e-05 1.485019e-04
Ga 3.134673e+00 1.791770e+00 -5.269108e+00 -1.286154e-05 1.870694e-05 2.503694e-05
Ga 3.139526e+00 1.787812e+00 -1.173563e-01 8.145883e-05 -1.722857e-05 1.235956e-04
Al 6.327258e+00 -3.705228e+00 4.953847e+00 -2.150472e-05 -8.118015e-05 -1.030816e-04
Al 6.323054e+00 -3.706322e+00 -5.271531e+00 -2.629021e-05 -1.479979e-05 1.698712e-04
Ga 6.317668e+00 -3.706643e+00 -1.279489e-01 1.354800e-05 -5.204246e-05 -2.377319e-05
Al 4.739869e+00 -9.659228e-01 4.967460e+00 -1.204976e-05 4.584715e-05 1.088292e-04
Ga 4.734678e+00 -9.860077e-01 -5.266437e+00 -1.204929e-04 9.798439e-05 1.322709e-04
Al 4.727169e+00 -9.692838e-01 -1.394791e-01 -1.083920e-04 1.787777e-04 8.673824e-07
Ga -3.191976e+00 1.783703e+00 4.948048e+00 7.083339e-05 8.376867e-05 8.912561e-05
Ga -3.187533e+00 1.797071e+00 -5.253391e+00 -4.700454e-05 5.834070e-05 7.016029e-05
Ga -3.178486e+00 1.785541e+00 -1.267447e-01 -5.381641e-05 -1.170464e-04 -1.153480e-04
Al -4.106905e-02 -3.694684e+00 4.971247e+00 3.770709e-05 6.180766e-05 2.768198e-04
Al -2.055412e-02 -3.686012e+00 -5.257188e+00 1.006606e-05 4.759307e-06 1.084672e-04
Al -1.885520e-02 -3.683319e+00 -1.500953e-01 -3.279018e-06 4.323243e-05 1.597704e-04
Al -1.613018e+00 -9.553305e-01 4.959817e+00 -8.677248e-05 1.593193e-04 1.253360e-04
Al -1.594368e+00 -9.737911e-01 -5.249700e+00 -1.171387e-04 8.622636e-05 1.802994e-04
Al -1.593315e+00 -9.499299e-01 -1.548239e-01 -3.158419e-05 -1.225627e-04 9.216853e-05
N 1.513601e+00 8.969205e-01 4.303543e+00 -2.265573e-05 5.732730e-05 -2.199346e-04
N 1.557267e+00 8.205289e-01 -5.928077e+00 3.660950e-05 -8.243429e-05 -1.118420e-04
N 1.522368e+00 8.504178e-01 -7.687046e-01 1.249565e-04 -9.398521e-05 -8.932427e-05
N 1.272346e-02 3.598667e+00 4.328902e+00 -2.709774e-05 -9.122314e-05 -1.442611e-04
N -2.079636e-02 3.667896e+00 -5.920530e+00 6.892068e-05 1.391499e-04 2.717767e-05
N -6.742678e-02 3.603982e+00 -7.822970e-01 4.756434e-06 1.490836e-04 -1.765829e-04
N 3.191475e+00 -1.847934e+00 4.300603e+00 5.119612e-05 5.829384e-05 -2.187837e-04
N 3.108143e+00 -1.897075e+00 -5.910749e+00 4.229571e-05 -1.607768e-04 -8.583678e-05
N 3.150274e+00 -1.876659e+00 -7.688006e-01 5.287947e-05 -8.554562e-05 -1.291554e-04
N -4.792350e+00 8.244242e-01 4.324660e+00 4.512621e-05 -1.429489e-04 -1.545767e-04
N -4.785911e+00 8.702370e-01 -5.886302e+00 1.129616e-04 -5.612431e-05 -6.301234e-05
N -4.788753e+00 8.326425e-01 -7.215565e-01 2.354950e-05 -6.490947e-05 4.321598e-05
N -6.374451e+00 3.681537e+00 4.339486e+00 4.846831e-05 1.514048e-05 -6.849151e-05
N -6.374054e+00 3.677095e+00 -5.853238e+00 2.105580e-05 7.224092e-05 -4.344607e-05
N -6.338541e+00 3.651328e+00 -7.456275e-01 5.369283e-05 -3.358510e-05 -1.315933e-05
N -3.201198e+00 -1.867388e+00 4.405532e+00 -3.512737e-05 -3.054499e-05 -1.044406e-04
N -3.149820e+00 -1.898811e+00 -5.863063e+00 1.087984e-04 -5.331488e-05 -1.933616e-04
N -3.196238e+00 -1.826580e+00 -7.169311e-01 1.094247e-04 -1.042030e-04 -9.684607e-05
N -1.558131e+00 8.544033e-01 4.332730e+00 8.891477e-05 -7.190476e-05 -3.199403e-04
N -1.603360e+00 8.227971e-01 -5.873397e+00 2.093560e-04 -2.089567e-04 -1.478509e-04
N -1.566011e+00 8.506855e-01 -7.800865e-01 8.286701e-05 2.129214e-04 -4.812216e-05
N -3.238508e+00 3.664620e+00 4.372748e+00 -7.637553e-05 -1.430510e-04 -1.549821e-04
N -3.199139e+00 3.677418e+00 -5.842245e+00 -4.081713e-06 -1.313552e-05 -2.481796e-05
N -3.194387e+00 3.678632e+00 -7.117279e-01 -4.618428e-05 -2.761639e-05 -3.411448e-06
N -6.109549e-02 -1.891021e+00 4.379043e+00 2.702885e-05 -1.948707e-04 -2.781915e-04
N -1.985620e-02 -1.871779e+00 -5.838449e+00 -3.670457e-05 -1.088913e-04 -1.924002e-04
N -1.965267e-02 -1.870077e+00 -7.725271e-01 4.816423e-05 -1.096712e-04 -1.623885e-04
N -2.504394e-02 1.797411e+00 1.771401e+00 -6.021376e-05 -1.890300e-05 -9.977285e-05
N 1.888341e-02 1.824070e+00 6.898166e+00 8.307728e-05 -2.024322e-05 -1.175117e-04
N -1.809665e-02 1.795578e+00 -3.271843e+00 1.355991e-05 -1.816295e-04 -2.920052e-05
N 3.205845e+00 -3.679029e+00 1.776597e+00 -9.128455e-05 -3.705665e-05 -1.730673e-04
N 3.200458e+00 -3.675612e+00 6.958263e+00 -2.751070e-04 6.298630e-05 8.324695e-06
N 3.203273e+00 -3.679107e+00 -3.348845e+00 -1.586949e-04 7.772760e-05 1.269991e-05
N 1.606126e+00 -9.322154e-01 1.762607e+00 1.380266e-04 -8.078705e-05 -1.079748e-04
N 1.608314e+00 -9.303977e-01 6.952545e+00 -1.076436e-04 1.249294e-05 -1.982282e-04
N 1.570251e+00 -9.576882e-01 -3.320415e+00 -2.431979e-05 -2.359411e-05 -1.500589e-04
N 3.149086e+00 1.797308e+00 1.866005e+00 8.667401e-05 -2.144048e-05 -1.567277e-04
N 3.102317e+00 1.776981e+00 6.930165e+00 -1.237149e-04 -9.721317e-05 -1.026977e-04
N 3.101050e+00 1.762853e+00 -3.297362e+00 -6.331603e-06 -3.519747e-05 -4.477752e-05
N 6.326046e+00 -3.753085e+00 1.844282e+00 3.178734e-04 5.228924e-05 1.027384e-04
N 6.284835e+00 -3.730376e+00 6.872459e+00 1.073758e-04 2.599885e-05 5.918269e-06
N 6.279631e+00 -3.731220e+00 -3.355809e+00 -4.284172e-05 -4.051162e-05 -2.655296e-05
N 4.700629e+00 -9.339460e-01 1.769669e+00 -3.023579e-04 -2.460937e-04 5.776449e-05
N 4.692640e+00 -9.836439e-01 6.886803e+00 -1.724998e-04 -2.542162e-05 -9.186929e-05
N 4.696157e+00 -9.879377e-01 -3.300368e+00 -2.312013e-04 -1.575726e-04 -1.036894e-05
N -3.193089e+00 1.742836e+00 1.851304e+00 -3.322594e-05 5.471870e-05 9.340427e-05
N -3.198414e+00 1.799523e+00 6.921774e+00 -7.838022e-05 -5.161224e-05 -1.289005e-04
N -3.153714e+00 1.770531e+00 -3.278749e+00 5.440307e-05 -4.479537e-05 -4.753261e-06
N -6.793923e-02 -3.723709e+00 1.756175e+00 2.483323e-05 -1.849546e-05 -1.866877e-04
N -2.683909e-02 -3.699616e+00 6.881492e+00 -5.393537e-05 8.407229e-06 -2.264729e-04
N -1.966368e-02 -3.655087e+00 -3.346265e+00 5.712032e-05 -5.547375e-05 -9.321916e-05
N -1.609685e+00 -9.057143e-01 1.757451e+00 2.337671e-05 -8.007623e-05 -1.760818e-04
N -1.609083e+00 -9.535467e-01 6.867872e+00 -1.448796e-04 -4.178262e-06 -1.883152e-04
N -1.566256e+00 -9.345825e-01 -3.328914e+00 6.171263e-05 -1.255442e-04 -2.044119e-06
