108
Energy=-1.718377e+06 Lattice="9.502478e+00 0.000000e+00 0.000000e+00 -4.759057e+00 8.226069e+00 0.000000e+00 -1.146291e-04 -1.585551e-03 1.534525e+01" Stress="-2.060862e-02 -1.222275e-03 -1.169238e-05 -1.229262e-03 -2.184849e-02 2.488750e-04 -3.441707e-05 2.504143e-04 -1.975064e-02" Properties=species:S:1:pos:R:3:forces:R:3 Config_type=AlGaN_super3_28_2_4.xyz
Al 1.558128e+00 8.442351e-01 2.420726e+00 -2.609188e-03 8.810058e-03 -1.203624e-03
Al 1.543249e+00 8.570623e-01 7.554048e+00 7.373469e-04 4.059989e-03 5.621946e-03
Al 1.547857e+00 8.520658e-01 -2.769593e+00 3.578284e-03 5.459664e-03 8.888190e-03
Al -1.729183e-02 3.625197e+00 2.384389e+00 -1.021313e-02 -9.331873e-03 1.695231e-02
Al -3.391870e-02 3.598001e+00 7.545955e+00 -2.916440e-03 7.185819e-04 3.208874e-03
Ga -7.758276e-03 3.599483e+00 -2.755557e+00 -1.865829e-04 -9.300677e-04 5.661783e-03
Al 3.141976e+00 -1.847313e+00 2.364269e+00 2.227843e-03 -9.525812e-03 1.857879e-02
Ga 3.133218e+00 -1.889369e+00 7.536914e+00 -3.715452e-04 -2.573527e-03 1.246494e-03
Ga 3.133472e+00 -1.863591e+00 -2.742672e+00 -1.445018e-03 -1.610076e-03 7.845530e-03
Al -4.782737e+00 8.608423e-01 2.431765e+00 4.522778e-03 7.604600e-03 -2.178440e-03
Ga -4.792322e+00 8.824803e-01 7.532443e+00 5.340565e-03 7.870000e-03 1.996375e-03
Ga -4.802644e+00 8.742045e-01 -2.730452e+00 -4.097035e-04 8.632984e-03 7.112167e-03
Ga -6.366526e+00 3.604997e+00 2.430310e+00 2.082368e-03 -6.183682e-04 4.139467e-04
Ga -6.365004e+00 3.611363e+00 7.542486e+00 3.718825e-03 1.187031e-03 -1.866136e-05
Al -6.375875e+00 3.620515e+00 -2.751483e+00 3.160250e-03 -3.606387e-03 4.470124e-03
Ga -3.198446e+00 -1.856017e+00 2.392977e+00 2.522035e-03 3.037036e-04 2.847263e-03
Ga -3.170346e+00 -1.874899e+00 7.533778e+00 2.974049e-03 2.109423e-04 1.106908e-03
Ga -3.162063e+00 -1.877306e+00 -2.716052e+00 5.230389e-04 -2.091242e-03 8.426253e-03
Al -1.619571e+00 8.777117e-01 2.441622e+00 -3.942591e-04 4.532688e-03 3.651307e-04
Ga -1.598100e+00 8.902451e-01 7.516256e+00 -5.770557e-03 8.606148e-05 1.127764e-03
Ga -1.592958e+00 8.684846e-01 -2.732712e+00 -1.266801e-03 4.505764e-03 7.353818e-03
Al -3.182388e+00 3.626345e+00 2.465731e+00 4.910379e-04 -5.361708e-03 -1.601947e-04
Al -3.177300e+00 3.639247e+00 7.505413e+00 -5.657969e-03 -4.352480e-03 1.782770e-03
Ga -3.199658e+00 3.640837e+00 -2.734371e+00 -3.013429e-03 -2.751131e-03 3.854412e-03
Ga -5.147633e-05 -1.841810e+00 2.415445e+00 -3.915428e-03 -3.159948e-03 3.335770e-03
Al 4.753140e-03 -1.847766e+00 7.511350e+00 -6.857002e-03 -7.691684e-03 4.062316e-03
Al -5.949625e-03 -1.840110e+00 -2.731579e+00 5.648980e-04 -5.704498e-03 1.061267e-02
Ga -4.858608e-02 1.775839e+00 4.985659e+00 2.962892e-03 5.462271e-03 -6.777197e-04
Al -1.392768e-02 1.779301e+00 -5.296653e+00 7.075524e-03 6.959908e-03 3.041283e-03
Ga -1.925116e-02 1.758996e+00 -1.161787e-01 2.765466e-03 3.180762e-03 -8.392212e-03
Al 3.133100e+00 -3.724565e+00 4.988723e+00 9.126775e-04 5.081560e-04 8.711531e-04
Al 3.150747e+00 -3.713110e+00 -5.301346e+00 7.279273e-03 3.247757e-03 1.818606e-03
Ga 3.155454e+00 -3.694745e+00 -1.010694e-01 2.628874e-03 4.272618e-03 -8.675138e-03
Ga 1.559389e+00 -9.701764e-01 4.994449e+00 5.662668e-03 -1.800928e-03 3.330316e-03
Al 1.557812e+00 -9.474003e-01 -5.291427e+00 4.291616e-03 1.589751e-03 4.646869e-03
Al 1.565273e+00 -9.420421e-01 -1.515071e-01 1.181169e-03 -3.767003e-03 -1.014483e-02
Ga 3.146874e+00 1.781388e+00 4.985508e+00 -1.599638e-03 -3.917013e-04 2.722869e-04
Al 3.108266e+00 1.785426e+00 -5.273202e+00 -2.740963e-03 -1.286822e-04 3.264272e-03
Ga 3.121325e+00 1.777488e+00 -1.318537e-01 -8.584711e-04 2.852779e-04 -1.302273e-02
Ga 6.308602e+00 -3.693688e+00 4.999337e+00 -5.724460e-03 -1.871654e-03 -5.801617e-04
Al 6.310778e+00 -3.716926e+00 -5.282268e+00 -4.051154e-03 -2.722900e-04 1.517597e-03
Al 6.319583e+00 -3.689578e+00 -1.400041e-01 1.513511e-04 2.165057e-03 -1.723807e-02
Ga 4.748253e+00 -9.435436e-01 4.982922e+00 -5.757059e-03 -6.591899e-03 -4.310446e-04
Ga 4.726098e+00 -9.553187e-01 -5.277091e+00 -1.347225e-03 -4.993145e-03 4.332546e-04
Al 4.735159e+00 -9.417789e-01 -1.179658e-01 -5.307413e-04 -8.723614e-03 -1.537758e-02
Al -3.196786e+00 1.793118e+00 4.948227e+00 2.368504e-03 6.938218e-03 5.857366e-03
Ga -3.193259e+00 1.810387e+00 -5.292918e+00 -1.039782e-03 1.030838e-03 1.809598e-03
Ga -3.197635e+00 1.780889e+00 -1.056980e-01 -6.239827e-04 4.404282e-04 -7.251844e-03
Al -3.882250e-03 -3.685646e+00 5.004286e+00 3.076790e-03 -8.834482e-04 -4.066801e-04
Ga -1.419438e-02 -3.677332e+00 -5.285346e+00 -6.886373e-04 5.118986e-04 2.482915e-03
Ga -3.071262e-02 -3.669056e+00 -1.411068e-01 -1.194493e-03 1.335008e-03 -1.528224e-02
Al -1.592862e+00 -9.417953e-01 4.990118e+00 -5.332053e-04 -2.775166e-03 2.120850e-03
Ga -1.572131e+00 -9.420419e-01 -5.283267e+00 -2.223784e-03 -5.803296e-03 4.534312e-03
Al -1.593359e+00 -9.324275e-01 -1.346348e-01 -1.251985e-03 -1.023113e-02 -1.355168e-02
N 1.551485e+00 8.534962e-01 4.320928e+00 1.612148e-03 2.969940e-03 -4.004362e-03
N 1.553605e+00 8.584379e-01 -5.881386e+00 1.662404e-03 3.527033e-03 -1.194435e-03
N 1.550853e+00 8.052518e-01 -8.358907e-01 1.297154e-03 9.020163e-03 1.841965e-03
N -9.057391e-02 3.641984e+00 4.353854e+00 1.261456e-02 -5.675805e-03 -1.391110e-02
N -2.636435e-02 3.611958e+00 -5.884572e+00 -7.937490e-05 -1.658989e-03 -4.497581e-04
N 1.860119e-02 3.633848e+00 -7.656103e-01 -2.915537e-03 -3.275153e-03 2.493406e-03
N 3.154399e+00 -1.952157e+00 4.392256e+00 -9.378236e-04 1.657959e-02 -2.236599e-02
N 3.102540e+00 -1.901806e+00 -5.841446e+00 1.959453e-03 2.205621e-03 -2.328683e-03
N 3.151043e+00 -1.820176e+00 -7.376323e-01 4.302968e-04 -2.576697e-03 1.750144e-03
N -4.728369e+00 8.931867e-01 4.343855e+00 -6.312028e-03 1.242709e-04 -7.255724e-03
N -4.834488e+00 8.980951e-01 -5.855651e+00 4.508514e-03 3.670831e-03 -3.030878e-03
N -4.786157e+00 8.151167e-01 -7.512957e-01 2.105495e-03 1.010741e-02 6.223973e-04
N -6.318641e+00 3.648600e+00 4.412964e+00 -8.748145e-04 -1.871814e-03 -7.205731e-03
N -6.406863e+00 3.590998e+00 -5.841177e+00 6.327116e-03 1.874788e-04 -3.502601e-03
N -6.411915e+00 3.642321e+00 -8.293400e-01 3.274566e-03 -2.634101e-03 6.939584e-03
N -3.132217e+00 -1.839654e+00 4.398626e+00 -1.615185e-03 -2.643938e-03 -1.313092e-02
N -3.175348e+00 -1.919672e+00 -5.857611e+00 1.645515e-03 3.956065e-03 -1.126863e-03
N -3.183789e+00 -1.864546e+00 -7.034940e-01 9.461244e-04 1.172635e-03 7.591484e-04
N -1.662875e+00 8.358852e-01 4.375662e+00 2.543788e-03 3.207720e-03 -8.185527e-03
N -1.563226e+00 9.048784e-01 -5.863094e+00 -6.756308e-03 -5.470570e-04 -6.658746e-03
N -1.610284e+00 8.275935e-01 -7.514845e-01 -2.360707e-03 7.683556e-03 -1.375878e-03
N -3.192480e+00 3.631241e+00 4.384232e+00 -6.315492e-03 -4.609442e-03 -3.980785e-03
N -3.142526e+00 3.661802e+00 -5.933870e+00 -8.816433e-03 -6.211827e-03 -3.702104e-03
N -3.186584e+00 3.630277e+00 -7.786708e-01 -2.227539e-03 -4.565158e-03 5.405246e-03
N -5.764911e-02 -1.878744e+00 4.421144e+00 -1.021872e-03 -3.099148e-03 -1.219747e-02
N 3.942258e-02 -1.824279e+00 -5.934462e+00 -7.147922e-03 -6.707445e-03 -2.538147e-03
N -6.481150e-03 -1.793737e+00 -7.934680e-01 -3.381505e-03 -4.693314e-03 3.013243e-03
N -3.309414e-02 1.771542e+00 1.861485e+00 3.979739e-03 3.004782e-03 4.055756e-03
N 2.043956e-02 1.800265e+00 6.970942e+00 1.863832e-03 2.532253e-03 -8.180399e-03
N 1.566597e-02 1.743745e+00 -3.392997e+00 -9.042644e-04 6.045168e-03 1.853793e-04
N 3.144299e+00 -3.709749e+00 1.875992e+00 1.629411e-03 8.102498e-03 -3.145950e-03
N 3.148480e+00 -3.770411e+00 6.906327e+00 6.889766e-03 8.277165e-03 -3.748363e-03
N 3.147190e+00 -3.711224e+00 -3.410906e+00 4.238499e-03 4.486987e-03 3.303582e-03
N 1.606491e+00 -9.197572e-01 1.749465e+00 -1.078611e-03 -4.142600e-03 8.321788e-03
N 1.519138e+00 -9.217078e-01 6.974774e+00 9.014778e-03 -1.159983e-03 -9.911877e-03
N 1.515166e+00 -9.281460e-01 -3.372901e+00 4.808693e-03 -4.732244e-03 -3.618638e-03
N 3.138608e+00 1.727215e+00 1.827799e+00 -2.083914e-03 3.959558e-03 7.198430e-03
N 3.081938e+00 1.750748e+00 6.948039e+00 9.231643e-04 2.449302e-03 -5.956867e-03
N 3.086459e+00 1.810605e+00 -3.367503e+00 1.349088e-03 -6.793282e-04 3.554269e-03
N 6.264952e+00 -3.732709e+00 1.728580e+00 8.671245e-03 5.696140e-03 1.623076e-02
N 6.263600e+00 -3.731016e+00 6.955421e+00 2.159310e-03 2.187046e-03 -3.786605e-03
N 6.363824e+00 -3.722276e+00 -3.390472e+00 -5.400007e-03 4.727404e-03 2.179977e-03
N 4.685422e+00 -9.083184e-01 1.759689e+00 1.027108e-03 -6.809112e-03 1.501918e-02
N 4.737309e+00 -9.416208e-01 6.940987e+00 -2.496022e-03 -6.745224e-03 -4.002862e-03
N 4.743391e+00 -9.445453e-01 -3.332827e+00 -3.222274e-04 -8.034872e-03 4.519291e-04
N -3.197784e+00 1.801026e+00 1.866289e+00 -6.942380e-04 -1.475360e-03 7.882026e-03
N -3.200739e+00 1.854426e+00 6.869038e+00 -6.615099e-04 -6.408755e-03 -4.162111e-04
N -3.198167e+00 1.794308e+00 -3.345626e+00 -1.313532e-05 -4.557512e-04 2.540783e-03
N 3.379721e-02 -3.720990e+00 1.800278e+00 -5.169577e-03 3.847593e-03 1.091507e-02
N 3.052046e-02 -3.664137e+00 6.913077e+00 -4.237156e-03 1.457440e-04 -2.192631e-04
N -6.562443e-02 -3.654550e+00 -3.308266e+00 1.233436e-03 6.396732e-04 -4.402738e-04
N -1.595942e+00 -8.830108e-01 1.741780e+00 -8.981957e-04 -7.102063e-03 1.330524e-02
N -1.546645e+00 -9.632082e-01 6.890955e+00 -4.819703e-03 -2.011564e-03 -1.355594e-03
N -1.542948e+00 -9.655605e-01 -3.318304e+00 -6.781600e-03 -4.354135e-03 -3.320147e-03
