108
Energy=-1901475.112806 Lattice="9.485315 0.000000 0.000000 -4.745875 8.211204 0.000000 0.000775 -0.000899 15.310639" Stress="-0.000269 0.000031 -0.000001 0.000031 -0.000237 -0.000001 -0.000001 -0.000001 -0.000230" Properties=species:S:1:pos:R:3:forces:R:3
Al 1.562413 0.869784 2.455605 -0.000237 0.000414 0.000843
Al 1.561422 0.898304 7.519034 -0.000668 -0.013191 -0.003654
Al 1.563106 0.898410 -2.762385 -0.001344 -0.013264 -0.003725
Al 0.000769 3.608753 2.471531 -0.001772 -0.003576 -0.005819
Al -0.004273 3.610541 7.517118 -0.003419 -0.000485 -0.001583
Ga -0.004159 3.615146 -2.754305 -0.002702 -0.001457 -0.000142
Al 3.177546 -1.883706 2.416844 -0.005694 -0.000231 0.012637
Ga 3.172012 -1.884868 7.517905 -0.002721 0.000548 -0.003658
Al 3.173690 -1.882615 -2.758202 -0.003307 0.001505 -0.002764
Ga -4.790699 0.898988 2.482368 -0.000216 -0.013856 -0.009365
Ga -4.786547 0.901010 7.520340 0.000617 -0.015108 -0.003389
Ga -4.788534 0.899058 -2.757594 0.000792 -0.014905 -0.003116
Al -6.352780 3.614313 2.473371 -0.001116 -0.002222 -0.004551
Ga -6.354292 3.613880 7.517307 0.000728 0.000475 -0.001186
Ga -6.355967 3.615888 -2.751589 -0.000266 0.000253 0.001208
Ga -3.176839 -1.886111 2.471540 -0.001051 0.001748 -0.005843
Ga -3.174382 -1.883569 7.519602 -0.000493 0.002634 -0.001365
Al -3.176804 -1.882332 -2.754582 0.000383 0.002975 -0.000565
Ga -1.651123 0.899130 2.477147 0.015360 -0.006547 -0.011269
Ga -1.649741 0.902108 7.521739 0.014435 -0.008006 -0.005660
Ga -1.652518 0.900368 -2.759679 0.014662 -0.008603 -0.006071
Ga -3.217176 3.617192 2.472067 0.013186 0.006069 -0.006782
Al -3.218093 3.615178 7.515745 0.011090 0.005770 -0.002838
Ga -3.219934 3.617393 -2.753803 0.013727 0.006954 -0.001685
Ga -0.040240 -1.879333 2.472132 0.013228 0.008559 -0.007961
Al -0.039791 -1.880326 7.518215 0.011336 0.006303 -0.002926
Ga -0.041919 -1.879665 -2.754281 0.012966 0.009742 -0.003252
Ga -0.003109 1.803486 4.998983 -0.011953 -0.009701 -0.005509
Al -0.004359 1.801480 -5.277500 -0.010929 -0.006735 -0.004145
Al -0.004251 1.802332 -0.246100 -0.010657 -0.007262 0.030520
Al 3.174196 -3.694883 4.998317 -0.010590 -0.002369 -0.003110
Ga 3.173198 -3.694169 -5.276134 -0.012913 -0.007315 -0.003850
Ga 3.173841 -3.692415 -0.218267 -0.012709 -0.008017 0.031052
Ga 1.605795 -0.981830 5.001342 -0.011719 0.008217 -0.008357
Al 1.604818 -0.977469 -5.276916 -0.012989 0.007180 -0.004859
Al 1.609034 -0.972154 -0.244290 -0.013911 0.007446 0.025639
Ga 3.130930 1.804368 4.999163 -0.001059 -0.002933 -0.003096
Ga 3.129063 1.803712 -5.275158 -0.000268 -0.003366 -0.001789
Al 3.128419 1.802668 -0.243923 0.000247 -0.002252 0.032054
Ga 6.309132 -3.693060 4.996874 0.000128 -0.000956 -0.000503
Ga 6.309135 -3.691519 -5.273869 -0.000866 -0.000463 -0.000132
Ga 6.307111 -3.693242 -0.216536 0.000540 -0.000123 0.035911
Ga 4.742286 -0.980548 5.000920 -0.003393 0.013974 -0.005171
Ga 4.742340 -0.977842 -5.272589 -0.001078 0.014810 -0.003339
Al 4.738107 -0.976130 -0.244728 0.000176 0.011935 0.029028
Ga -3.218132 1.807818 4.999726 0.002314 -0.001552 -0.002741
Al -3.218036 1.805858 -5.276851 0.003161 -0.001315 -0.003133
Al -3.219907 1.804701 -0.243287 0.002497 -0.001790 0.031554
Al -0.038193 -3.689969 4.997008 0.002077 0.000306 -0.000737
Ga -0.040389 -3.689846 -5.276546 0.003093 0.001782 -0.001869
Ga -0.039595 -3.692265 -0.215126 0.001796 0.001109 0.034082
Ga -1.606738 -0.979695 5.000083 0.001250 0.016463 -0.003481
Al -1.607974 -0.975631 -5.274980 0.001442 0.013035 -0.003407
Ga -1.609507 -0.972611 -0.219278 0.000999 0.015080 0.031250
N 1.563329 0.897838 4.398386 -0.001427 -0.016487 -0.018949
N 1.558551 0.896796 -5.874903 -0.016585 -0.021578 -0.002999
N 1.562018 0.900480 -0.844943 -0.000103 -0.011793 0.005820
N -0.007536 3.615035 4.394875 -0.019178 0.010059 -0.014119
N -0.004536 3.609363 -5.875837 -0.001156 -0.019343 -0.012702
N -0.005315 3.610623 -0.827215 -0.001951 -0.018998 0.008736
N 3.173819 -1.889769 4.405053 -0.002287 -0.018359 -0.023037
N 3.169511 -1.880965 -5.871368 -0.018716 0.011587 0.008687
N 3.172767 -1.879613 -0.837564 -0.002712 0.019728 -0.002917
N -4.786971 0.899444 4.403973 0.002060 -0.015438 0.004462
N -4.783389 0.902615 -5.869102 0.017467 -0.005362 0.011994
N -4.788121 0.900804 -0.835423 0.000980 -0.011727 0.026643
N -6.349310 3.617358 4.396485 0.017231 0.011017 -0.013605
N -6.354796 3.615163 -5.872176 -0.000197 0.000055 0.001065
N -6.355067 3.611910 -0.824994 -0.000209 -0.018805 0.009487
N -3.174932 -1.883726 4.398964 -0.000112 0.002598 -0.001325
N -3.172390 -1.879794 -5.870097 0.016216 0.011625 0.008572
N -3.179465 -1.880335 -0.831359 -0.017251 0.010704 -0.010931
N -1.651270 0.899391 4.401797 0.014126 -0.009049 0.007410
N -1.652120 0.901477 -5.866635 0.011869 -0.007380 0.025987
N -1.652907 0.905615 -0.834646 0.012253 0.009367 0.021383
N -3.217814 3.621921 4.400782 0.010736 0.024512 0.015630
N -3.219895 3.611834 -5.877134 0.012642 -0.012732 -0.009679
N -3.219955 3.612536 -0.826878 0.013496 -0.011960 0.012350
N -0.041846 -1.886311 4.399951 0.012390 -0.010931 0.008984
N -0.041630 -1.876037 -5.874109 0.009928 0.025566 -0.003689
N -0.038640 -1.877825 -0.825532 0.027535 0.015876 0.011554
N 0.002804 1.797922 1.882342 0.003282 0.001498 -0.033646
N 0.000774 1.804793 6.923921 0.003673 0.001301 0.017901
N 0.000151 1.801666 -3.359902 0.003897 -0.017495 -0.008342
N 3.183713 -3.702125 1.855451 0.001992 0.005397 -0.014196
N 3.174801 -3.699627 6.918413 -0.010182 -0.024997 -0.003878
N 3.173823 -3.688829 -3.352458 -0.013415 0.012443 0.011377
N 1.608770 -0.953740 1.891141 0.002198 0.003212 -0.035892
N 1.602091 -0.977162 6.924269 -0.029438 0.017375 0.019968
N 1.610064 -0.976408 -3.357908 0.002565 0.014473 0.001155
N 3.124421 1.805956 1.889180 -0.015438 0.007007 -0.038318
N 3.126967 1.801538 6.922841 -0.016262 -0.011549 0.007479
N 3.126032 1.802903 -3.353339 -0.015509 -0.010688 0.008749
N 6.311542 -3.700693 1.869718 0.000469 -0.018050 -0.018919
N 6.305587 -3.695609 6.921223 -0.016819 -0.010245 0.007023
N 6.308785 -3.687073 -3.350280 0.000562 0.019353 0.007466
N 4.733352 -0.982930 1.885562 -0.013239 0.007437 -0.043435
N 4.742578 -0.978756 6.922473 -0.000406 0.015590 0.004896
N 4.741720 -0.983024 -3.350494 -0.000533 -0.004510 0.019696
N -3.220076 1.803860 1.883383 0.002120 -0.001977 -0.051000
N -3.218063 1.809751 6.922539 0.002629 0.017301 0.007542
N -3.219790 1.806588 -3.360153 0.001824 -0.001138 -0.019558
N -0.041747 -3.692940 1.863858 -0.014853 -0.008408 -0.024403
N -0.036431 -3.689194 6.917829 0.018042 0.009781 -0.006623
N -0.041280 -3.690260 -3.352660 0.001672 -0.000150 0.000302
N -1.609308 -0.977549 1.863889 0.000661 0.014987 -0.029294
N -1.603287 -0.979693 6.923123 0.017406 0.006529 0.011217
N -1.612502 -0.979677 -3.356798 -0.016130 0.005082 -0.009461
