108
Energy=-1.260623e+06 Lattice="9.494000e+00 0.000000e+00 0.000000e+00 -4.748903e+00 8.217793e+00 0.000000e+00 -1.521594e-03 -7.592390e-04 1.531101e+01" Stress="-2.199648e-04 -1.541088e-04 -5.415399e-05 -1.546748e-04 -8.862537e-04 4.710990e-05 -4.980366e-05 4.107296e-05 4.209471e-05" Properties=species:S:1:pos:R:3:forces:R:3 Config_type=AlGaN_super3_18_2_28.xyz
Al 1.572438e+00 8.807046e-01 2.402303e+00 -2.261072e-05 1.561584e-04 -3.458400e-05
Al 1.554552e+00 8.821753e-01 7.505261e+00 -1.981555e-05 8.181406e-05 1.699031e-05
Al 1.560320e+00 8.825735e-01 -2.703720e+00 -1.520197e-04 1.624163e-04 -8.865120e-06
Al -2.663583e-02 3.620459e+00 2.415370e+00 -6.067766e-05 -2.366110e-04 -2.117232e-05
Al -2.925015e-02 3.607541e+00 7.483837e+00 -9.585332e-05 3.681960e-05 2.005794e-05
Al -1.569182e-02 3.602084e+00 -2.696768e+00 1.682886e-04 2.201489e-04 -1.955038e-05
Al 3.143442e+00 -1.876274e+00 2.403621e+00 2.992220e-04 2.534401e-04 -3.217879e-04
Al 3.145852e+00 -1.874116e+00 7.519391e+00 -9.729014e-06 1.725414e-04 -4.199571e-05
Ga 3.142584e+00 -1.860630e+00 -2.712911e+00 -3.100582e-05 -1.942041e-05 1.614262e-04
Al -4.782739e+00 8.797140e-01 2.407817e+00 -1.402733e-05 -2.672939e-04 -1.006990e-04
Al -4.782341e+00 8.710192e-01 7.500451e+00 -4.875710e-05 -2.494663e-04 -2.845365e-04
Al -4.781926e+00 8.777086e-01 -2.694079e+00 1.439066e-04 -7.339729e-06 8.385649e-05
Ga -6.367082e+00 3.596061e+00 2.428808e+00 -1.733441e-04 -8.858451e-06 1.432983e-05
Al -6.350074e+00 3.611004e+00 7.473865e+00 -5.353474e-05 2.538764e-05 1.643280e-04
Al -6.361469e+00 3.599677e+00 -2.691823e+00 6.562491e-05 7.426495e-05 -2.109544e-04
Al -3.199236e+00 -1.879215e+00 2.432717e+00 -3.036351e-04 2.287461e-04 -5.051012e-04
Al -3.191493e+00 -1.868455e+00 7.493074e+00 -9.425889e-05 6.771217e-05 -3.968146e-05
Ga -3.200449e+00 -1.875546e+00 -2.705071e+00 -5.707257e-05 -7.483699e-06 1.900321e-05
Ga -1.604219e+00 8.895878e-01 2.418704e+00 1.009261e-04 -1.058074e-04 8.418483e-05
Al -1.592119e+00 8.771322e-01 7.484820e+00 -2.520287e-05 -8.504789e-05 -1.071322e-04
Ga -1.595588e+00 8.967393e-01 -2.686713e+00 1.991576e-04 -8.015880e-05 5.204435e-06
Al -3.172557e+00 3.614386e+00 2.418349e+00 3.833988e-04 -2.111333e-04 -1.160763e-05
Al -3.187676e+00 3.628035e+00 7.504267e+00 2.234871e-06 -2.910952e-04 9.476721e-05
Ga -3.185348e+00 3.611617e+00 -2.707668e+00 1.507090e-05 -3.761744e-05 4.836713e-05
Ga -1.005487e-02 -1.861222e+00 2.439348e+00 8.600175e-06 -5.911813e-05 -2.728369e-08
Al -2.235067e-02 -1.875539e+00 7.497282e+00 6.814316e-05 1.745372e-04 -1.436840e-04
Ga -7.502951e-03 -1.865299e+00 -2.713313e+00 7.726597e-05 -1.262091e-04 7.211387e-05
Al -1.032035e-02 1.799427e+00 4.960126e+00 4.873333e-05 -9.079052e-05 -4.229423e-05
Al -1.789635e-02 1.793062e+00 -5.270115e+00 1.469361e-05 3.324811e-04 1.037687e-04
Al -6.399830e-03 1.802012e+00 -1.407435e-01 2.003138e-04 3.120533e-05 2.826488e-05
Al 3.146759e+00 -3.698422e+00 4.960664e+00 4.879672e-06 -3.747814e-05 -4.731901e-05
Al 3.148775e+00 -3.688363e+00 -5.283447e+00 -1.290289e-04 -2.334389e-05 -3.238311e-05
Al 3.155755e+00 -3.705359e+00 -1.271068e-01 -5.457208e-06 4.733833e-05 -2.044208e-05
Ga 1.561770e+00 -9.448900e-01 4.980024e+00 -7.385173e-05 1.215554e-04 1.713847e-04
Al 1.566111e+00 -9.527125e-01 -5.295264e+00 -1.970903e-05 2.403948e-05 8.947672e-05
Al 1.570406e+00 -9.353156e-01 -1.292830e-01 -1.279717e-04 1.822910e-04 -4.407827e-05
Al 3.126818e+00 1.792802e+00 4.974063e+00 1.829602e-05 1.336612e-04 6.011694e-05
Ga 3.134989e+00 1.782358e+00 -5.253428e+00 6.497685e-05 6.257573e-05 1.753361e-04
Al 3.130057e+00 1.780531e+00 -1.642697e-01 1.006154e-04 1.182433e-04 1.281757e-04
Al 6.301968e+00 -3.699200e+00 4.973140e+00 1.281588e-04 -1.077021e-04 7.533335e-07
Ga 6.298731e+00 -3.702958e+00 -5.277706e+00 2.846314e-05 -7.447429e-05 6.460427e-05
Al 6.291751e+00 -3.713552e+00 -1.388956e-01 1.141905e-04 -4.358011e-06 -6.240722e-05
Ga 4.722996e+00 -9.612928e-01 4.953701e+00 -2.564368e-05 6.953414e-05 4.164553e-05
Al 4.711350e+00 -9.545045e-01 -5.277758e+00 -4.744714e-05 -5.866332e-05 -4.648107e-05
Ga 4.716829e+00 -9.463075e-01 -1.135374e-01 -5.197556e-05 1.396011e-06 4.474899e-05
Ga -3.193341e+00 1.801355e+00 4.976617e+00 1.829541e-04 -4.457899e-05 1.360832e-04
Ga -3.187042e+00 1.792414e+00 -5.287449e+00 8.325769e-05 6.573970e-05 1.134266e-04
Al -3.193740e+00 1.797000e+00 -1.270577e-01 -1.995847e-05 5.230212e-06 -4.533769e-06
Al -2.230001e-02 -3.697592e+00 4.975317e+00 2.327286e-04 -1.789810e-04 3.455734e-06
Al -1.412189e-02 -3.687465e+00 -5.281060e+00 -1.299669e-04 -2.247180e-04 -3.776389e-05
Ga -1.875923e-02 -3.705236e+00 -1.331155e-01 3.556229e-05 2.790916e-05 8.006042e-06
Al -1.607418e+00 -9.647309e-01 4.985562e+00 -3.910435e-04 3.071539e-04 8.717866e-06
Ga -1.593999e+00 -9.496044e-01 -5.289232e+00 -1.151908e-04 -8.781995e-05 5.389591e-05
Ga -1.602704e+00 -9.476353e-01 -1.292838e-01 -8.508243e-05 9.657373e-06 4.495648e-05
N 1.560413e+00 9.227094e-01 4.324097e+00 3.232883e-05 -5.573139e-05 -6.292239e-05
N 1.518337e+00 8.605575e-01 -5.894410e+00 -1.053795e-04 -3.073204e-05 8.883548e-05
N 1.552801e+00 8.698028e-01 -7.710219e-01 1.475636e-04 2.791403e-06 1.996083e-06
N -2.476565e-02 3.615143e+00 4.346896e+00 3.026009e-05 2.337220e-05 1.103625e-05
N -6.534963e-02 3.586548e+00 -5.913373e+00 -3.380909e-05 -2.824278e-04 6.305284e-05
N -2.722743e-02 3.611707e+00 -7.656017e-01 -4.339411e-05 3.550849e-05 -3.713593e-05
N 3.134314e+00 -1.916220e+00 4.312009e+00 2.159313e-06 -1.514230e-04 4.644702e-05
N 3.145956e+00 -1.870037e+00 -5.872064e+00 -6.932308e-05 -1.170299e-05 -3.292125e-06
N 3.102200e+00 -1.892465e+00 -7.230221e-01 1.816178e-05 -1.377422e-04 -1.576787e-06
N -4.817764e+00 9.046827e-01 4.320132e+00 1.197627e-04 8.942871e-06 -1.847675e-04
N -4.780113e+00 8.294091e-01 -5.911787e+00 3.792201e-05 4.050163e-05 1.161479e-04
N -4.766753e+00 9.173442e-01 -7.709923e-01 -2.142716e-05 4.509751e-05 -4.887157e-05
N -6.357229e+00 3.610581e+00 4.415490e+00 -1.792112e-04 4.174496e-05 -4.057486e-05
N -6.310305e+00 3.631940e+00 -5.923804e+00 -9.001417e-05 1.738654e-05 -2.564786e-04
N -6.395516e+00 3.591699e+00 -7.694325e-01 -1.772427e-04 -2.079286e-05 1.541434e-04
N -3.145477e+00 -1.896887e+00 4.346798e+00 2.391671e-04 -5.744824e-05 4.792386e-04
N -3.229126e+00 -1.845879e+00 -5.910281e+00 -5.252539e-05 3.924389e-05 7.963011e-05
N -3.193962e+00 -1.914564e+00 -7.369723e-01 9.424809e-06 -1.206146e-05 -1.225569e-05
N -1.565131e+00 8.518414e-01 4.399147e+00 4.531689e-06 -8.383316e-06 6.687675e-06
N -1.556704e+00 9.033333e-01 -5.919039e+00 2.388757e-04 -6.045351e-05 1.735480e-05
N -1.602031e+00 9.307002e-01 -7.042085e-01 -5.637402e-07 -3.080648e-05 -7.441233e-05
N -3.183976e+00 3.661541e+00 4.336030e+00 -4.493597e-04 1.930043e-04 6.450932e-05
N -3.185216e+00 3.667966e+00 -5.893206e+00 1.311010e-04 1.181083e-04 -7.167572e-05
N -3.140929e+00 3.592975e+00 -7.300462e-01 -1.228494e-04 3.435862e-05 -8.077781e-06
N -6.000980e-02 -1.886402e+00 4.409293e+00 3.162266e-04 -3.430039e-04 -1.286899e-04
N 2.037124e-02 -1.892858e+00 -5.900342e+00 1.117236e-04 4.597388e-05 1.249714e-04
N 2.647342e-02 -1.842178e+00 -7.400116e-01 9.149965e-05 -1.594449e-04 -4.191152e-05
N 2.563586e-02 1.816324e+00 1.781293e+00 -3.959294e-05 1.950990e-04 1.618799e-04
N -1.494490e-02 1.788881e+00 6.874501e+00 -2.496992e-05 1.774550e-04 3.400681e-05
N 2.112436e-02 1.813479e+00 -3.341318e+00 1.393299e-04 -1.980628e-04 -3.496579e-05
N 3.148225e+00 -3.699109e+00 1.797719e+00 -2.406196e-05 1.302818e-04 -2.008757e-05
N 3.142741e+00 -3.689772e+00 6.884864e+00 -7.366285e-05 1.325311e-04 -9.812976e-05
N 3.192003e+00 -3.717691e+00 -3.364839e+00 -3.508259e-06 7.004465e-05 -8.534296e-07
N 1.601682e+00 -9.244459e-01 1.790444e+00 -1.013967e-04 5.430342e-05 1.622011e-04
N 1.566734e+00 -9.494974e-01 6.957692e+00 7.260928e-05 -3.923683e-04 -2.577717e-05
N 1.564181e+00 -8.993570e-01 -3.375911e+00 -1.941251e-05 1.100525e-04 -2.151010e-04
N 3.139963e+00 1.740992e+00 1.757731e+00 1.586344e-04 -2.863913e-05 -1.145702e-04
N 3.135395e+00 1.779917e+00 6.890928e+00 9.334942e-05 -9.991204e-06 -6.283625e-05
N 3.140327e+00 1.785545e+00 -3.263460e+00 -8.721073e-05 5.970317e-05 -3.413381e-05
N 6.264468e+00 -3.674126e+00 1.785131e+00 9.057755e-05 8.568277e-05 2.121858e-05
N 6.300547e+00 -3.693397e+00 6.892628e+00 1.019825e-04 -5.145827e-06 -5.329276e-05
N 6.307757e+00 -3.745787e+00 -3.296555e+00 -1.227483e-04 -1.073187e-04 3.766114e-05
N 4.726987e+00 -9.507263e-01 1.868777e+00 -1.687507e-04 -1.164951e-04 2.925823e-04
N 4.718551e+00 -9.557180e-01 6.930868e+00 -7.932596e-05 6.156416e-05 3.070480e-05
N 4.722974e+00 -9.012742e-01 -3.358865e+00 -8.574730e-05 8.900526e-06 -8.348372e-05
N -3.232210e+00 1.812674e+00 1.794049e+00 -1.724182e-04 -1.168903e-04 4.499238e-05
N -3.193269e+00 1.791276e+00 6.955206e+00 1.463208e-04 2.757248e-04 -8.333144e-06
N -3.230072e+00 1.760797e+00 -3.315028e+00 -1.260424e-06 -2.735425e-05 -2.613286e-05
N 1.399571e-02 -3.718171e+00 1.831948e+00 -1.277991e-04 -9.196942e-05 -3.915091e-05
N -1.705729e-02 -3.695763e+00 6.888490e+00 1.299062e-04 2.436099e-05 -9.769159e-05
N -6.722113e-02 -3.719845e+00 -3.358051e+00 4.289176e-06 5.484893e-05 8.261180e-05
N -1.646282e+00 -9.771665e-01 1.833690e+00 -1.183434e-04 -5.219678e-05 -7.233240e-05
N -1.606998e+00 -9.563708e-01 6.905220e+00 -1.304503e-04 -7.392048e-05 -6.467060e-05
N -1.605212e+00 -9.454031e-01 -3.321911e+00 -1.477410e-04 2.748965e-05 2.991049e-05
