108
Energy=-9.401944e+05 Lattice="9.459304e+00 0.000000e+00 0.000000e+00 -4.731968e+00 8.186159e+00 0.000000e+00 -3.982999e-03 -1.090397e-04 1.522510e+01" Stress="1.102695e-03 -2.756524e-04 -1.434759e-04 -2.673530e-04 6.152766e-05 -6.728282e-05 -1.353045e-04 -6.225814e-05 1.974487e-03" Properties=species:S:1:pos:R:3:forces:R:3 Config_type=AlGaN_super3_11_2_17.xyz
Al 1.558689e+00 8.776564e-01 2.393230e+00 -4.664754e-04 -4.416668e-04 -6.596281e-05
Al 1.556984e+00 8.686081e-01 7.476034e+00 1.236277e-04 -1.018083e-04 6.282192e-05
Al 1.560169e+00 8.797819e-01 -2.710264e+00 -2.667672e-04 1.275883e-03 9.705666e-05
Al -1.967214e-02 3.599895e+00 2.375788e+00 -4.341090e-04 9.948295e-05 -5.846458e-04
Al -3.007240e-02 3.598581e+00 7.491526e+00 -1.295568e-04 1.605063e-05 -9.209078e-05
Al -1.542815e-02 3.591504e+00 -2.703096e+00 1.178896e-04 -4.605687e-05 3.914602e-06
Al 3.138891e+00 -1.856060e+00 2.427837e+00 -3.056852e-04 -1.259054e-03 -2.366735e-04
Al 3.133035e+00 -1.858187e+00 7.460283e+00 -1.349132e-04 3.643879e-05 -1.958415e-04
Al 3.137000e+00 -1.853284e+00 -2.721449e+00 -1.757380e-04 2.604672e-04 -4.888454e-04
Al -4.765818e+00 8.685353e-01 2.398258e+00 3.379121e-04 1.877299e-04 3.276635e-04
Al -4.765270e+00 8.666584e-01 7.477208e+00 1.473134e-04 -4.763438e-05 -6.777875e-05
Al -4.761926e+00 8.757269e-01 -2.712153e+00 1.350119e-04 2.437291e-04 -5.715034e-04
Al -6.341614e+00 3.588758e+00 2.403670e+00 -6.179821e-04 -4.112747e-04 2.639548e-04
Al -6.328574e+00 3.591710e+00 7.473788e+00 3.150497e-05 5.867929e-05 -1.675442e-04
Al -6.342882e+00 3.582407e+00 -2.708780e+00 -3.999764e-04 -9.607509e-05 3.566934e-05
Al -3.174491e+00 -1.862627e+00 2.410413e+00 7.058377e-05 4.584343e-04 -4.616572e-04
Al -3.178111e+00 -1.851823e+00 7.475258e+00 2.503717e-05 1.822100e-04 -1.997092e-04
Ga -3.181876e+00 -1.863146e+00 -2.712706e+00 -9.563807e-05 -1.685202e-04 -1.457968e-04
Al -1.595186e+00 8.669572e-01 2.391029e+00 -8.937973e-05 2.724793e-04 6.106122e-04
Al -1.601668e+00 8.670559e-01 7.486952e+00 3.893459e-04 -2.586547e-04 -1.997146e-04
Al -1.596370e+00 8.826996e-01 -2.710151e+00 3.045206e-04 1.134257e-03 -9.428680e-05
Ga -3.169874e+00 3.601592e+00 2.401819e+00 5.787010e-04 -1.269825e-04 3.779518e-05
Al -3.178385e+00 3.606799e+00 7.477803e+00 2.431150e-05 -6.972485e-05 -3.200914e-04
Ga -3.168577e+00 3.590418e+00 -2.704433e+00 6.914695e-05 -1.235305e-04 1.112070e-04
Al -2.871781e-02 -1.854539e+00 2.438173e+00 9.435782e-04 2.116374e-03 2.550526e-04
Al -2.301216e-02 -1.855005e+00 7.460805e+00 3.005404e-05 -1.151801e-04 -2.005671e-04
Ga -1.425672e-02 -1.846295e+00 -2.723949e+00 3.784264e-05 -1.861642e-04 -2.865982e-04
Ga -1.922615e-02 1.775018e+00 4.941647e+00 -2.022216e-04 4.006003e-05 5.801449e-05
Al -2.071863e-02 1.777696e+00 -5.231132e+00 -3.165140e-05 2.404212e-04 8.922905e-05
Al -2.365386e-02 1.792784e+00 -1.635649e-01 8.059394e-04 3.900077e-04 6.471706e-04
Al 3.128889e+00 -3.664136e+00 4.955512e+00 8.253075e-04 -1.707166e-05 -9.260260e-06
Al 3.139131e+00 -3.675238e+00 -5.242521e+00 -2.334389e-05 7.682731e-05 -8.018905e-05
Al 3.151816e+00 -3.682941e+00 -1.581116e-01 1.028994e-04 2.831765e-04 3.470585e-04
Al 1.559436e+00 -9.541820e-01 4.937527e+00 -3.300680e-04 2.806920e-04 -1.381941e-04
Al 1.565385e+00 -9.463979e-01 -5.250040e+00 -3.420072e-04 4.645729e-04 5.720841e-05
Ga 1.570701e+00 -9.414616e-01 -1.321432e-01 -2.877602e-04 3.365953e-04 2.233782e-04
Al 3.129972e+00 1.771433e+00 4.940922e+00 8.437128e-06 -1.552170e-04 5.451139e-05
Al 3.130190e+00 1.779423e+00 -5.230891e+00 6.542995e-05 2.521648e-07 3.522362e-05
Al 3.124048e+00 1.787102e+00 -1.607090e-01 2.456467e-04 -3.131896e-05 -3.837849e-04
Ga 6.283847e+00 -3.674518e+00 4.942804e+00 3.524734e-05 -4.122090e-05 1.667095e-04
Al 6.287027e+00 -3.684353e+00 -5.247077e+00 4.729339e-05 -6.943033e-05 -1.923218e-04
Al 6.277734e+00 -3.700569e+00 -1.404058e-01 8.858262e-05 -1.246273e-04 3.550734e-05
Al 4.699495e+00 -9.482494e-01 4.937373e+00 -1.509867e-04 4.019636e-05 -2.109918e-04
Al 4.704484e+00 -9.453909e-01 -5.242399e+00 -1.364151e-04 3.689281e-05 2.764195e-05
Ga 4.699661e+00 -9.449077e-01 -1.412318e-01 -6.167678e-05 1.885614e-04 4.652882e-04
Ga -3.189887e+00 1.773900e+00 4.955518e+00 1.653387e-04 -2.643884e-04 9.434261e-05
Al -3.178049e+00 1.775587e+00 -5.246671e+00 1.114461e-04 -1.652641e-05 -3.060219e-04
Al -3.173379e+00 1.775636e+00 -1.528208e-01 -1.968156e-04 -7.560672e-05 3.319330e-04
Al -2.659547e-02 -3.670258e+00 4.950800e+00 -2.664768e-04 1.436646e-04 5.472396e-05
Al -2.477196e-02 -3.679968e+00 -5.253942e+00 -2.310612e-05 -1.119498e-04 5.465389e-05
Ga -3.477033e-02 -3.692946e+00 -1.353308e-01 -1.333014e-04 -6.194871e-05 1.892301e-04
Al -1.599471e+00 -9.532107e-01 4.942212e+00 2.348326e-04 1.196418e-04 8.844784e-05
Al -1.596624e+00 -9.425397e-01 -5.251664e+00 -1.808674e-04 2.284594e-04 1.134119e-04
Ga -1.600343e+00 -9.327382e-01 -1.276996e-01 -1.758662e-04 2.358615e-05 -2.890399e-05
N 1.592770e+00 8.501766e-01 4.311216e+00 3.755047e-04 2.725412e-05 1.221331e-04
N 1.557344e+00 8.729441e-01 -5.833820e+00 1.499948e-04 -3.955743e-05 3.342940e-05
N 1.552184e+00 9.150666e-01 -7.834049e-01 3.693626e-04 1.220761e-04 1.803488e-04
N -6.864088e-02 3.622439e+00 4.286517e+00 -3.163674e-04 1.490062e-04 7.504000e-04
N -2.393517e-02 3.595575e+00 -5.827874e+00 -1.010002e-04 -4.508557e-06 1.157140e-04
N -1.912406e-02 3.599134e+00 -7.698226e-01 -1.470947e-04 3.369890e-05 -1.825975e-04
N 3.131573e+00 -1.863021e+00 4.347470e+00 -3.730267e-06 -6.522569e-05 2.341295e-04
N 3.135886e+00 -1.859481e+00 -5.849833e+00 -2.803097e-05 5.054015e-05 1.706852e-04
N 3.131505e+00 -1.902720e+00 -8.112768e-01 1.126010e-04 -1.460088e-04 4.559288e-04
N -4.798335e+00 8.492336e-01 4.313906e+00 1.194780e-04 1.262164e-04 1.426136e-04
N -4.759582e+00 8.703302e-01 -5.836180e+00 1.146476e-04 -1.243241e-05 1.144992e-04
N -4.754004e+00 9.194737e-01 -7.885314e-01 -2.863868e-04 -1.273748e-04 6.732582e-04
N -6.292946e+00 3.570289e+00 4.321044e+00 -1.683927e-04 3.498095e-07 1.905091e-04
N -6.327428e+00 3.592186e+00 -5.842257e+00 -1.030256e-04 2.836765e-05 1.487288e-04
N -6.374714e+00 3.575833e+00 -7.867878e-01 -4.054755e-05 1.379938e-04 -6.767599e-05
N -3.176980e+00 -1.814343e+00 4.324307e+00 -1.254177e-04 1.753291e-04 1.052248e-04
N -3.175387e+00 -1.856521e+00 -5.832212e+00 -1.407802e-05 1.103874e-04 2.044642e-04
N -3.173586e+00 -1.907028e+00 -7.401162e-01 -3.439716e-05 -2.570856e-04 8.084605e-05
N -1.604023e+00 8.292525e-01 4.300014e+00 2.272026e-05 -7.061387e-05 -3.621411e-04
N -1.596356e+00 8.738620e-01 -5.832945e+00 2.386579e-04 -2.579629e-04 2.237651e-04
N -1.597022e+00 9.205213e-01 -7.858580e-01 -8.727267e-04 -3.682284e-04 -1.480214e-05
N -3.175870e+00 3.646404e+00 4.378091e+00 -1.869548e-05 -1.135253e-04 -3.256823e-04
N -3.172828e+00 3.603469e+00 -5.830793e+00 1.869266e-05 -1.020889e-04 2.282052e-04
N -3.136044e+00 3.578548e+00 -7.217757e-01 -1.918597e-05 -1.709405e-04 2.818615e-05
N -2.487006e-02 -1.857145e+00 4.357197e+00 1.482159e-04 -1.248750e-04 2.373157e-04
N -1.769766e-02 -1.855270e+00 -5.843610e+00 8.665504e-05 -1.399886e-04 3.683032e-04
N -1.947108e-02 -1.855085e+00 -7.659879e-01 1.209415e-04 -4.806713e-04 2.372195e-04
N -2.146273e-02 1.778653e+00 1.774338e+00 -1.223511e-04 -1.649580e-04 -3.369176e-04
N -2.411903e-02 1.779436e+00 6.919163e+00 -1.135536e-04 1.597232e-04 8.070542e-05
N -2.039507e-02 1.779462e+00 -3.306752e+00 -1.769357e-04 2.479917e-04 1.687216e-04
N 3.174337e+00 -3.646438e+00 1.760277e+00 2.460654e-04 8.604647e-04 -1.232980e-05
N 3.135089e+00 -3.680355e+00 6.872989e+00 5.403954e-05 1.848138e-04 1.009546e-04
N 3.178232e+00 -3.656461e+00 -3.328645e+00 -2.079962e-04 2.427110e-04 -4.700736e-05
N 1.557726e+00 -9.530756e-01 1.856491e+00 -1.580449e-04 -1.276548e-04 1.249152e-04
N 1.556086e+00 -9.473888e-01 6.861721e+00 -2.761160e-04 2.116584e-04 9.211413e-05
N 1.601266e+00 -9.150209e-01 -3.334825e+00 4.281502e-04 -1.927759e-03 -8.787445e-04
N 3.128954e+00 1.781303e+00 1.769570e+00 1.610385e-04 -3.023112e-04 -6.120306e-06
N 3.126074e+00 1.777996e+00 6.860964e+00 2.941310e-05 -3.408371e-05 9.943733e-06
N 3.130114e+00 1.779762e+00 -3.312957e+00 6.304610e-05 -5.109216e-05 1.305273e-04
N 6.288328e+00 -3.681195e+00 1.791320e+00 -1.684178e-05 9.799362e-05 -7.037818e-05
N 6.280456e+00 -3.679379e+00 6.921604e+00 1.056083e-04 -5.278042e-05 2.615605e-04
N 6.285152e+00 -3.727918e+00 -3.334307e+00 7.894404e-06 -1.257141e-04 -1.669551e-04
N 4.706454e+00 -9.488745e-01 1.846496e+00 -8.699393e-04 -5.120557e-04 -6.811935e-04
N 4.708101e+00 -9.472800e-01 6.860940e+00 -1.147869e-04 -4.566628e-05 4.106772e-05
N 4.669407e+00 -9.215495e-01 -3.329595e+00 -2.265951e-04 3.564707e-05 8.214142e-05
N -3.181659e+00 1.729026e+00 1.772151e+00 4.978711e-04 1.170651e-04 -4.765580e-04
N -3.181251e+00 1.777566e+00 6.930843e+00 -1.198834e-05 8.507975e-06 3.842811e-04
N -3.178044e+00 1.731428e+00 -3.332572e+00 -2.046357e-05 1.164333e-04 1.620560e-05
N -7.045850e-02 -3.651336e+00 1.841873e+00 7.705717e-04 -6.864831e-04 -1.312472e-03
N -2.701855e-02 -3.677714e+00 6.871864e+00 -1.447377e-05 3.017551e-05 1.651055e-04
N -6.433684e-02 -3.704898e+00 -3.342754e+00 4.909095e-04 1.755460e-04 -4.299282e-04
N -1.595141e+00 -9.504418e-01 1.849265e+00 -3.513968e-04 -5.170810e-04 3.288595e-04
N -1.602062e+00 -9.461487e-01 6.866330e+00 -2.115769e-04 -5.318111e-05 1.446318e-04
N -1.600944e+00 -8.951512e-01 -3.345952e+00 -3.939562e-06 -1.182232e-03 -1.016596e-03
