108
Energy=-7.570926e+05 Lattice="9.433912e+00 0.000000e+00 0.000000e+00 -4.718225e+00 8.169185e+00 0.000000e+00 -2.507191e-03 -1.519529e-03 1.515311e+01" Stress="9.896434e-06 -8.776038e-05 -4.125572e-05 -9.386621e-05 -1.170900e-04 -2.359120e-05 -3.918418e-05 -2.789084e-05 -1.271014e-04" Properties=species:S:1:pos:R:3:forces:R:3 Config_type=AlGaN_super3_7_1_27.xyz
Al 1.549918e+00 8.787907e-01 2.386990e+00 6.707584e-06 -1.080095e-04 3.018906e-06
Al 1.552664e+00 8.764141e-01 7.423037e+00 1.192344e-05 5.104985e-05 9.035447e-05
Al 1.553769e+00 8.834415e-01 -2.683539e+00 -2.997585e-05 -4.600600e-05 -1.143529e-05
Al -2.138298e-02 3.591371e+00 2.376610e+00 5.596852e-05 1.729924e-05 1.021138e-04
Al -2.291352e-02 3.589915e+00 7.420909e+00 -1.409340e-05 3.743257e-05 4.345728e-05
Al -1.400265e-02 3.591053e+00 -2.677869e+00 -3.812402e-05 5.543487e-05 9.749161e-05
Al 3.127627e+00 -1.861855e+00 2.381608e+00 -1.367605e-05 5.925943e-05 -9.785079e-05
Al 3.124579e+00 -1.858862e+00 7.433296e+00 -2.489928e-05 1.098292e-05 -1.693417e-05
Al 3.142169e+00 -1.849981e+00 -2.682642e+00 5.322117e-05 -3.136098e-05 1.082661e-04
Al -4.746563e+00 8.692016e-01 2.354456e+00 4.787603e-06 -3.651673e-05 -3.165456e-05
Al -4.753316e+00 8.691214e-01 7.439703e+00 4.676890e-05 1.126926e-04 -2.028978e-06
Al -4.752014e+00 8.574218e-01 -2.664669e+00 8.992373e-05 1.044575e-05 4.727929e-05
Al -6.318882e+00 3.588411e+00 2.377637e+00 -1.514175e-06 8.194978e-06 -5.399211e-05
Al -6.320071e+00 3.582486e+00 7.419997e+00 -2.772990e-05 -6.610390e-06 -4.796168e-05
Al -6.325430e+00 3.584460e+00 -2.670645e+00 6.438029e-05 2.250366e-05 9.861232e-05
Al -3.164938e+00 -1.860068e+00 2.362998e+00 -7.498740e-05 1.462597e-05 -4.539016e-05
Al -3.170300e+00 -1.859746e+00 7.436888e+00 -2.728815e-05 -9.615104e-07 2.114435e-05
Al -3.176121e+00 -1.854155e+00 -2.674278e+00 -5.631710e-05 9.369924e-06 6.523221e-05
Al -1.590546e+00 8.672138e-01 2.365871e+00 5.473853e-05 -8.294703e-05 4.530988e-05
Al -1.589129e+00 8.696130e-01 7.423460e+00 -7.765308e-05 -4.993466e-05 -8.081779e-05
Al -1.586752e+00 8.674822e-01 -2.657804e+00 -3.049772e-06 -9.596805e-05 4.576939e-05
Al -3.165425e+00 3.594850e+00 2.362636e+00 -9.515150e-06 -5.186240e-05 -5.399389e-05
Al -3.164044e+00 3.595970e+00 7.426654e+00 1.150507e-05 -1.053519e-04 -9.174954e-05
Ga -3.162246e+00 3.594542e+00 -2.652847e+00 1.089661e-04 -2.817752e-05 -2.562579e-06
Al -3.013082e-02 -1.856874e+00 2.390207e+00 -5.161971e-05 1.284945e-05 -7.123914e-05
Ga -2.409477e-02 -1.853623e+00 7.425970e+00 6.733845e-05 2.063065e-05 8.099721e-06
Ga -3.004575e-02 -1.848667e+00 -2.678636e+00 9.338012e-05 -2.752442e-05 -8.266461e-06
Al -1.500132e-02 1.777314e+00 4.897602e+00 -1.069623e-04 1.595549e-04 1.486546e-04
Al -1.374000e-02 1.777425e+00 -5.204787e+00 5.992575e-05 1.596136e-05 8.653135e-06
Al -2.354313e-02 1.785594e+00 -1.457183e-01 -7.213559e-05 3.049504e-05 -2.954033e-05
Al 3.123224e+00 -3.672077e+00 4.899983e+00 4.267643e-05 2.040224e-05 -5.208595e-05
Al 3.133246e+00 -3.660579e+00 -5.210685e+00 -1.460884e-05 4.678070e-05 8.842128e-05
Al 3.137530e+00 -3.673629e+00 -1.361737e-01 1.502789e-04 2.653834e-04 -1.470031e-05
Al 1.546233e+00 -9.440620e-01 4.887409e+00 -9.757357e-05 1.086342e-04 3.703618e-05
Al 1.561750e+00 -9.389673e-01 -5.200242e+00 -2.685372e-05 3.385055e-05 1.206044e-04
Ga 1.557638e+00 -9.421822e-01 -1.334154e-01 -9.149124e-05 7.336796e-05 1.220329e-04
Al 3.107056e+00 1.784163e+00 4.901674e+00 1.731511e-05 7.826313e-05 1.603455e-05
Al 3.112262e+00 1.780458e+00 -5.199428e+00 1.299117e-05 -2.316751e-05 4.644803e-05
Al 3.121920e+00 1.785187e+00 -1.500915e-01 2.249934e-07 2.961245e-05 -2.833768e-05
Al 6.269834e+00 -3.677027e+00 4.898633e+00 2.114395e-05 3.905521e-05 3.579306e-05
Al 6.269424e+00 -3.671083e+00 -5.203252e+00 1.938502e-06 5.916276e-05 1.252402e-04
Al 6.266669e+00 -3.671698e+00 -1.524921e-01 2.938631e-05 2.914261e-05 -4.485901e-05
Ga 4.693069e+00 -9.559251e-01 4.906643e+00 -4.326937e-06 7.652951e-06 2.123948e-05
Al 4.691818e+00 -9.542609e-01 -5.202533e+00 -2.991159e-05 3.883039e-05 1.436936e-05
Al 4.703017e+00 -9.499801e-01 -1.480436e-01 -1.064584e-04 -5.178250e-05 -1.089840e-04
Ga -3.165333e+00 1.783570e+00 4.903169e+00 -1.284159e-05 3.701151e-05 5.448966e-05
Ga -3.164442e+00 1.773399e+00 -5.201816e+00 3.465307e-05 -4.770311e-05 6.193092e-05
Al -3.166896e+00 1.768809e+00 -1.399477e-01 -4.459190e-05 -1.157349e-04 3.376103e-05
Al -2.887757e-02 -3.669627e+00 4.887173e+00 5.617373e-06 -7.133145e-05 -1.466633e-04
Al -3.092165e-02 -3.671977e+00 -5.209845e+00 9.395493e-05 2.884202e-05 -9.232994e-06
Al -3.523007e-02 -3.679507e+00 -1.193071e-01 -1.410003e-04 5.175022e-05 2.700526e-05
Al -1.589719e+00 -9.525991e-01 4.889396e+00 -2.334021e-04 1.295512e-05 8.796407e-05
Al -1.599430e+00 -9.462834e-01 -5.195695e+00 2.331068e-05 1.185423e-04 2.711984e-05
Al -1.607627e+00 -9.445965e-01 -1.361844e-01 -1.112621e-04 -6.365465e-05 -9.336371e-05
N 1.548566e+00 8.746485e-01 4.301766e+00 8.657438e-05 -8.486255e-05 -1.193056e-04
N 1.550639e+00 8.721267e-01 -5.807395e+00 3.360866e-05 -3.028225e-05 1.945485e-05
N 1.548531e+00 9.181339e-01 -7.710554e-01 -1.454425e-05 -1.995418e-05 5.878869e-05
N -2.320729e-02 3.591590e+00 4.300206e+00 1.558523e-05 -5.000457e-05 -6.084063e-05
N -1.934008e-02 3.591071e+00 -5.809096e+00 4.511481e-06 -6.137897e-05 -6.145865e-05
N -2.223241e-02 3.591111e+00 -7.556104e-01 7.363070e-06 -7.485716e-06 -4.882192e-05
N 3.085901e+00 -1.881952e+00 4.286042e+00 -9.254231e-05 -4.218007e-05 -4.131886e-05
N 3.122085e+00 -1.853967e+00 -5.804635e+00 -9.194078e-06 -4.864612e-05 8.231837e-06
N 3.165159e+00 -1.879622e+00 -7.687690e-01 6.897278e-05 -1.483544e-04 1.368774e-04
N -4.784739e+00 8.915336e-01 4.261062e+00 6.199749e-05 -1.726021e-05 1.025968e-05
N -4.786570e+00 8.468726e-01 -5.807637e+00 3.586876e-05 2.049939e-05 -4.077343e-06
N -4.744236e+00 8.660604e-01 -7.413651e-01 7.522513e-05 3.865244e-05 2.344868e-05
N -6.318024e+00 3.589096e+00 4.295827e+00 -9.145363e-07 -2.417043e-05 -6.612785e-05
N -6.316086e+00 3.590092e+00 -5.813540e+00 -3.268203e-05 -1.255889e-05 -7.149511e-05
N -6.312231e+00 3.593068e+00 -7.506514e-01 1.347166e-05 -7.056153e-06 3.023613e-05
N -3.128194e+00 -1.882063e+00 4.274063e+00 7.038398e-05 -8.679408e-05 -1.176343e-04
N -3.163998e+00 -1.857048e+00 -5.798167e+00 -1.260224e-05 -6.163014e-05 8.666463e-06
N -3.166267e+00 -1.855681e+00 -7.509405e-01 -1.641462e-05 -7.636015e-06 9.217265e-05
N -1.554342e+00 8.474281e-01 4.278466e+00 3.328620e-04 -1.494697e-04 -1.291005e-04
N -1.546777e+00 8.446938e-01 -5.823539e+00 -6.028930e-05 -5.043353e-05 1.562240e-04
N -1.590100e+00 8.677012e-01 -7.381712e-01 9.024653e-05 -2.120852e-05 6.047135e-05
N -3.166054e+00 3.639127e+00 4.274715e+00 -6.911599e-05 -8.235016e-06 7.060717e-05
N -3.164471e+00 3.643391e+00 -5.816960e+00 4.642677e-06 7.324093e-06 7.116653e-05
N -3.167740e+00 3.596901e+00 -6.754935e-01 -1.288990e-04 -1.043135e-04 -4.430842e-05
N -2.577782e-02 -1.855623e+00 4.307780e+00 1.415239e-04 -9.174812e-05 -2.579683e-05
N -2.039929e-02 -1.849739e+00 -5.746311e+00 -4.277596e-05 -5.529635e-05 -1.228847e-05
N -6.325096e-02 -1.879344e+00 -7.079604e-01 5.167277e-05 -7.455236e-05 1.410832e-05
N -1.961771e-02 1.778482e+00 1.772799e+00 -1.147281e-05 9.474750e-05 -8.521383e-05
N -2.172376e-02 1.776833e+00 6.818165e+00 1.249151e-05 3.903274e-05 -7.256438e-05
N -2.511112e-02 1.777509e+00 -3.280600e+00 -3.078697e-05 3.086336e-05 -6.170513e-05
N 3.130815e+00 -3.669891e+00 1.775360e+00 3.357018e-05 1.047748e-04 -2.544623e-05
N 3.124239e+00 -3.670548e+00 6.821493e+00 -9.222617e-06 5.038971e-05 -9.637311e-06
N 3.165883e+00 -3.647881e+00 -3.297047e+00 -1.452042e-05 -1.340018e-04 -8.578357e-05
N 1.550752e+00 -9.445186e-01 1.841356e+00 8.933317e-05 1.289663e-04 4.161142e-05
N 1.592561e+00 -9.224742e-01 6.804838e+00 -7.253530e-05 4.910071e-05 -9.986047e-05
N 1.596875e+00 -9.199945e-01 -3.284879e+00 -1.699847e-04 1.219142e-04 -1.716619e-04
N 3.115337e+00 1.778786e+00 1.765145e+00 3.450170e-05 -3.533063e-05 8.864863e-06
N 3.119761e+00 1.776102e+00 6.819187e+00 -5.225506e-05 -5.416786e-05 -4.355451e-05
N 3.124012e+00 1.779617e+00 -3.278107e+00 4.260616e-07 -2.885201e-05 -4.153509e-05
N 6.265686e+00 -3.674259e+00 1.767168e+00 2.740321e-05 -5.068500e-06 3.657912e-05
N 6.265886e+00 -3.669359e+00 6.822180e+00 -4.269377e-05 -2.195510e-05 -7.174946e-05
N 6.268709e+00 -3.669273e+00 -3.277213e+00 4.740461e-05 -3.517153e-05 -4.438626e-05
N 4.694090e+00 -9.512756e-01 1.770584e+00 -2.256133e-05 2.980672e-05 1.254196e-04
N 4.695400e+00 -9.481273e-01 6.881007e+00 -1.638240e-05 -1.407584e-04 -4.894628e-05
N 4.698299e+00 -9.450356e-01 -3.281318e+00 1.108701e-05 8.177124e-05 -3.740205e-05
N -3.166137e+00 1.772322e+00 1.777301e+00 2.715883e-05 1.617472e-05 -1.126503e-05
N -3.170968e+00 1.775082e+00 6.884507e+00 6.939519e-05 -3.567295e-05 3.716376e-06
N -3.167216e+00 1.729224e+00 -3.228813e+00 -7.385555e-05 -5.132566e-06 3.115978e-05
N -3.043688e-02 -3.670732e+00 1.792234e+00 5.541904e-05 5.319943e-05 4.983505e-05
N -2.546231e-02 -3.719505e+00 6.801180e+00 3.840131e-05 9.358588e-05 7.044805e-05
N -6.300680e-02 -3.699876e+00 -3.308572e+00 -1.450473e-04 -7.268144e-05 -4.865336e-05
N -1.595669e+00 -9.474170e-01 1.776510e+00 -7.386792e-05 5.846664e-05 2.651108e-05
N -1.640946e+00 -9.258129e-01 6.801182e+00 6.462097e-05 1.120114e-04 -1.044350e-04
N -1.641987e+00 -9.177048e-01 -3.288123e+00 -9.726074e-06 1.960566e-05 2.212370e-06
