108
Energy=-985970.010648 Lattice="9.461169 0.000000 0.000000 -4.732783 8.192290 0.000000 -0.008059 0.000580 15.226873" Stress="0.000001 -0.000001 -0.000002 -0.000001 -0.000000 -0.000000 -0.000002 -0.000000 0.000002" Properties=species:S:1:pos:R:3:forces:R:3
Al 1.551167 0.881794 2.423160 0.000030 -0.000048 0.000059
Al 1.551368 0.870516 7.452608 0.000081 0.000018 0.000187
Al 1.553027 0.868708 -2.715836 0.000201 -0.000010 -0.000080
Al -0.027861 3.600610 2.389280 -0.000030 0.000048 0.000150
Al -0.019687 3.593657 7.439459 -0.000357 0.000123 -0.000005
Al -0.022790 3.592551 -2.665013 -0.000004 0.000064 0.000131
Al 3.138080 -1.865953 2.386382 0.000140 -0.000043 0.000207
Al 3.117854 -1.853322 7.466023 -0.000077 -0.000069 0.000023
Al 3.131334 -1.854126 -2.684453 0.000023 -0.000205 0.000005
Al -4.752124 0.873192 2.393044 0.000028 0.000034 0.000126
Al -4.763201 0.880540 7.464698 -0.000049 0.000056 0.000092
Al -4.758421 0.866304 -2.691579 0.000160 -0.000006 0.000092
Al -6.341203 3.595252 2.388006 0.000272 0.000375 -0.000052
Al -6.351889 3.586935 7.464278 0.000233 0.000053 -0.000061
Ga -6.333004 3.593075 -2.679225 -0.000038 -0.000015 0.000192
Al -3.181947 -1.861281 2.384412 -0.000019 0.000045 0.000106
Ga -3.173402 -1.864861 7.471363 0.000135 0.000012 0.000127
Ga -3.185462 -1.860452 -2.686086 -0.000058 0.000107 0.000439
Al -1.605032 0.879096 2.384885 -0.000031 -0.000008 0.000045
Al -1.598066 0.874997 7.461525 -0.000032 0.000004 0.000042
Ga -1.590048 0.883554 -2.680323 0.000256 -0.000129 0.000127
Al -3.168769 3.592986 2.383031 -0.000050 -0.000034 0.000081
Ga -3.170880 3.592546 7.454817 0.000189 -0.000021 0.000065
Al -3.171954 3.600156 -2.665504 -0.000015 -0.000229 -0.000028
Ga -0.026632 -1.855817 2.398227 0.000048 -0.000045 0.000167
Al -0.018028 -1.836670 7.455499 -0.000155 0.000099 -0.000147
Al -0.006884 -1.853882 -2.676675 0.000163 -0.000054 0.000213
Al -0.030413 1.780384 4.922523 -0.000009 0.000090 0.000125
Al -0.013184 1.780661 -5.250512 0.000034 0.000022 0.000252
Al -0.026712 1.788433 -0.128616 -0.000098 0.000137 0.000290
Al 3.139291 -3.684059 4.913214 -0.000050 0.000155 -0.000148
Ga 3.156036 -3.680967 -5.206062 -0.000075 0.000084 0.000216
Al 3.137737 -3.688339 -0.152369 0.000039 0.000050 0.000183
Al 1.557202 -0.939997 4.935021 -0.000035 -0.000058 0.000126
Al 1.556658 -0.935052 -5.226981 0.000029 0.000038 0.000086
Ga 1.557259 -0.946615 -0.153252 -0.000421 -0.000058 0.000502
Al 3.121481 1.782711 4.924617 0.000059 -0.000126 0.000179
Al 3.130514 1.768053 -5.239241 0.000015 0.000002 0.000045
Ga 3.130260 1.776941 -0.134021 -0.000014 -0.000028 0.000268
Al 6.278927 -3.691787 4.908754 -0.000073 0.000158 -0.000077
Al 6.280563 -3.691792 -5.232626 0.000033 0.000050 -0.000001
Al 6.272719 -3.675940 -0.121204 0.000042 -0.000053 0.000145
Ga 4.702710 -0.948113 4.920244 -0.000041 0.000107 0.000210
Al 4.705562 -0.935501 -5.233988 0.000064 0.000032 -0.000021
Al 4.717007 -0.952394 -0.130888 -0.000057 0.000030 0.000304
Al -3.168682 1.774008 4.910662 -0.000149 -0.000127 -0.000103
Al -3.177486 1.760782 -5.220317 0.000021 -0.000068 0.000121
Al -3.175177 1.782503 -0.134024 0.000246 -0.000082 -0.000122
Ga -0.030303 -3.686109 4.931673 0.000074 -0.000090 0.000118
Ga -0.028552 -3.670531 -5.228494 0.000065 -0.000039 0.000144
Al -0.016681 -3.681420 -0.140429 0.000243 0.000127 -0.000010
Al -1.602309 -0.932200 4.927694 -0.000011 -0.000058 0.000014
Al -1.589441 -0.937968 -5.233757 -0.000022 -0.000029 -0.000033
Al -1.608775 -0.948862 -0.134598 0.000329 -0.000068 -0.000028
N 1.548168 0.873089 4.340277 0.000082 -0.000042 -0.000288
N 1.557438 0.869036 -5.846172 0.000023 -0.000019 -0.000127
N 1.508734 0.900749 -0.806104 0.000007 0.000034 0.000207
N -0.028091 3.597998 4.311023 0.000018 -0.000087 -0.000160
N 0.017430 3.579260 -5.875320 0.000028 -0.000096 -0.000078
N -0.018852 3.595878 -0.740713 0.000054 0.000012 -0.000114
N 3.087155 -1.884540 4.297636 -0.000025 -0.000090 -0.000121
N 3.129427 -1.817121 -5.844421 -0.000131 -0.000029 -0.000102
N 3.178868 -1.879622 -0.767286 -0.000104 -0.000123 -0.000191
N -4.756354 0.919660 4.301708 0.000086 0.000094 -0.000104
N -4.748857 0.875990 -5.841938 0.000061 0.000049 -0.000166
N -4.711851 0.844984 -0.768719 -0.000061 0.000023 -0.000260
N -6.374643 3.576651 4.297521 -0.000006 0.000059 -0.000117
N -6.371949 3.574096 -5.847245 -0.000193 0.000042 0.000055
N -6.337740 3.648409 -0.707182 -0.000304 0.000008 -0.000088
N -3.135059 -1.882615 4.303995 0.000037 -0.000052 -0.000079
N -3.170809 -1.860799 -5.774045 -0.000121 -0.000078 0.000009
N -3.178919 -1.862195 -0.699535 0.000245 -0.000019 -0.000184
N -1.600029 0.872697 4.306801 0.000102 -0.000031 -0.000215
N -1.598829 0.875775 -5.837084 0.000015 -0.000056 -0.000165
N -1.597218 0.874221 -0.696628 -0.000119 0.000087 -0.000024
N -3.137731 3.578128 4.304017 0.000013 0.000028 -0.000253
N -3.166778 3.552769 -5.810367 0.000099 0.000052 -0.000082
N -3.177161 3.596832 -0.742081 0.000005 -0.000001 -0.000094
N -0.024558 -1.810870 4.363824 0.000054 0.000063 -0.000152
N -0.015013 -1.804075 -5.858631 0.000041 -0.000033 0.000052
N -0.063859 -1.879571 -0.759092 -0.000228 0.000162 -0.000216
N -0.018845 1.780716 1.795412 0.000165 -0.000159 -0.000291
N -0.028411 1.778011 6.848918 -0.000134 0.000004 -0.000124
N 0.017426 1.811045 -3.330216 -0.000233 -0.000033 -0.000428
N 3.132703 -3.681766 1.774507 0.000010 0.000048 -0.000326
N 3.172786 -3.651975 6.829776 0.000187 -0.000066 0.000144
N 3.139191 -3.684118 -3.223019 -0.000024 0.000299 -0.000008
N 1.596469 -0.917758 1.817567 -0.000092 0.000197 -0.000455
N 1.558426 -0.946116 6.852882 -0.000144 0.000027 -0.000173
N 1.557337 -0.952404 -3.296023 -0.000139 -0.000060 -0.000135
N 3.124965 1.774125 1.840360 0.000026 -0.000245 -0.000143
N 3.128329 1.780277 6.851232 -0.000083 -0.000050 -0.000164
N 3.135197 1.733233 -3.319906 -0.000061 -0.000073 0.000066
N 6.278425 -3.681998 1.794668 0.000012 0.000000 -0.000203
N 6.283727 -3.725641 6.822714 0.000079 -0.000017 0.000003
N 6.240642 -3.709253 -3.326217 -0.000008 -0.000019 -0.000052
N 4.705302 -0.946876 1.793790 -0.000046 -0.000011 -0.000128
N 4.665271 -0.925206 6.892451 -0.000077 -0.000047 0.000068
N 4.666537 -0.924670 -3.318507 -0.000136 -0.000050 -0.000086
N -3.180900 1.780617 1.783419 0.000018 0.000060 0.000005
N -3.179792 1.727761 6.825119 0.000311 -0.000109 0.000162
N -3.215995 1.801658 -3.303818 -0.000203 0.000188 0.000110
N -0.019579 -3.726765 1.776441 -0.000137 -0.000210 0.000304
N -0.069867 -3.657337 6.904447 -0.000104 -0.000044 -0.000002
N 0.021270 -3.655437 -3.253100 0.000055 -0.000106 -0.000095
N -1.641019 -0.924696 1.772234 -0.000068 0.000111 0.000020
N -1.566463 -0.919468 6.840550 -0.000005 0.000021 0.000018
N -1.553351 -0.969794 -3.323305 -0.000130 0.000066 -0.000123
