108
Energy=-2.542337e+06 Lattice="9.656244e+00 0.000000e+00 0.000000e+00 -4.828105e+00 8.361901e+00 0.000000e+00 2.557385e-04 1.056954e-03 1.567138e+01" Stress="-1.054236e-05 5.929136e-06 -5.110345e-06 5.451189e-06 4.031635e-06 -1.571151e-05 -5.878530e-07 -8.347457e-06 7.381612e-06" Properties=species:S:1:pos:R:3:forces:R:3 Config_type=AlGaN_super3_46_2_14.xyz
Al 1.586882e+00 8.912822e-01 2.470433e+00 -3.742508e-06 -2.640581e-06 2.275033e-06
Al 1.588370e+00 9.072149e-01 7.687238e+00 -2.141277e-06 1.857508e-05 -9.233511e-06
Ga 1.596185e+00 8.910145e-01 -2.765127e+00 -1.104589e-05 4.710911e-06 2.962615e-06
Ga -2.639422e-02 3.667264e+00 2.474305e+00 -8.084726e-06 -2.802912e-06 -5.015606e-05
Al -9.153839e-03 3.668742e+00 7.677999e+00 9.689922e-06 1.109637e-05 3.696933e-06
Ga -2.194678e-02 3.674390e+00 -2.755977e+00 -1.202593e-05 9.224493e-06 -2.782231e-06
Ga 3.186706e+00 -1.897658e+00 2.468963e+00 7.509117e-05 1.073836e-05 -6.835902e-06
Ga 3.194030e+00 -1.898100e+00 7.683738e+00 -3.971962e-06 1.438377e-06 -3.393991e-06
Ga 3.197679e+00 -1.892701e+00 -2.756996e+00 -9.409724e-06 -7.584708e-06 -1.785731e-05
Ga -4.859246e+00 8.975895e-01 2.470336e+00 3.676654e-06 1.465673e-05 6.909550e-06
Ga -4.865425e+00 9.002788e-01 7.682485e+00 -1.990396e-06 1.705288e-05 -1.293418e-05
Al -4.853313e+00 8.926042e-01 -2.758103e+00 8.453132e-06 2.935744e-06 5.312550e-06
Ga -6.444647e+00 3.672556e+00 2.468948e+00 1.538631e-05 3.461614e-06 -8.734737e-06
Al -6.466442e+00 3.670773e+00 7.667839e+00 1.075943e-05 -6.885409e-06 9.753280e-06
Ga -6.451026e+00 3.669062e+00 -2.746585e+00 3.379317e-05 -1.637941e-05 1.427162e-05
Ga -3.243539e+00 -1.900049e+00 2.471360e+00 7.365702e-06 2.098445e-06 -3.497508e-05
Ga -3.242416e+00 -1.912886e+00 7.692707e+00 -6.655787e-06 2.332169e-06 -4.323406e-06
Ga -3.245429e+00 -1.894496e+00 -2.765406e+00 2.400032e-05 -1.462274e-05 9.980426e-06
Ga -1.626371e+00 8.993728e-01 2.467801e+00 4.541856e-05 3.327302e-05 -2.793743e-05
Ga -1.620054e+00 9.001414e-01 7.684405e+00 -1.132937e-05 -6.585340e-06 -1.987189e-05
Ga -1.639015e+00 8.923513e-01 -2.756234e+00 3.671540e-05 -2.144745e-05 1.267432e-05
Al -3.255291e+00 3.683711e+00 2.468947e+00 -1.421485e-08 8.736361e-06 -1.233908e-05
Ga -3.248231e+00 3.679524e+00 7.678632e+00 -1.429040e-05 6.224658e-06 -1.143065e-05
Ga -3.250849e+00 3.672082e+00 -2.751290e+00 -1.322506e-05 3.731744e-06 -2.278505e-05
Ga -1.202276e-02 -1.913028e+00 2.473249e+00 6.333027e-06 -1.792378e-06 -1.794946e-05
Ga -2.112398e-02 -1.905756e+00 7.666398e+00 -2.464555e-05 -1.845202e-05 -1.330674e-06
Ga -2.041144e-02 -1.905451e+00 -2.743312e+00 5.450048e-06 5.037435e-06 -4.538139e-07
Ga -1.051707e-02 1.816530e+00 5.091892e+00 4.446034e-08 -1.149826e-05 -1.527572e-06
Ga -1.650096e-02 1.823245e+00 -5.395172e+00 8.807572e-06 -1.670830e-06 1.829204e-05
Ga -1.726852e-02 1.815795e+00 -1.308699e-01 -7.246839e-06 -4.343030e-06 -3.170932e-06
Ga 3.180806e+00 -3.762566e+00 5.074857e+00 -1.110030e-05 -7.253013e-06 9.382883e-06
Ga 3.201994e+00 -3.762169e+00 -5.384622e+00 1.371578e-06 3.768532e-06 2.773841e-06
Ga 3.179758e+00 -3.761107e+00 -1.287517e-01 -6.593441e-06 1.483820e-05 1.254570e-05
Ga 1.581112e+00 -9.625313e-01 5.075466e+00 6.559453e-06 -5.828960e-06 -4.673541e-06
Ga 1.583586e+00 -9.642069e-01 -5.384848e+00 3.313690e-06 3.392066e-05 -1.546415e-05
Ga 1.579738e+00 -9.712740e-01 -1.290127e-01 -4.830842e-06 4.469977e-05 -9.737624e-06
Ga 3.187278e+00 1.826457e+00 5.085845e+00 -5.932423e-06 -1.445512e-05 4.639095e-07
Ga 3.195200e+00 1.823654e+00 -5.385194e+00 9.672561e-06 -6.155272e-06 1.557610e-06
Ga 3.200790e+00 1.820922e+00 -1.417110e-01 1.755089e-05 5.014359e-06 4.120838e-06
Ga 6.425579e+00 -3.761428e+00 5.097436e+00 -7.068156e-06 -9.636793e-06 -1.151067e-06
Ga 6.418026e+00 -3.768743e+00 -5.396354e+00 -3.521097e-05 1.586158e-05 1.557122e-05
Ga 6.424877e+00 -3.757716e+00 -1.405809e-01 -4.707740e-06 -4.039259e-06 9.329166e-06
Ga 4.804906e+00 -9.692486e-01 5.082498e+00 3.991835e-06 -2.294456e-06 8.098093e-06
Ga 4.803702e+00 -9.627958e-01 -5.361658e+00 -8.200899e-06 -8.267008e-06 2.771358e-05
Ga 4.805342e+00 -9.614875e-01 -1.564259e-01 2.761819e-07 2.077626e-07 1.063555e-08
Ga -3.247528e+00 1.836432e+00 5.063900e+00 -7.399776e-06 4.187114e-06 -5.348825e-06
Ga -3.246715e+00 1.817650e+00 -5.360786e+00 9.489710e-06 2.018021e-05 -2.978198e-06
Ga -3.254366e+00 1.830329e+00 -1.409955e-01 -4.970325e-05 4.665042e-05 8.570136e-06
Al -2.130525e-02 -3.764085e+00 5.076132e+00 5.495306e-06 -2.265794e-06 -1.068394e-05
Ga -3.106211e-02 -3.759702e+00 -5.384322e+00 1.632184e-06 -3.779917e-06 -1.564104e-05
Al -1.762635e-02 -3.759954e+00 -1.314248e-01 1.123151e-05 7.614217e-06 -5.436375e-06
Ga -1.628211e+00 -9.768521e-01 5.076018e+00 2.709380e-07 2.435147e-05 -1.553083e-05
Ga -1.627340e+00 -9.702284e-01 -5.372188e+00 1.145964e-06 -6.713553e-06 -3.928520e-06
Ga -1.626377e+00 -9.786420e-01 -1.406587e-01 -2.990030e-05 6.663406e-05 1.213821e-06
N 1.587041e+00 8.928376e-01 4.389506e+00 -1.209245e-06 2.564479e-08 -6.169133e-06
N 1.590145e+00 8.906741e-01 -6.063689e+00 1.722637e-05 -3.656463e-05 9.206557e-06
N 1.587797e+00 8.885703e-01 -7.874928e-01 1.915828e-05 -5.447407e-05 -1.213774e-05
N -2.106899e-02 3.676646e+00 4.451354e+00 1.772801e-05 3.831036e-06 3.522497e-05
N -2.291350e-02 3.676555e+00 -6.073085e+00 7.295854e-06 1.053872e-05 -1.521350e-06
N -2.566153e-02 3.677066e+00 -7.725422e-01 2.502820e-06 1.779454e-05 1.265517e-06
N 3.193199e+00 -1.898389e+00 4.447492e+00 -8.857703e-07 -4.595226e-06 -1.615513e-05
N 3.197438e+00 -1.897875e+00 -6.007645e+00 -1.360106e-05 1.470943e-06 -2.569001e-06
N 3.191167e+00 -1.900948e+00 -7.739669e-01 1.082064e-05 1.915244e-05 -1.047496e-05
N -4.857738e+00 8.916915e-01 4.447202e+00 1.290473e-05 1.572812e-05 4.989711e-06
N -4.850888e+00 8.907996e-01 -6.013924e+00 1.885200e-06 1.175556e-05 1.870743e-06
N -4.852764e+00 8.941181e-01 -8.338643e-01 4.837334e-06 -5.807802e-06 1.529037e-06
N -6.416688e+00 3.701210e+00 4.457068e+00 9.578235e-06 4.934777e-06 6.143902e-06
N -6.455878e+00 3.674682e+00 -6.078999e+00 2.296092e-05 -1.131521e-05 -6.627402e-06
N -6.413952e+00 3.700197e+00 -7.568013e-01 -1.477319e-05 -1.247823e-05 5.274859e-06
N -3.243217e+00 -1.903397e+00 4.447918e+00 -7.015772e-06 2.761782e-06 3.389886e-05
N -3.243266e+00 -1.897706e+00 -6.000297e+00 -7.992905e-06 -1.005148e-05 -1.983597e-06
N -3.240749e+00 -1.899974e+00 -7.865455e-01 -1.604419e-05 -2.750632e-05 1.868275e-05
N -1.628497e+00 8.932373e-01 4.448272e+00 1.830142e-05 -3.873521e-05 1.863557e-05
N -1.635399e+00 8.913182e-01 -6.007163e+00 1.047887e-06 -8.532271e-06 1.177630e-05
N -1.634095e+00 8.920587e-01 -7.711797e-01 3.610276e-05 -3.821370e-05 -8.839235e-06
N -3.289989e+00 3.706745e+00 4.400483e+00 5.129547e-06 -4.017608e-06 7.495089e-06
N -3.244431e+00 3.675003e+00 -6.013524e+00 3.765701e-06 -5.797954e-06 4.095656e-06
N -3.286103e+00 3.702544e+00 -7.676719e-01 3.455696e-05 -6.720423e-05 2.635939e-06
N -2.025476e-02 -1.952797e+00 4.463239e+00 1.284557e-05 2.900853e-06 9.469750e-06
N -2.237642e-02 -1.902036e+00 -6.025357e+00 3.866240e-06 -1.896415e-05 6.388613e-06
N -1.997222e-02 -1.951055e+00 -7.535714e-01 3.781360e-05 -1.214161e-05 -6.700285e-06
N 2.156900e-02 1.794025e+00 1.850371e+00 -2.112385e-05 -6.286068e-06 1.516039e-05
N 2.403989e-02 1.841521e+00 7.083907e+00 -1.830874e-05 1.564363e-05 7.453966e-06
N -2.071639e-02 1.818889e+00 -3.410091e+00 8.358263e-07 -1.212917e-05 -7.548531e-07
N 3.150976e+00 -3.783533e+00 1.859472e+00 5.923645e-07 4.514348e-07 4.521482e-06
N 3.236009e+00 -3.783622e+00 7.063187e+00 -4.784026e-06 5.839577e-06 1.210689e-06
N 3.195782e+00 -3.759814e+00 -3.399353e+00 6.923143e-06 2.307983e-07 -8.415886e-07
N 1.583142e+00 -9.192479e-01 1.856788e+00 -3.293162e-05 1.359789e-05 -7.064837e-06
N 1.586735e+00 -9.119860e-01 7.063397e+00 2.179123e-05 6.744308e-06 1.403761e-06
N 1.582882e+00 -9.694297e-01 -3.401746e+00 -1.222794e-05 2.140476e-05 1.419055e-06
N 3.153350e+00 1.794717e+00 1.845397e+00 4.737983e-06 -1.834666e-05 7.567370e-06
N 3.148958e+00 1.843115e+00 7.077740e+00 1.666175e-06 -4.530918e-06 1.263738e-05
N 3.237708e+00 1.798727e+00 -3.390335e+00 -1.129541e-05 -9.618882e-06 1.085678e-05
N 6.417076e+00 -3.760755e+00 1.836795e+00 -2.795792e-06 5.473356e-06 -2.400248e-05
N 6.416245e+00 -3.804999e+00 7.087776e+00 5.200644e-06 -9.900774e-07 1.398716e-05
N 6.419358e+00 -3.764558e+00 -3.406616e+00 -3.019636e-05 2.308690e-05 -1.164337e-05
N 4.804116e+00 -9.655354e-01 1.824482e+00 -4.751414e-05 -1.772102e-05 2.692618e-05
N 4.806694e+00 -9.678946e-01 7.054133e+00 -9.160047e-06 -1.821728e-05 -1.955612e-06
N 4.803586e+00 -9.182603e-01 -3.374260e+00 -3.833068e-05 2.817880e-05 -3.058999e-07
N -3.245518e+00 1.869001e+00 1.851845e+00 -1.102788e-05 8.202467e-07 -1.271911e-05
N -3.242062e+00 1.821358e+00 7.040410e+00 3.819962e-06 1.432719e-05 1.275235e-06
N -3.284707e+00 1.795593e+00 -3.372555e+00 -5.155576e-05 9.919365e-07 6.840362e-06
N 1.930660e-02 -3.781432e+00 1.793197e+00 -7.295277e-06 -1.911605e-06 7.629136e-06
N -6.380377e-02 -3.785020e+00 7.004576e+00 -7.241980e-06 -1.791715e-06 2.769829e-06
N -2.646784e-02 -3.757391e+00 -3.407230e+00 -6.316876e-06 -1.072378e-05 4.009699e-06
N -1.628093e+00 -9.708207e-01 1.840014e+00 -1.547556e-05 -1.350620e-05 -2.916441e-06
N -1.635053e+00 -9.673524e-01 7.050635e+00 8.266163e-06 -1.390024e-05 7.768928e-06
N -1.626194e+00 -9.699803e-01 -3.390949e+00 -7.576449e-06 2.529524e-06 -3.521943e-06
