108
Energy=-711314.766077 Lattice="9.474714 0.000000 0.000000 -4.739373 8.202505 0.000000 -0.000475 -0.001753 15.299225" Stress="0.000069 0.000024 -0.000002 0.000024 0.000091 -0.000003 -0.000002 -0.000003 0.000145" Properties=species:S:1:pos:R:3:forces:R:3
Al 1.562250 0.887316 2.471297 -0.001498 -0.007374 -0.005749
Al 1.561039 0.894812 7.511094 -0.000563 -0.011856 -0.003723
Al 1.562612 0.899566 -2.761263 -0.000450 -0.011828 -0.001826
Al -0.007812 3.601531 2.477880 0.000180 0.000435 -0.009017
Al -0.004787 3.607392 7.510380 -0.002091 -0.001219 -0.002189
Al -0.002391 3.608806 -2.762621 -0.002194 -0.001267 -0.000100
Al 3.168430 -1.883678 2.477240 -0.003127 0.002581 -0.008415
Al 3.168690 -1.881829 7.513131 -0.002597 0.001148 -0.002684
Al 3.171800 -1.878257 -2.763189 -0.002653 0.001337 -0.002526
Al -4.781309 0.897003 2.468448 0.000546 -0.012501 -0.005280
Al -4.781227 0.896595 7.513133 0.001457 -0.010697 -0.002488
Al -4.781352 0.899795 -2.750607 0.000811 -0.010969 -0.001472
Al -6.349189 3.604832 2.479315 0.001475 0.002513 -0.009573
Al -6.346896 3.608731 7.511547 -0.000044 -0.000168 -0.001212
Al -6.348199 3.612920 -2.769853 -0.000022 -0.001046 0.005116
Al -3.174686 -1.880015 2.471525 0.000594 0.003673 -0.006884
Al -3.172882 -1.880378 7.513238 0.000152 0.002120 -0.001887
Al -3.174096 -1.879052 -2.761184 -0.000436 0.002146 -0.000802
Al -1.648077 0.889654 2.473616 0.012674 -0.002538 -0.005887
Al -1.648358 0.897791 7.511225 0.011766 -0.006662 -0.004541
Ga -1.647308 0.899464 -2.763532 0.012889 -0.006481 -0.003913
Al -3.211956 3.606767 2.480101 0.009539 0.006905 -0.008723
Al -3.214020 3.610644 7.511619 0.010271 0.004032 -0.002733
Ga -3.215846 3.613303 -2.761892 0.012549 0.005221 -0.000605
Ga -0.040786 -1.870065 2.480167 0.011993 0.007730 -0.010298
Al -0.040543 -1.878669 7.511554 0.010135 0.006496 -0.003786
Al -0.041241 -1.877502 -2.762938 0.010792 0.006550 -0.002409
Al -0.004786 1.797024 4.996827 -0.009823 -0.007138 -0.004086
Al -0.002692 1.800929 -5.278866 -0.010390 -0.006666 -0.003647
Al -0.011583 1.796444 -0.217462 -0.007130 -0.005316 0.022368
Al 3.167801 -3.693152 4.998684 -0.009655 -0.003969 -0.003659
Al 3.170705 -3.688637 -5.277594 -0.010515 -0.004412 -0.002911
Al 3.168065 -3.690403 -0.242492 -0.010630 -0.004665 0.026934
Al 1.602107 -0.979283 5.000854 -0.011535 0.007425 -0.005083
Al 1.603623 -0.976356 -5.276168 -0.011712 0.006896 -0.004325
Al 1.602816 -0.973192 -0.244158 -0.012212 0.006902 0.024723
Al 3.127293 1.800165 4.996615 -0.000695 -0.003608 -0.001939
Al 3.129060 1.801357 -5.276318 0.000325 -0.002542 -0.001723
Al 3.121820 1.787466 -0.203698 0.000089 0.002749 0.020350
Al 6.302190 -3.692084 4.997548 -0.000815 0.000179 -0.000923
Al 6.301286 -3.687588 -5.276855 -0.000034 -0.000060 -0.001166
Ga 6.298320 -3.688398 -0.218126 0.001057 -0.000513 0.030942
Ga 4.736024 -0.977517 4.998698 -0.000947 0.013633 -0.003670
Al 4.736718 -0.973952 -5.275129 -0.001497 0.011233 -0.002426
Al 4.733604 -0.976529 -0.221307 -0.001432 0.010298 0.023716
Al -3.213875 1.801873 4.996365 0.002887 -0.002343 -0.002436
Al -3.212943 1.803708 -5.282040 0.001843 -0.001625 -0.002090
Al -3.224833 1.792650 -0.180550 0.007544 0.001924 0.014500
Al -0.040469 -3.689835 4.999970 0.002250 0.001216 -0.001529
Al -0.040807 -3.685075 -5.278596 0.002491 0.000692 -0.002297
Ga -0.038264 -3.686000 -0.215872 0.001399 0.000758 0.029915
Al -1.605220 -0.976588 5.000003 0.000054 0.012601 -0.004211
Al -1.605509 -0.974951 -5.277757 0.000473 0.012504 -0.003758
Al -1.606091 -0.965158 -0.241957 0.001166 0.011498 0.025721
N 1.560986 0.893926 4.399703 0.000097 -0.010868 0.002793
N 1.562119 0.896876 -5.871330 0.000073 -0.011623 0.003339
N 1.556650 0.896663 -0.833721 0.000399 -0.010896 0.005632
N -0.004917 3.605204 4.401741 -0.000721 0.000514 0.000244
N -0.003613 3.610012 -5.872628 -0.001411 0.000007 0.001119
N -0.010951 3.604091 -0.835203 -0.016887 -0.009184 -0.002972
N 3.163513 -1.885468 4.400341 -0.018048 -0.008227 -0.006216
N 3.169548 -1.879664 -5.870161 -0.001825 0.001379 0.001412
N 3.169579 -1.879635 -0.838749 -0.002130 0.000781 0.004434
N -4.781326 0.902713 4.396268 0.001025 0.004743 -0.003840
N -4.780502 0.898592 -5.870746 0.000794 -0.011504 0.003223
N -4.784972 0.895472 -0.819035 0.002303 -0.011004 0.005302
N -6.347038 3.606933 4.402582 0.000463 0.001048 -0.000904
N -6.346479 3.611006 -5.871420 -0.000397 0.000072 0.002027
N -6.346077 3.605466 -0.828074 -0.000698 -0.020816 -0.011800
N -3.167886 -1.885481 4.397921 0.015432 -0.008272 -0.006694
N -3.172527 -1.878952 -5.870519 -0.000894 0.001365 0.001723
N -3.174574 -1.872079 -0.834823 -0.000251 0.020092 -0.002947
N -1.648369 0.896854 4.400552 0.011130 -0.006219 0.005064
N -1.647217 0.899541 -5.871906 0.011945 -0.006931 0.004953
N -1.632632 0.906455 -0.835440 0.003569 -0.007063 0.031131
N -3.213752 3.608896 4.403230 0.008947 0.004937 0.001852
N -3.213275 3.613519 -5.871795 0.010303 0.004986 0.003036
N -3.208170 3.610435 -0.831577 0.025794 -0.008246 0.021362
N -0.040360 -1.879999 4.410706 0.009972 0.004854 0.022264
N -0.040179 -1.876976 -5.871736 0.010103 0.006121 0.003303
N -0.041337 -1.871871 -0.837488 0.009902 0.024338 -0.000801
N -0.005044 1.791366 1.865381 -0.009663 -0.003488 -0.020094
N -0.004678 1.797972 6.916157 -0.009870 -0.005778 0.002996
N 0.001781 1.803821 -3.362678 0.003852 0.001367 -0.001824
N 3.167874 -3.692875 1.886888 -0.010624 -0.004535 -0.023961
N 3.168665 -3.691425 6.917201 -0.010284 -0.004627 0.003013
N 3.175385 -3.686681 -3.361118 0.003362 0.003053 -0.000953
N 1.607088 -0.950468 1.887837 0.003463 0.005750 -0.029035
N 1.603554 -0.978215 6.918475 -0.011682 0.006649 0.005581
N 1.603963 -0.975720 -3.358002 -0.011742 0.006568 0.006932
N 3.127116 1.798333 1.864022 0.000973 -0.000803 -0.021698
N 3.127886 1.799702 6.916402 0.000806 -0.001250 0.000587
N 3.129388 1.802959 -3.356894 0.000953 -0.001790 0.001373
N 6.308642 -3.682282 1.854426 -0.002638 -0.003259 -0.003896
N 6.301355 -3.689779 6.916522 0.000278 -0.000020 0.000834
N 6.300503 -3.687570 -3.358911 0.000226 0.000459 0.001430
N 4.734146 -0.977075 1.865664 -0.001189 0.011221 -0.021055
N 4.735955 -0.976549 6.924833 -0.001055 0.011495 0.022913
N 4.737292 -0.972845 -3.355951 -0.001104 0.011480 0.004251
N -3.212947 1.798712 1.864856 0.001379 -0.000551 -0.021962
N -3.214383 1.801172 6.916444 0.001812 -0.001127 0.000405
N -3.222626 1.798915 -3.363648 -0.013062 -0.010387 -0.012156
N -0.037508 -3.684109 1.849395 0.001195 -0.020568 -0.009220
N -0.040731 -3.688951 6.917452 0.001390 0.000099 0.000843
N -0.046306 -3.682303 -3.362284 -0.014445 0.009572 -0.005589
N -1.611565 -0.948052 1.888388 -0.016354 0.013044 -0.032772
N -1.606659 -0.975444 6.917828 0.000040 0.011324 0.002910
N -1.605796 -0.980410 -3.360526 0.000289 -0.004214 -0.001579
