108
Energy=-1.260623e+06 Lattice="9.490930e+00 0.000000e+00 0.000000e+00 -4.749681e+00 8.217559e+00 0.000000e+00 -5.823132e-03 2.001429e-03 1.531446e+01" Stress="-1.016987e-03 -7.549993e-05 -2.665106e-04 -7.632923e-05 -1.272735e-03 -1.269477e-04 -2.842288e-04 -1.233174e-04 8.539667e-04" Properties=species:S:1:pos:R:3:forces:R:3 Config_type=AlGaN_super3_18_1_10.xyz
Al 1.561772e+00 8.649958e-01 2.422738e+00 -1.501581e-03 5.521712e-03 -3.572141e-04
Al 1.554879e+00 8.811995e-01 7.518626e+00 -3.367633e-04 -4.747242e-04 1.776433e-04
Al 1.554218e+00 8.664755e-01 -2.733831e+00 5.792883e-04 -1.746416e-04 5.887391e-04
Al -3.362540e-02 3.599657e+00 2.431405e+00 2.939136e-03 3.312708e-03 -1.813897e-04
Al -2.664974e-02 3.601687e+00 7.503221e+00 8.605847e-04 3.617144e-04 -1.130493e-04
Al -4.992404e-03 3.593537e+00 -2.703048e+00 -2.714541e-03 2.383626e-03 -6.222959e-03
Al 3.114345e+00 -1.855524e+00 2.379080e+00 1.111164e-02 -1.067073e-03 3.611875e-03
Al 3.139152e+00 -1.868332e+00 7.536156e+00 -5.088698e-04 -1.163326e-03 -5.254502e-04
Ga 3.142939e+00 -1.855706e+00 -2.722838e+00 -5.269951e-05 -5.771792e-04 1.320394e-03
Al -4.777876e+00 8.715184e-01 2.422910e+00 8.757126e-04 3.387171e-03 -4.319734e-04
Al -4.789953e+00 8.802347e-01 7.505654e+00 6.288777e-06 -1.189212e-03 -2.905684e-04
Al -4.780718e+00 8.689432e-01 -2.708952e+00 3.051132e-04 -1.769110e-04 4.186438e-04
Ga -6.363410e+00 3.597240e+00 2.439891e+00 -6.560042e-04 4.722187e-04 -2.722812e-04
Al -6.359787e+00 3.603431e+00 7.509216e+00 -3.957062e-04 4.134757e-04 2.414369e-04
Ga -6.360338e+00 3.603617e+00 -2.729263e+00 7.436675e-04 4.332101e-05 6.388576e-04
Ga -3.199493e+00 -1.868593e+00 2.406412e+00 4.129681e-05 -2.721952e-04 1.074202e-03
Ga -3.188796e+00 -1.868285e+00 7.511403e+00 6.125727e-04 -2.030117e-04 -7.552786e-05
Ga -3.188828e+00 -1.872228e+00 -2.706091e+00 -4.143487e-04 2.613917e-04 5.736063e-04
Ga -1.607130e+00 8.943864e-01 2.408511e+00 2.201820e-04 -1.422910e-04 3.815227e-04
Al -1.598716e+00 8.835820e-01 7.488100e+00 9.375889e-04 -5.492562e-04 3.783389e-04
Ga -1.593969e+00 8.872549e-01 -2.684102e+00 9.409095e-04 -1.170506e-04 8.563240e-04
Al -3.182878e+00 3.606661e+00 2.448136e+00 -8.335925e-04 -1.236216e-03 -1.104050e-03
Ga -3.190476e+00 3.625605e+00 7.500365e+00 2.771839e-04 -3.994147e-04 -5.097371e-04
Ga -3.187028e+00 3.618942e+00 -2.720458e+00 9.218806e-04 2.594142e-04 2.536717e-04
Ga -4.165632e-03 -1.856483e+00 2.423367e+00 -2.187587e-03 -4.412319e-04 8.461997e-04
Al -1.537591e-02 -1.861748e+00 7.506583e+00 -2.473949e-03 3.716685e-04 -3.016783e-04
Al -4.120873e-03 -1.854126e+00 -2.709391e+00 3.377306e-04 -1.913787e-04 2.488812e-04
Al -2.430238e-02 1.795775e+00 4.975547e+00 -5.040736e-04 3.994808e-07 -3.107681e-04
Al -7.269044e-03 1.801770e+00 -5.273589e+00 -7.981661e-04 -5.653332e-04 2.888232e-04
Al -1.252485e-02 1.781806e+00 -1.536105e-01 -1.039210e-05 1.403008e-04 2.128061e-03
Al 3.147865e+00 -3.702267e+00 4.952375e+00 -1.727983e-04 9.969355e-04 -2.614084e-03
Al 3.164111e+00 -3.687026e+00 -5.273006e+00 1.801094e-03 3.593573e-04 3.832060e-03
Ga 3.166587e+00 -3.708357e+00 -1.267084e-01 -1.360115e-03 1.473172e-03 -9.920832e-05
Ga 1.568565e+00 -9.526402e-01 4.982117e+00 -1.957420e-03 1.460377e-03 1.532142e-03
Al 1.567798e+00 -9.523999e-01 -5.284456e+00 -6.636673e-04 4.552757e-04 1.495227e-03
Al 1.559181e+00 -9.406995e-01 -1.593941e-01 -4.860852e-04 5.257981e-04 2.640469e-04
Al 3.131783e+00 1.796848e+00 4.980337e+00 3.118622e-04 -3.255257e-04 -8.395437e-04
Al 3.131123e+00 1.778797e+00 -5.276346e+00 4.676897e-04 6.557872e-04 1.154836e-03
Ga 3.132039e+00 1.761620e+00 -1.439142e-01 1.499884e-04 6.251864e-04 -6.333624e-04
Al 6.300417e+00 -3.707941e+00 4.984186e+00 1.220138e-04 6.616221e-04 -5.776185e-04
Al 6.301191e+00 -3.708954e+00 -5.279348e+00 -2.467231e-04 -1.331357e-04 2.641393e-05
Al 6.293061e+00 -3.694522e+00 -1.504228e-01 7.205526e-04 -1.792459e-04 1.937871e-03
Ga 4.716805e+00 -9.527205e-01 4.963199e+00 6.095876e-04 1.208305e-03 2.487896e-04
Al 4.712508e+00 -9.493215e-01 -5.273602e+00 7.879889e-05 7.507116e-05 1.181753e-03
Al 4.734682e+00 -9.422108e-01 -1.443816e-01 -5.695207e-04 -2.049897e-04 1.664848e-03
Al -3.196157e+00 1.792368e+00 4.972306e+00 -2.274863e-05 -3.234970e-04 -5.797501e-04
Ga -3.195716e+00 1.787028e+00 -5.279277e+00 4.481625e-04 -7.587669e-04 1.737307e-03
Al -3.194366e+00 1.775985e+00 -1.370297e-01 -2.262562e-05 5.296916e-05 1.388850e-03
Al -3.200258e-02 -3.696804e+00 4.978784e+00 -1.148393e-04 5.325368e-04 -9.518919e-04
Al -2.376457e-02 -3.680012e+00 -5.275152e+00 -5.770698e-05 -3.139603e-04 1.177884e-03
Ga -2.037347e-02 -3.679141e+00 -1.408127e-01 1.980588e-04 -5.338145e-04 6.632072e-04
Al -1.600675e+00 -9.430754e-01 4.985532e+00 -8.979036e-04 5.553404e-05 2.288045e-04
Ga -1.583497e+00 -9.549511e-01 -5.268001e+00 -6.201828e-04 3.857481e-04 1.513694e-03
Al -1.597900e+00 -9.475932e-01 -1.620270e-01 -6.411489e-04 -2.767792e-05 1.701636e-04
N 1.551139e+00 9.202327e-01 4.346260e+00 8.093599e-04 -6.877547e-04 -8.250573e-04
N 1.555509e+00 8.780715e-01 -5.874130e+00 6.682442e-04 -4.697903e-04 -8.585577e-04
N 1.516939e+00 8.468723e-01 -8.049784e-01 -3.191192e-04 -2.022289e-04 -9.142288e-04
N -2.317718e-02 3.605976e+00 4.355338e+00 2.359664e-05 4.958620e-04 -2.524698e-04
N -2.246409e-02 3.611292e+00 -5.892918e+00 -4.166826e-04 -2.918157e-04 -9.143360e-04
N 1.913497e-02 3.581711e+00 -7.989677e-01 4.042511e-04 -2.671228e-04 2.927470e-03
N 3.137503e+00 -1.904144e+00 4.299606e+00 -7.645437e-04 -2.324247e-03 -1.236125e-03
N 3.147041e+00 -1.869345e+00 -5.858436e+00 -2.609578e-04 -4.427717e-04 -1.673948e-03
N 3.148238e+00 -1.826586e+00 -7.310214e-01 -9.935845e-05 6.085296e-04 7.443295e-04
N -4.776495e+00 9.238235e-01 4.341753e+00 -5.964571e-05 4.943876e-05 -8.214153e-05
N -4.813713e+00 8.544245e-01 -5.901056e+00 -9.431200e-05 -3.332449e-04 -1.005306e-03
N -4.731720e+00 8.497000e-01 -7.871186e-01 6.178849e-04 -1.943057e-04 -8.553582e-04
N -6.360653e+00 3.613848e+00 4.416846e+00 2.047064e-04 -2.999803e-04 6.278873e-04
N -6.345781e+00 3.608607e+00 -5.872387e+00 -4.389373e-04 -2.012448e-04 -8.175168e-04
N -6.389623e+00 3.628429e+00 -7.521528e-01 -9.230356e-04 4.489761e-04 -3.674369e-04
N -3.142487e+00 -1.888940e+00 4.393963e+00 -4.545462e-04 -1.207847e-03 1.163597e-04
N -3.219272e+00 -1.889252e+00 -5.832751e+00 -2.363502e-04 6.504336e-05 -2.173281e-04
N -3.186334e+00 -1.870967e+00 -7.134223e-01 -9.032040e-05 3.192880e-04 -3.745743e-04
N -1.610823e+00 8.814238e-01 4.403796e+00 8.111382e-04 -2.603047e-04 -1.767728e-04
N -1.562252e+00 9.020028e-01 -5.914103e+00 1.069508e-03 5.596222e-04 -3.750432e-04
N -1.606212e+00 8.849949e-01 -6.964700e-01 7.881225e-04 -3.819214e-04 -5.931601e-04
N -3.196396e+00 3.611057e+00 4.375766e+00 7.890637e-04 6.778279e-04 1.497225e-04
N -3.178592e+00 3.667668e+00 -5.841089e+00 -1.588506e-03 -2.376596e-04 -4.584817e-04
N -3.184061e+00 3.570580e+00 -7.504109e-01 8.628573e-05 -8.391713e-04 1.915037e-04
N -6.171777e-02 -1.877624e+00 4.395821e+00 9.681820e-04 -1.767397e-03 -7.547883e-05
N 2.208130e-02 -1.888282e+00 -5.900612e+00 6.671011e-04 -9.274036e-05 -1.097292e-03
N -1.283329e-02 -1.818500e+00 -7.867909e-01 3.914897e-04 1.316416e-04 5.163110e-05
N 2.183788e-02 1.816666e+00 1.777612e+00 1.121126e-03 -2.556260e-03 1.580005e-05
N -1.923530e-02 1.788776e+00 6.896143e+00 4.860093e-05 -2.444286e-04 -7.346776e-04
N 1.847011e-02 1.807351e+00 -3.348072e+00 -3.814468e-04 3.924114e-04 -1.076360e-03
N 3.139660e+00 -3.696835e+00 1.867372e+00 6.149055e-04 -8.427851e-04 -1.705853e-03
N 3.189475e+00 -3.669190e+00 6.867117e+00 -1.039865e-03 2.389111e-03 2.351737e-03
N 3.196481e+00 -3.715534e+00 -3.350828e+00 1.335596e-03 -1.031166e-03 -1.251551e-03
N 1.597087e+00 -9.183317e-01 1.771090e+00 -3.263637e-03 -5.823580e-05 -1.815963e-03
N 1.567148e+00 -9.543351e-01 6.964281e+00 7.157608e-04 1.526683e-03 -1.880861e-04
N 1.525770e+00 -9.328208e-01 -3.359221e+00 -9.646260e-04 4.412493e-04 -7.120566e-04
N 3.133959e+00 1.739176e+00 1.832783e+00 4.610613e-04 -2.198561e-03 3.487533e-04
N 3.130665e+00 1.786648e+00 6.905373e+00 -5.621901e-05 -4.267019e-04 -1.134731e-03
N 3.140121e+00 1.734436e+00 -3.348831e+00 2.592148e-05 -3.973112e-04 -2.057611e-04
N 6.263265e+00 -3.721293e+00 1.767222e+00 -2.664154e-03 -7.050192e-04 7.375182e-05
N 6.300286e+00 -3.741764e+00 6.895785e+00 1.912844e-04 -6.839089e-04 -4.545061e-04
N 6.265734e+00 -3.716892e+00 -3.372196e+00 -2.674181e-04 -5.045061e-04 1.100511e-03
N 4.690594e+00 -9.124133e-01 1.781087e+00 -4.365517e-03 -4.346057e-03 4.146331e-04
N 4.671719e+00 -9.350178e-01 6.934958e+00 3.832330e-04 2.386972e-03 -2.519942e-04
N 4.729488e+00 -9.044366e-01 -3.361208e+00 -3.118148e-04 3.070672e-04 -7.785758e-04
N -3.235373e+00 1.815269e+00 1.790338e+00 -9.583299e-04 -2.466046e-04 5.238181e-04
N -3.198251e+00 1.745132e+00 6.890059e+00 -3.918929e-04 -4.952289e-04 -6.365911e-04
N -3.226862e+00 1.758973e+00 -3.310302e+00 -3.670991e-04 -1.636938e-04 -5.445800e-04
N 1.605265e-02 -3.717353e+00 1.834964e+00 9.559167e-04 9.576125e-04 -3.472290e-04
N -6.979259e-02 -3.668111e+00 6.889504e+00 4.271730e-04 1.353362e-04 -1.626626e-04
N -2.452022e-02 -3.637746e+00 -3.357029e+00 2.543650e-05 -8.976940e-07 -1.353924e-03
N -1.598614e+00 -9.507717e-01 1.747765e+00 4.737101e-05 -1.816898e-04 -8.867941e-04
N -1.566928e+00 -9.249090e-01 6.895444e+00 9.676061e-04 -7.557029e-04 4.219179e-04
N -1.558587e+00 -9.679320e-01 -3.295451e+00 -2.384138e-04 -2.641018e-04 9.967187e-05
