108
Energy=-1.031745e+06 Lattice="9.466627e+00 0.000000e+00 0.000000e+00 -4.734407e+00 8.196430e+00 0.000000e+00 1.021287e-02 -5.229329e-04 1.524077e+01" Stress="9.126928e-05 -3.859102e-05 5.111064e-04 -4.640214e-05 -5.398708e-05 2.622473e-05 5.078089e-04 2.552201e-05 -6.152058e-05" Properties=species:S:1:pos:R:3:forces:R:3 Config_type=AlGaN_super3_13_2_31.xyz
Al 1.554792e+00 8.869592e-01 2.397781e+00 -5.841321e-05 6.292960e-05 8.363908e-05
Al 1.555704e+00 8.708655e-01 7.455171e+00 2.425091e-05 4.041030e-05 -1.032822e-05
Al 1.554580e+00 8.714749e-01 -2.675357e+00 3.983664e-05 1.395434e-05 4.320939e-05
Al -3.113505e-02 3.597418e+00 2.398417e+00 4.994238e-05 2.992087e-05 -4.119289e-06
Al -1.414558e-02 3.601059e+00 7.453257e+00 1.204313e-05 -2.743719e-05 -6.873857e-05
Al -3.858657e-02 3.608324e+00 -2.682564e+00 -1.572192e-04 -2.348651e-05 5.797368e-05
Al 3.153228e+00 -1.866468e+00 2.396643e+00 2.575880e-05 -9.982618e-06 3.066477e-06
Al 3.144604e+00 -1.852105e+00 7.468769e+00 -1.859209e-05 1.018092e-05 4.129255e-05
Al 3.146203e+00 -1.864559e+00 -2.697547e+00 2.773817e-05 1.125843e-06 8.894496e-05
Al -4.755103e+00 8.653173e-01 2.361464e+00 1.762660e-06 -4.160307e-05 1.567180e-04
Al -4.752663e+00 8.604943e-01 7.482081e+00 -6.181920e-05 5.261266e-05 -6.139971e-05
Al -4.749230e+00 8.608938e-01 -2.674318e+00 1.010576e-04 -5.855601e-05 4.798009e-05
Al -6.337786e+00 3.591264e+00 2.400917e+00 -9.115442e-05 1.039270e-04 -6.044512e-06
Al -6.341049e+00 3.601701e+00 7.473395e+00 -2.382903e-05 -4.540146e-05 -1.230491e-04
Ga -6.345892e+00 3.596472e+00 -2.686618e+00 2.497242e-05 -1.421350e-05 2.513004e-05
Al -3.189358e+00 -1.851326e+00 2.406671e+00 2.822338e-05 -7.209233e-05 2.164938e-05
Ga -3.186187e+00 -1.861214e+00 7.469218e+00 5.380808e-05 5.738636e-08 2.935030e-05
Al -3.194997e+00 -1.848643e+00 -2.702164e+00 -1.319692e-04 1.311910e-04 5.493381e-05
Al -1.597399e+00 8.793084e-01 2.372012e+00 2.824336e-05 1.020540e-05 1.732866e-05
Al -1.591599e+00 8.766147e-01 7.474543e+00 -2.848728e-05 -9.695829e-06 7.573069e-05
Al -1.612311e+00 8.768712e-01 -2.672616e+00 3.002720e-05 1.101859e-04 -4.064813e-05
Al -3.162106e+00 3.597500e+00 2.397233e+00 1.056480e-04 -2.440519e-05 1.558344e-04
Ga -3.165330e+00 3.599575e+00 7.481656e+00 1.218624e-05 -8.525953e-07 3.032134e-05
Al -3.159654e+00 3.593231e+00 -2.702826e+00 1.486966e-04 -1.064018e-04 -1.833786e-05
Ga -2.786549e-02 -1.855049e+00 2.417082e+00 1.730644e-05 -1.852661e-05 3.176113e-05
Ga -1.135156e-02 -1.850244e+00 7.471306e+00 3.236730e-05 -5.767775e-06 -2.493468e-05
Ga -2.428820e-02 -1.847316e+00 -2.699878e+00 2.454079e-05 3.183543e-05 2.219962e-05
Al -2.465416e-02 1.781368e+00 4.928398e+00 1.518687e-05 8.685378e-05 -1.775003e-06
Ga -3.657484e-02 1.782909e+00 -5.225029e+00 -2.524222e-05 1.447362e-05 -6.739529e-06
Al -3.113122e-02 1.783996e+00 -1.526689e-01 4.663246e-05 1.392132e-04 -4.858948e-05
Al 3.146385e+00 -3.671668e+00 4.922601e+00 -1.744859e-05 -5.215531e-05 -1.253125e-04
Al 3.134412e+00 -3.670752e+00 -5.226290e+00 -3.938456e-05 -6.217236e-05 -1.385828e-05
Al 3.137064e+00 -3.689304e+00 -1.482053e-01 1.746850e-04 3.008839e-05 1.817403e-05
Al 1.568768e+00 -9.532749e-01 4.923484e+00 -4.400376e-05 -7.993929e-05 5.750520e-05
Al 1.563429e+00 -9.587545e-01 -5.225773e+00 -8.228663e-05 -1.748274e-05 -4.756865e-05
Ga 1.573444e+00 -9.396568e-01 -1.379837e-01 2.740889e-05 2.889856e-05 -2.351956e-05
Ga 3.132286e+00 1.781244e+00 4.938010e+00 6.108136e-05 3.415216e-05 1.003593e-05
Ga 3.137013e+00 1.774014e+00 -5.240650e+00 -1.183229e-05 2.721513e-05 8.047626e-07
Al 3.133974e+00 1.767325e+00 -1.334907e-01 -1.466591e-05 -5.543994e-05 -3.110303e-05
Al 6.286721e+00 -3.680371e+00 4.911120e+00 4.873397e-05 -4.300378e-05 -1.569439e-04
Al 6.276877e+00 -3.670665e+00 -5.227388e+00 -1.641343e-04 -3.881969e-05 -2.308235e-05
Ga 6.270344e+00 -3.671602e+00 -1.271997e-01 -4.627601e-05 -5.669329e-06 6.127176e-05
Al 4.708751e+00 -9.613758e-01 4.920811e+00 4.585625e-06 8.246998e-05 -2.764090e-04
Al 4.704908e+00 -9.546148e-01 -5.216913e+00 4.852796e-05 -9.377413e-05 5.450653e-05
Al 4.716471e+00 -9.480076e-01 -1.535395e-01 -1.038794e-04 -1.993068e-05 -2.456242e-05
Ga -3.164927e+00 1.773858e+00 4.915780e+00 -4.310086e-05 1.052017e-05 -1.189365e-05
Al -3.181062e+00 1.771353e+00 -5.214953e+00 1.072438e-04 8.827731e-05 3.173167e-05
Al -3.173069e+00 1.778769e+00 -1.497983e-01 -1.016617e-06 -5.466923e-05 -1.897263e-05
Al -2.039072e-02 -3.678574e+00 4.924719e+00 -1.528152e-04 -2.613913e-05 -3.256570e-05
Al -2.294506e-02 -3.679642e+00 -5.224647e+00 -1.009167e-04 -9.172808e-05 -6.560028e-05
Ga -6.542000e-03 -3.697068e+00 -1.321098e-01 -2.275041e-05 1.389267e-05 3.571706e-06
Al -1.599616e+00 -9.458223e-01 4.923999e+00 3.510331e-05 -5.680882e-05 2.561544e-05
Al -1.613947e+00 -9.465563e-01 -5.221126e+00 -1.988916e-05 4.964762e-05 -1.142763e-04
Al -1.623029e+00 -9.311037e-01 -1.444456e-01 4.184924e-05 -3.322916e-05 -3.648053e-06
N 1.515439e+00 8.538993e-01 4.312393e+00 1.052821e-04 -6.433511e-06 -8.760261e-05
N 1.543099e+00 8.216634e-01 -5.879437e+00 1.113704e-05 2.517358e-06 2.584047e-05
N 1.554314e+00 9.196933e-01 -7.646436e-01 -7.558255e-06 6.556959e-05 8.716507e-05
N -2.587944e-02 3.597313e+00 4.320712e+00 -4.603246e-06 1.988442e-05 -1.126143e-05
N -2.814815e-02 3.650293e+00 -5.866139e+00 1.116998e-05 7.801853e-05 1.023854e-04
N -6.459847e-02 3.584017e+00 -7.685975e-01 1.207387e-05 -2.030340e-04 6.054534e-05
N 3.141732e+00 -1.864004e+00 4.312980e+00 -9.541460e-06 -1.175834e-05 -1.904274e-05
N 3.132658e+00 -1.860210e+00 -5.842247e+00 -9.155206e-06 -1.833283e-05 -2.378349e-05
N 3.177953e+00 -1.889108e+00 -7.781075e-01 7.705719e-06 8.693521e-05 -1.063023e-04
N -4.755390e+00 8.224651e-01 4.270175e+00 1.281863e-05 -9.713761e-06 -1.154688e-04
N -4.712927e+00 8.399055e-01 -5.848548e+00 -6.108531e-05 1.218531e-05 -4.586269e-05
N -4.754850e+00 8.712048e-01 -7.440696e-01 -5.009242e-06 1.030446e-06 2.596218e-05
N -6.331087e+00 3.644374e+00 4.307682e+00 4.114716e-07 6.483017e-05 4.744404e-05
N -6.343163e+00 3.655713e+00 -5.848484e+00 1.677537e-04 5.944438e-05 1.091651e-04
N -6.340584e+00 3.559393e+00 -7.242789e-01 -7.957159e-06 -1.313813e-06 -1.655327e-05
N -3.177311e+00 -1.855924e+00 4.328021e+00 3.111366e-05 -3.490380e-06 -6.953143e-06
N -3.185741e+00 -1.858830e+00 -5.789243e+00 -2.341779e-05 -2.671057e-05 8.999635e-06
N -3.179674e+00 -1.813708e+00 -7.839177e-01 3.310532e-05 -3.784312e-05 3.914986e-05
N -1.551527e+00 8.487685e-01 4.284122e+00 -8.509619e-05 -5.220753e-05 -1.144698e-05
N -1.644629e+00 8.486278e-01 -5.853900e+00 -2.956733e-05 6.827844e-05 -3.528028e-05
N -1.603264e+00 8.730078e-01 -7.506478e-01 2.831301e-05 -1.569076e-05 -1.128565e-05
N -3.168210e+00 3.650058e+00 4.311800e+00 1.340483e-04 -2.792754e-05 -7.318525e-05
N -3.177943e+00 3.600925e+00 -5.777308e+00 1.290796e-04 -5.126710e-05 -1.907651e-05
N -3.131667e+00 3.577920e+00 -7.820155e-01 -1.195541e-04 4.033032e-05 5.499758e-06
N -1.964234e-02 -1.857243e+00 4.390066e+00 -4.248135e-05 2.829100e-05 2.133636e-05
N -2.666678e-02 -1.856726e+00 -5.779199e+00 6.395614e-05 3.816536e-05 7.262710e-05
N -6.393570e-02 -1.834537e+00 -7.284898e-01 -3.192184e-05 -1.512313e-05 1.306520e-05
N -1.980757e-02 1.785421e+00 1.771847e+00 -4.182065e-06 2.181285e-06 -2.769849e-05
N -2.335622e-02 1.782700e+00 6.857304e+00 -3.366652e-05 1.459743e-05 1.722735e-05
N -2.653784e-02 1.781546e+00 -3.240722e+00 -1.390721e-04 -2.471547e-05 1.013237e-05
N 3.136446e+00 -3.681919e+00 1.778881e+00 -3.260173e-05 8.723142e-07 2.834253e-05
N 3.179319e+00 -3.654287e+00 6.840952e+00 1.017970e-05 1.896350e-05 1.404385e-04
N 3.136643e+00 -3.679398e+00 -3.306258e+00 -3.092789e-05 5.932439e-06 -4.427459e-05
N 1.602870e+00 -9.253734e-01 1.832043e+00 2.043371e-05 -6.471192e-05 -1.441523e-05
N 1.607585e+00 -9.286018e-01 6.838681e+00 4.923342e-06 -2.249605e-05 -7.840183e-05
N 1.602610e+00 -9.227196e-01 -3.308526e+00 1.841481e-05 -1.060161e-04 -4.258263e-05
N 3.130308e+00 1.779643e+00 1.786923e+00 -1.093546e-05 2.667557e-07 -1.088769e-06
N 3.141606e+00 1.782362e+00 6.922417e+00 -5.602312e-05 -3.244856e-06 5.725639e-05
N 3.134723e+00 1.728672e+00 -3.268671e+00 -6.890723e-05 7.059578e-05 -6.900518e-05
N 6.283684e+00 -3.677672e+00 1.853051e+00 3.981369e-05 -2.985282e-05 5.422453e-06
N 6.293420e+00 -3.728455e+00 6.829868e+00 -4.714983e-06 1.469463e-05 1.281689e-04
N 6.238782e+00 -3.659853e+00 -3.309308e+00 1.943502e-04 -3.787325e-06 -1.684265e-04
N 4.713127e+00 -9.567852e-01 1.768502e+00 7.944288e-06 8.988441e-06 -2.447965e-05
N 4.672768e+00 -9.251098e-01 6.834666e+00 -1.046424e-05 -4.072621e-05 2.520523e-04
N 4.704448e+00 -9.445025e-01 -3.297448e+00 -2.434154e-05 -9.666987e-06 -5.336949e-06
N -3.175150e+00 1.786404e+00 1.776606e+00 2.414049e-06 -2.413885e-06 6.837240e-06
N -3.175165e+00 1.733439e+00 6.888047e+00 1.208820e-04 -4.621253e-07 3.756007e-05
N -3.181284e+00 1.774461e+00 -3.289314e+00 4.073177e-06 7.844102e-06 -8.379664e-06
N -1.545369e-02 -3.730552e+00 1.834341e+00 -1.392539e-04 1.554214e-05 -6.806073e-05
N -5.623185e-02 -3.709162e+00 6.835259e+00 -6.815701e-06 3.763705e-05 4.689329e-05
N 1.597115e-02 -3.708621e+00 -3.320282e+00 -1.391154e-04 5.392271e-05 -1.838950e-05
N -1.647101e+00 -9.285980e-01 1.769769e+00 -3.612840e-05 2.284150e-05 -3.122024e-05
N -1.600326e+00 -9.002437e-01 6.830079e+00 -2.394513e-05 2.457335e-06 -4.699273e-05
N -1.647925e+00 -9.168038e-01 -3.311627e+00 8.832410e-05 -6.873284e-05 1.608085e-05
