108
Energy=-1901473.150644 Lattice="9.476278 0.000000 0.000000 -4.738139 8.206697 0.000000 0.000000 0.000000 15.313968" Stress="-0.000302 0.000036 -0.000002 0.000036 -0.000261 -0.000000 -0.000002 -0.000000 -0.000269" Properties=species:S:1:pos:R:3:forces:R:3
Al 1.564294 0.903146 2.504900 -0.001419 -0.014865 -0.013200
Al 1.564294 0.903146 7.521855 -0.001578 -0.014623 -0.004601
Al 1.564294 0.903146 -2.775158 -0.001418 -0.014925 -0.005051
Al 0.000000 3.612582 2.504900 -0.002813 -0.001875 -0.011583
Al 0.000000 3.612582 7.521855 -0.003614 -0.001336 -0.003100
Ga 0.000000 3.612582 -2.775158 -0.003145 -0.001103 -0.002912
Al 3.173845 -1.884678 2.504900 -0.003714 0.002090 -0.012593
Ga 3.173845 -1.884678 7.521855 -0.003392 0.001322 -0.004188
Al 3.173845 -1.884678 -2.775158 -0.003424 0.002019 -0.004146
Ga -4.783396 0.903146 2.504900 -0.000047 -0.017385 -0.013711
Ga -4.783396 0.903146 7.521855 0.000594 -0.017217 -0.004449
Ga -4.783396 0.903146 -2.775158 0.000189 -0.017691 -0.004105
Al -6.347690 3.612582 2.504900 -0.000601 -0.000431 -0.010033
Ga -6.347690 3.612582 7.521855 -0.000083 0.000154 -0.001959
Ga -6.347690 3.612582 -2.775158 -0.000627 0.000207 -0.001303
Ga -3.173845 -1.884678 2.504900 -0.001113 0.002493 -0.012412
Ga -3.173845 -1.884678 7.521855 -0.000398 0.003230 -0.002466
Al -3.173845 -1.884678 -2.775158 -0.000263 0.003508 -0.003447
Ga -1.654808 0.903146 2.504900 0.016977 -0.009015 -0.016659
Ga -1.654808 0.903146 7.521855 0.016595 -0.009014 -0.007230
Ga -1.654808 0.903146 -2.775158 0.016464 -0.009717 -0.008891
Ga -3.219102 3.612582 2.504900 0.015485 0.008544 -0.013467
Al -3.219102 3.612582 7.521855 0.012479 0.005900 -0.004485
Ga -3.219102 3.612582 -2.775158 0.015603 0.008456 -0.004981
Ga -0.045257 -1.884678 2.504900 0.015817 0.010958 -0.015121
Al -0.045257 -1.884678 7.521855 0.012288 0.008150 -0.004700
Ga -0.045257 -1.884678 -2.775158 0.014926 0.011372 -0.006917
Ga 0.000000 1.806291 5.013378 -0.015282 -0.011048 -0.006895
Al 0.000000 1.806291 -5.283635 -0.012328 -0.008609 -0.006010
Al 0.000000 1.806291 -0.266680 -0.011582 -0.008709 0.034757
Al 3.173845 -3.690969 5.013378 -0.012527 -0.005393 -0.004507
Ga 3.173845 -3.690969 -5.283635 -0.015155 -0.008477 -0.005807
Ga 3.173845 -3.690969 -0.266680 -0.015115 -0.007661 0.045718
Ga 1.609551 -0.981532 5.013378 -0.016191 0.008877 -0.009472
Al 1.609551 -0.981532 -5.283635 -0.014394 0.008182 -0.006551
Al 1.609551 -0.981532 -0.266680 -0.013566 0.008252 0.033081
Ga 3.128588 1.806291 5.013378 0.000577 -0.003111 -0.003787
Ga 3.128588 1.806291 -5.283635 0.000043 -0.003890 -0.003005
Al 3.128588 1.806291 -0.266680 -0.000087 -0.003586 0.036658
Ga 6.302433 -3.690969 5.013378 0.000238 -0.000256 -0.002409
Ga 6.302433 -3.690969 -5.283635 -0.000097 -0.000173 -0.001797
Ga 6.302433 -3.690969 -0.266680 0.000122 -0.000456 0.049466
Ga 4.738139 -0.981532 5.013378 -0.001047 0.017197 -0.005668
Ga 4.738139 -0.981532 -5.283635 -0.000542 0.017442 -0.004531
Al 4.738139 -0.981532 -0.266680 -0.001694 0.013220 0.035313
Ga -3.219102 1.806291 5.013378 0.003229 -0.001603 -0.003970
Al -3.219102 1.806291 -5.283635 0.003925 -0.002030 -0.004931
Al -3.219102 1.806291 -0.266680 0.003087 -0.002258 0.036189
Al -0.045257 -3.690969 5.013378 0.003205 0.000972 -0.003130
Ga -0.045257 -3.690969 -5.283635 0.003368 0.001740 -0.003864
Ga -0.045257 -3.690969 -0.266680 0.003048 0.000997 0.048474
Ga -1.609551 -0.981532 5.013378 0.002212 0.018704 -0.005966
Al -1.609551 -0.981532 -5.283635 0.001701 0.015106 -0.005238
Ga -1.609551 -0.981532 -0.266680 0.001894 0.018631 0.044411
N 1.564294 0.903146 4.418497 -0.001488 -0.018161 -0.015747
N 1.564294 0.903146 -5.878516 -0.019217 -0.024401 -0.002671
N 1.564294 0.903146 -0.861561 -0.000738 -0.012936 0.005845
N 0.000000 3.612582 4.418497 -0.021179 0.011175 -0.012480
N 0.000000 3.612582 -5.878516 -0.001735 -0.021667 -0.013447
N 0.000000 3.612582 -0.861561 -0.002379 -0.021543 0.013233
N 3.173845 -1.884678 4.418497 -0.002706 -0.019877 -0.013051
N 3.173845 -1.884678 -5.878516 -0.021368 0.012750 0.010221
N 3.173845 -1.884678 -0.861561 -0.002491 0.022206 -0.003869
N -4.783396 0.903146 4.418497 0.000769 -0.018046 0.006953
N -4.783396 0.903146 -5.878516 0.019304 -0.006603 0.014397
N -4.783396 0.903146 -0.861561 0.001044 -0.012945 0.029877
N -6.347690 3.612582 4.418497 0.018554 0.011737 -0.012557
N -6.347690 3.612582 -5.878516 -0.000484 0.000252 0.002352
N -6.347690 3.612582 -0.861561 -0.000570 -0.021300 0.013599
N -3.173845 -1.884678 4.418497 -0.000952 0.002478 0.002502
N -3.173845 -1.884678 -5.878516 0.017870 0.012915 0.010519
N -3.173845 -1.884678 -0.861561 -0.019489 0.012075 -0.010194
N -1.654808 0.903146 4.418497 0.016563 -0.010094 0.011084
N -1.654808 0.903146 -5.878516 0.013245 -0.008026 0.030180
N -1.654808 0.903146 -0.861561 0.013506 0.010110 0.025640
N -3.219102 3.612582 4.418497 0.012112 0.028169 0.021423
N -3.219102 3.612582 -5.878516 0.014787 -0.013675 -0.009552
N -3.219102 3.612582 -0.861561 0.015563 -0.013161 0.017051
N -0.045257 -1.884678 4.418497 0.014520 -0.011422 0.014858
N -0.045257 -1.884678 -5.878516 0.011245 0.029042 -0.003299
N -0.045257 -1.884678 -0.861561 0.030193 0.018087 0.015478
N 0.000000 1.806291 1.910020 0.003974 0.000905 -0.036064
N 0.000000 1.806291 6.926975 0.004120 0.000867 0.022017
N 0.000000 1.806291 -3.370038 0.004150 -0.020688 -0.008737
N 3.173845 -3.690969 1.910020 0.003377 0.002281 -0.022995
N 3.173845 -3.690969 6.926975 -0.011615 -0.028068 -0.003409
N 3.173845 -3.690969 -3.370038 -0.015516 0.013398 0.014076
N 1.609551 -0.981532 1.910020 0.001741 0.016718 -0.032634
N 1.609551 -0.981532 6.926975 -0.032585 0.019416 0.023024
N 1.609551 -0.981532 -3.370038 0.002423 0.016090 0.002010
N 3.128588 1.806291 1.910020 -0.017628 0.009346 -0.040284
N 3.128588 1.806291 6.926975 -0.018033 -0.013032 0.009703
N 3.128588 1.806291 -3.370038 -0.017476 -0.012497 0.010430
N 6.302433 -3.690969 1.910020 0.000809 -0.022242 -0.028191
N 6.302433 -3.690969 6.926975 -0.018488 -0.011534 0.009881
N 6.302433 -3.690969 -3.370038 0.000739 0.021699 0.010026
N 4.738139 -0.981532 1.910020 -0.019144 0.006983 -0.043411
N 4.738139 -0.981532 6.926975 -0.000462 0.017864 0.006468
N 4.738139 -0.981532 -3.370038 -0.000277 -0.004434 0.022702
N -3.219102 1.806291 1.910020 0.003104 -0.001839 -0.056059
N -3.219102 1.806291 6.926975 0.003002 0.019557 0.009980
N -3.219102 1.806291 -3.370038 0.002644 -0.001479 -0.021380
N -0.045257 -3.690969 1.910020 -0.016829 -0.011071 -0.035516
N -0.045257 -3.690969 6.926975 0.020642 0.010973 -0.006006
N -0.045257 -3.690969 -3.370038 0.002395 -0.000085 0.001966
N -1.609551 -0.981532 1.910020 0.001325 0.018383 -0.039838
N -1.609551 -0.981532 6.926975 0.019964 0.007665 0.014407
N -1.609551 -0.981532 -3.370038 -0.017643 0.006423 -0.009332
