108
Energy=-1535275.841998 Lattice="9.522220 0.000000 0.000000 -4.762710 8.245344 0.000000 0.000797 -0.001612 15.381099" Stress="-0.000010 -0.000000 0.000001 -0.000000 -0.000010 -0.000000 0.000001 -0.000000 -0.000011" Properties=species:S:1:pos:R:3:forces:R:3
Al 1.557641 0.872306 2.428682 0.000194 0.000162 0.000037
Al 1.563069 0.868536 7.547579 0.000189 -0.000004 0.000122
Al 1.565220 0.873259 -2.728566 0.000113 0.000090 0.000184
Al -0.029269 3.625226 2.414600 0.000700 -0.000085 -0.000606
Al -0.025846 3.624758 7.552198 0.000109 0.000098 0.000096
Ga -0.014034 3.621558 -2.718803 0.000025 -0.000064 0.000188
Al 3.144085 -1.877925 2.447494 0.000185 -0.000449 -0.000002
Ga 3.157065 -1.870154 7.525250 -0.000029 0.000210 0.000137
Al 3.150190 -1.863150 -2.731119 -0.000030 0.000145 0.000254
Ga -4.788817 0.875294 2.427565 0.000060 0.000086 -0.000047
Al -4.771558 0.871638 7.539670 0.000041 -0.000354 -0.000135
Ga -4.791913 0.875625 -2.717539 0.000261 0.000164 -0.000072
Al -6.373127 3.628438 2.403232 0.000229 0.000104 -0.000105
Ga -6.374612 3.624543 7.561948 -0.000097 0.000094 0.000149
Al -6.366521 3.632532 -2.719773 -0.000076 -0.000134 0.000311
Ga -3.197870 -1.877711 2.396025 0.000013 -0.000149 0.000015
Al -3.216495 -1.873675 7.549144 -0.000127 0.000005 0.000075
Ga -3.209234 -1.883190 -2.689443 -0.000097 0.000093 0.000297
Al -1.601100 0.881561 2.428205 -0.000117 -0.000127 -0.000008
Ga -1.621223 0.897794 7.549993 0.000361 -0.000225 -0.000221
Ga -1.604853 0.892255 -2.723549 0.000096 0.000001 0.000069
Al -3.193703 3.635342 2.425434 -0.000140 -0.000248 0.000132
Al -3.191688 3.612156 7.533930 -0.000284 -0.000135 0.000023
Al -3.213049 3.633047 -2.717567 -0.000187 -0.000430 0.001369
Al -0.013986 -1.870782 2.398007 -0.000186 -0.000762 -0.000224
Ga -0.004651 -1.871627 7.558076 0.000101 -0.000107 0.000200
Ga -0.002817 -1.887867 -2.703236 0.000046 -0.000069 0.000128
Ga -0.025059 1.797195 4.972620 -0.000121 0.000090 -0.000113
Al -0.013643 1.793661 -5.292783 0.000110 0.000188 0.000283
Ga -0.017682 1.787435 -0.116770 -0.000112 0.000220 0.000081
Al 3.148953 -3.704866 4.972028 -0.000161 0.000191 -0.000278
Ga 3.143666 -3.708930 -5.279724 0.000139 0.000070 0.000066
Ga 3.148745 -3.687066 -0.140619 0.000043 -0.000117 0.000052
Al 1.574330 -0.959805 4.953489 0.000200 -0.000279 0.000159
Al 1.570242 -0.949401 -5.262927 -0.000127 0.000097 0.000211
Ga 1.576163 -0.961267 -0.133128 -0.000260 0.000120 0.000060
Ga 3.153836 1.776194 4.993219 0.000190 0.000077 0.000063
Ga 3.146501 1.786409 -5.279853 0.000174 0.000102 0.000212
Ga 3.144224 1.808498 -0.151508 0.000015 0.000088 -0.000103
Ga 6.307061 -3.699441 4.981284 0.000227 -0.000032 -0.000050
Al 6.323254 -3.698010 -5.282805 -0.000383 -0.000169 -0.000249
Al 6.342340 -3.697433 -0.136106 0.000161 -0.000139 0.000141
Al 4.731040 -0.957102 4.991339 -0.000118 0.000204 -0.000025
Al 4.740665 -0.955948 -5.292718 0.000268 -0.000183 0.000254
Al 4.737295 -0.970302 -0.139780 -0.000126 -0.000055 -0.000001
Al -3.196159 1.799858 4.975824 -0.000459 0.000041 -0.000367
Al -3.202396 1.804084 -5.288415 -0.001492 0.000030 0.001579
Ga -3.197537 1.797944 -0.131604 0.000021 -0.000076 -0.000091
Ga -0.002026 -3.704243 4.959585 -0.000004 -0.000121 0.000011
Al -0.012402 -3.714229 -5.266640 -0.000293 0.000129 0.000180
Al -0.031793 -3.705099 -0.136576 -0.001384 0.000440 0.000797
Ga -1.610383 -0.951078 4.978591 -0.000173 -0.000100 0.000118
Ga -1.617675 -0.961799 -5.284450 -0.000180 -0.000123 0.000210
Al -1.612256 -0.964062 -0.129075 -0.000029 -0.000122 -0.000007
N 1.566087 0.831935 4.331677 -0.000116 0.000092 -0.000135
N 1.521654 0.843168 -5.916797 0.000099 -0.000044 -0.000146
N 1.557773 0.873142 -0.820234 0.000097 -0.000102 -0.000045
N -0.065504 3.651567 4.323072 0.000109 -0.000005 -0.000032
N 0.013610 3.604857 -5.907445 0.000180 0.000050 0.000070
N 0.019550 3.647007 -0.740764 0.000010 0.000073 -0.000192
N 3.157596 -1.874637 4.379045 -0.000009 -0.000002 -0.000019
N 3.147856 -1.825267 -5.874893 -0.000068 0.000084 -0.000150
N 3.193464 -1.844732 -0.816471 0.000048 -0.000031 -0.000092
N -4.743355 0.849285 4.402257 0.000369 0.000046 0.000193
N -4.740597 0.851248 -5.913684 0.000554 0.000519 -0.000477
N -4.782831 0.828018 -0.742091 0.000075 -0.000077 -0.000049
N -6.375631 3.623663 4.315595 -0.000064 0.000093 -0.000102
N -6.369608 3.674806 -5.850422 -0.000020 0.000017 -0.000113
N -6.369553 3.681119 -0.789428 0.000089 0.000078 -0.000277
N -3.239729 -1.846911 4.365027 -0.000080 0.000110 -0.000054
N -3.244064 -1.896244 -5.917593 -0.000022 -0.000022 0.000078
N -3.197545 -1.872319 -0.696196 -0.000063 0.000069 -0.000073
N -1.651529 0.899374 4.340201 0.000186 -0.000081 -0.000116
N -1.615330 0.930394 -5.855618 0.000563 -0.000250 -0.000381
N -1.608704 0.834106 -0.748412 0.000187 -0.000176 -0.000015
N -3.153056 3.602727 4.340414 -0.000198 -0.000367 -0.000140
N -3.239151 3.602635 -5.927337 0.000051 -0.000356 -0.000221
N -3.245241 3.653748 -0.792915 0.001055 -0.000512 -0.001684
N 0.015281 -1.848632 4.314054 -0.000091 0.000219 0.000114
N 0.027881 -1.897990 -5.844835 0.000069 -0.000084 -0.000055
N -0.057414 -1.896863 -0.716447 0.000214 0.000084 -0.000325
N -0.020239 1.790311 1.864307 -0.000011 0.000244 0.000185
N 0.021375 1.816990 6.954164 -0.000061 0.000249 0.000009
N 0.022128 1.771200 -3.379653 -0.000051 0.000142 -0.000349
N 3.146879 -3.698320 1.848623 0.000281 0.000898 0.000158
N 3.152581 -3.757388 6.905629 0.000342 0.000144 0.000044
N 3.108572 -3.684643 -3.296223 0.000002 0.000045 -0.000145
N 1.575005 -0.956590 1.851988 0.000412 0.000172 -0.000008
N 1.564687 -0.909959 6.868927 -0.000203 0.000163 -0.000279
N 1.606417 -0.931384 -3.344669 -0.000134 0.000042 -0.000126
N 3.105968 1.815212 1.828914 -0.000152 -0.000111 0.000094
N 3.150659 1.744319 6.977306 0.000010 -0.000046 -0.000043
N 3.109666 1.818700 -3.297367 -0.000096 -0.000046 -0.000053
N 6.328051 -3.755819 1.778081 -0.000626 -0.000258 0.000338
N 6.283206 -3.683149 6.958590 -0.000029 -0.000085 -0.000087
N 6.366212 -3.721002 -3.369261 0.000103 -0.000021 -0.000084
N 4.683927 -0.982904 1.767928 -0.000293 -0.000182 0.000052
N 4.779248 -0.933552 6.906201 0.000159 0.000337 0.000138
N 4.706189 -0.980150 -3.377744 -0.000180 -0.000130 -0.000316
N -3.156357 1.820466 1.840000 0.000012 0.000172 0.000166
N -3.238746 1.818700 6.895551 -0.000197 0.000020 0.000489
N -3.202491 1.844973 -3.367014 0.000149 0.000387 -0.000938
N -0.019898 -3.708830 1.797682 0.000004 -0.000140 0.000279
N 0.019375 -3.726927 6.929758 -0.000017 -0.000075 -0.000142
N -0.020456 -3.752951 -3.349697 0.000334 0.000059 -0.000364
N -1.566649 -0.927114 1.789141 -0.000114 0.000207 0.000087
N -1.646229 -0.979677 6.959199 -0.000223 -0.000009 -0.000067
N -1.611480 -0.962853 -3.320715 -0.000128 -0.000083 -0.000169
