108
Energy=-8.486435e+05 Lattice="9.446719e+00 0.000000e+00 0.000000e+00 -4.725977e+00 8.177144e+00 0.000000e+00 -1.106652e-02 -6.826800e-03 1.519264e+01" Stress="8.466735e-04 -1.665391e-04 -5.098112e-04 -1.694581e-04 9.864506e-05 -3.122606e-04 -5.242509e-04 -3.166659e-04 1.361602e-03" Properties=species:S:1:pos:R:3:forces:R:3 Config_type=AlGaN_super3_9_1_59.xyz
Al 1.549702e+00 8.688186e-01 2.422835e+00 3.292416e-04 -2.198274e-05 -7.661116e-05
Al 1.551050e+00 8.739260e-01 7.444978e+00 -1.112400e-05 -6.020747e-05 -6.217155e-05
Al 1.552932e+00 8.727909e-01 -2.719942e+00 1.637748e-05 -2.702608e-06 5.898959e-05
Al -1.007956e-02 3.598579e+00 2.419002e+00 1.148381e-04 -2.914532e-04 3.635067e-05
Al -2.977491e-02 3.590851e+00 7.443823e+00 -5.700876e-06 1.800743e-05 -3.078487e-05
Al -2.007426e-02 3.590468e+00 -2.714709e+00 1.380099e-05 -1.173706e-05 -1.525118e-04
Al 3.135185e+00 -1.846907e+00 2.414210e+00 -1.588216e-04 2.444328e-04 5.828540e-05
Al 3.130056e+00 -1.860159e+00 7.446260e+00 -3.094740e-05 -6.527870e-06 -7.096177e-05
Al 3.127701e+00 -1.849868e+00 -2.710239e+00 -6.702761e-05 -7.431988e-05 -3.433743e-05
Al -4.745020e+00 8.592317e-01 2.403053e+00 -2.235073e-04 1.450915e-04 -5.906278e-05
Al -4.757871e+00 8.640480e-01 7.433790e+00 3.446785e-06 -2.321502e-05 -7.065023e-05
Al -4.751872e+00 8.694238e-01 -2.688912e+00 1.658844e-04 -2.290494e-05 -9.674532e-05
Al -6.337952e+00 3.597766e+00 2.391573e+00 6.206799e-05 -9.478004e-05 -1.976142e-04
Al -6.338048e+00 3.579120e+00 7.460438e+00 -1.683402e-05 -2.945972e-06 -5.036415e-05
Al -6.318003e+00 3.593631e+00 -2.700123e+00 2.734002e-05 5.661281e-05 -4.860725e-05
Al -3.173512e+00 -1.859651e+00 2.380519e+00 3.207999e-05 -3.605385e-05 1.025067e-05
Al -3.183333e+00 -1.858515e+00 7.445010e+00 -1.456971e-04 -7.551112e-05 3.410305e-05
Ga -3.172653e+00 -1.854247e+00 -2.678263e+00 1.278683e-06 6.881363e-07 -1.145531e-04
Al -1.602188e+00 8.601265e-01 2.399809e+00 1.120847e-04 7.502446e-05 -3.971333e-05
Al -1.602337e+00 8.687986e-01 7.436024e+00 4.782630e-05 -1.674695e-05 1.119725e-04
Al -1.587391e+00 8.739329e-01 -2.684080e+00 9.747502e-05 -7.333045e-05 -3.104431e-04
Ga -3.175000e+00 3.586264e+00 2.389003e+00 -1.183894e-04 -6.464032e-05 -4.669481e-05
Al -3.166741e+00 3.585967e+00 7.451763e+00 1.450793e-04 -3.699451e-05 -1.376258e-05
Al -3.174797e+00 3.600851e+00 -2.685568e+00 1.268320e-05 9.538726e-06 4.011676e-05
Al -3.196565e-02 -1.848417e+00 2.391998e+00 1.159712e-05 7.304982e-05 2.877940e-04
Ga -2.901534e-02 -1.850038e+00 7.465573e+00 3.134771e-05 -2.856211e-06 -4.753774e-05
Al -1.628191e-02 -1.855784e+00 -2.703510e+00 7.389299e-06 -8.015679e-06 -4.120191e-05
Al -2.810378e-02 1.775719e+00 4.921554e+00 1.771096e-05 3.299606e-05 -5.445301e-05
Al -1.376609e-02 1.779327e+00 -5.227821e+00 2.014727e-05 -1.985073e-05 -1.260142e-05
Ga -2.861900e-02 1.781610e+00 -1.388912e-01 3.088549e-05 -6.124202e-05 4.636974e-05
Al 3.138501e+00 -3.671272e+00 4.933892e+00 2.875678e-05 3.435456e-05 -2.836167e-05
Al 3.135766e+00 -3.664258e+00 -5.220261e+00 -1.310124e-05 1.923392e-05 -3.303961e-05
Ga 3.138736e+00 -3.667678e+00 -1.562051e-01 -5.604662e-05 4.046943e-06 -1.090024e-04
Al 1.556148e+00 -9.414830e-01 4.917789e+00 1.051627e-04 -1.140561e-05 -1.106582e-04
Al 1.563103e+00 -9.426452e-01 -5.212083e+00 -6.806489e-06 -5.942996e-06 -3.409825e-05
Ga 1.550868e+00 -9.543707e-01 -1.478249e-01 -2.649695e-05 9.529949e-05 -1.163611e-05
Al 3.117792e+00 1.771412e+00 4.920199e+00 -1.847861e-05 -7.624336e-06 1.170957e-05
Al 3.123084e+00 1.779472e+00 -5.220216e+00 1.056316e-05 -5.304958e-06 -5.362047e-05
Ga 3.139262e+00 1.785459e+00 -1.456511e-01 9.404544e-06 -5.570058e-06 1.009060e-04
Al 6.266363e+00 -3.672513e+00 4.927268e+00 -8.790557e-05 2.788226e-05 4.359996e-05
Al 6.280138e+00 -3.673231e+00 -5.235103e+00 -3.741539e-05 1.680332e-05 -2.518944e-05
Al 6.284200e+00 -3.667196e+00 -1.400138e-01 -7.128959e-05 1.078789e-05 -4.435420e-06
Al 4.701198e+00 -9.522545e-01 4.920980e+00 -7.775256e-05 -3.621564e-05 -3.529762e-05
Al 4.699225e+00 -9.497928e-01 -5.237277e+00 -2.188433e-05 -7.778624e-05 9.780442e-05
Al 4.711509e+00 -9.439350e-01 -1.314571e-01 -1.913714e-04 1.824437e-04 -1.864869e-05
Al -3.171840e+00 1.760891e+00 4.938872e+00 1.662931e-05 9.715540e-05 -4.634432e-05
Ga -3.167444e+00 1.777001e+00 -5.216922e+00 2.507970e-05 -2.510433e-05 3.149363e-05
Al -3.175479e+00 1.763857e+00 -1.649130e-01 -2.108615e-04 -5.806211e-05 2.112217e-04
Ga -3.359220e-02 -3.676761e+00 4.930982e+00 -1.134049e-05 5.503938e-05 -9.065994e-05
Al -2.136091e-02 -3.673074e+00 -5.211127e+00 -4.943399e-05 1.338438e-04 -1.128654e-05
Al -3.571338e-02 -3.666936e+00 -1.587236e-01 -7.092318e-05 -2.339343e-04 -9.584005e-05
Al -1.612033e+00 -9.426791e-01 4.908525e+00 1.416014e-04 -1.227733e-04 -1.644107e-04
Al -1.593227e+00 -9.458565e-01 -5.214444e+00 -1.434445e-04 1.119377e-06 2.957346e-04
Al -1.601895e+00 -9.511314e-01 -1.390355e-01 3.200657e-04 3.426153e-04 9.615030e-05
N 1.546858e+00 8.695335e-01 4.332430e+00 1.595757e-05 1.319617e-05 3.223675e-05
N 1.556304e+00 8.714020e-01 -5.822845e+00 5.283805e-05 9.911410e-06 8.192460e-06
N 1.552431e+00 8.727691e-01 -8.153171e-01 3.523476e-05 -8.298063e-06 -1.196159e-05
N -2.401205e-02 3.595587e+00 4.334750e+00 5.256423e-05 7.564911e-06 4.215123e-05
N -2.269385e-02 3.596872e+00 -5.827506e+00 8.283256e-06 -2.877295e-05 1.176095e-05
N 2.405642e-02 3.618499e+00 -8.045969e-01 -7.215655e-06 -3.132608e-05 1.560822e-04
N 3.127280e+00 -1.857962e+00 4.328945e+00 7.711021e-05 2.927461e-05 4.087006e-06
N 3.128714e+00 -1.855242e+00 -5.827146e+00 -6.169567e-06 1.982418e-05 8.406086e-06
N 3.173799e+00 -1.825957e+00 -8.006643e-01 7.001073e-05 -1.731877e-05 1.155017e-04
N -4.746373e+00 8.668889e-01 4.326775e+00 5.816319e-05 4.521994e-05 5.554824e-05
N -4.785225e+00 8.505082e-01 -5.848683e+00 1.319245e-06 6.474083e-05 8.513610e-05
N -4.710255e+00 8.397998e-01 -7.754519e-01 1.553199e-05 -1.019148e-04 -2.125179e-06
N -6.371603e+00 3.572367e+00 4.300835e+00 6.276093e-05 -7.059360e-05 2.896263e-05
N -6.318381e+00 3.593551e+00 -5.817599e+00 2.852284e-05 4.269557e-06 1.233886e-05
N -6.325476e+00 3.643318e+00 -7.811648e-01 -7.443489e-06 -1.168353e-04 4.001011e-05
N -3.176876e+00 -1.861768e+00 4.306718e+00 4.014362e-05 2.766154e-05 3.348654e-05
N -3.165125e+00 -1.852063e+00 -5.826110e+00 -2.402969e-05 -2.521079e-05 3.768708e-05
N -3.171498e+00 -1.855082e+00 -6.927602e-01 -2.527820e-04 -1.222435e-04 -7.421333e-05
N -1.605121e+00 8.697110e-01 4.318984e+00 4.746392e-05 -4.041305e-05 4.435487e-05
N -1.551672e+00 8.464841e-01 -5.846858e+00 -2.735160e-05 1.815088e-04 -1.104417e-04
N -1.630331e+00 8.438273e-01 -7.706430e-01 9.410667e-05 -2.355914e-04 2.273176e-04
N -3.134183e+00 3.566028e+00 4.359524e+00 -7.188658e-05 -1.113035e-04 1.108773e-05
N -3.165600e+00 3.644166e+00 -5.830955e+00 4.087738e-05 -6.250504e-05 3.506776e-05
N -3.213786e+00 3.575934e+00 -7.619192e-01 1.028180e-04 1.307869e-04 -2.477641e-04
N -2.673794e-02 -1.811083e+00 4.306184e+00 -3.519620e-04 6.798639e-05 -1.018806e-04
N -1.708849e-02 -1.850957e+00 -5.756296e+00 6.194947e-05 -2.294351e-04 -3.621123e-05
N -6.411997e-02 -1.874709e+00 -7.806098e-01 6.693366e-05 3.614304e-05 3.414305e-05
N -2.317339e-02 1.778763e+00 1.847388e+00 -3.409264e-04 1.427643e-04 6.179313e-05
N -2.674684e-02 1.774610e+00 6.842294e+00 -1.938374e-05 1.182105e-05 1.885110e-05
N -2.559558e-02 1.778158e+00 -3.308348e+00 3.152802e-05 2.031931e-05 -7.184988e-06
N 3.174031e+00 -3.647994e+00 1.819545e+00 -8.203165e-05 -4.726762e-05 -8.411417e-05
N 3.126206e+00 -3.674756e+00 6.850143e+00 -2.895152e-06 2.710049e-05 2.901179e-05
N 3.127549e+00 -3.672824e+00 -3.295905e+00 -1.569577e-05 1.491483e-05 1.907458e-06
N 1.554131e+00 -9.475515e-01 1.838490e+00 6.248282e-05 -8.796389e-05 4.056238e-05
N 1.588769e+00 -9.277237e-01 6.830197e+00 -2.244892e-05 9.817194e-05 2.763254e-04
N 1.556306e+00 -9.470884e-01 -3.297207e+00 -3.134144e-05 2.909710e-05 1.354764e-05
N 3.124677e+00 1.774006e+00 1.839030e+00 1.175960e-04 -1.039132e-04 1.197563e-04
N 3.118709e+00 1.777069e+00 6.838935e+00 1.061714e-05 -2.099651e-06 3.779530e-05
N 3.132298e+00 1.780854e+00 -3.299484e+00 4.066165e-05 1.182731e-05 -1.146120e-05
N 6.271354e+00 -3.678539e+00 1.781849e+00 -4.833593e-05 2.075616e-05 3.062395e-05
N 6.272752e+00 -3.676027e+00 6.850330e+00 -2.460414e-06 1.368291e-05 5.656796e-05
N 6.280799e+00 -3.714129e+00 -3.325632e+00 9.376811e-06 -7.664298e-06 -2.116540e-06
N 4.695805e+00 -9.467295e-01 1.792109e+00 1.002021e-06 1.723623e-05 3.469378e-05
N 4.697366e+00 -9.540754e-01 6.840049e+00 -2.477565e-07 3.215247e-05 3.756063e-05
N 4.666927e+00 -9.221581e-01 -3.327078e+00 1.357040e-04 1.602193e-04 -1.786127e-04
N -3.174424e+00 1.723655e+00 1.755681e+00 7.583744e-05 -2.777052e-05 4.178019e-05
N -3.177561e+00 1.771574e+00 6.855278e+00 2.825432e-05 1.277412e-05 4.097124e-05
N -3.168643e+00 1.778502e+00 -3.239654e+00 -2.908424e-04 2.524458e-05 1.149160e-04
N -6.686208e-02 -3.649598e+00 1.765084e+00 3.896462e-05 4.509776e-05 -1.086312e-05
N -3.117962e-02 -3.723385e+00 6.893995e+00 -1.045479e-04 5.477474e-05 -9.217296e-06
N -1.893530e-02 -3.676030e+00 -3.293179e+00 1.009238e-05 -1.107043e-06 -4.107848e-05
N -1.596696e+00 -9.462126e-01 1.785014e+00 7.619913e-06 6.073495e-05 5.802225e-05
N -1.645222e+00 -9.307185e-01 6.819989e+00 1.249231e-04 1.387816e-04 -8.122684e-05
N -1.560490e+00 -9.199579e-01 -3.306095e+00 -2.495946e-06 -1.743358e-04 -9.671206e-05
