108
Energy=-482439.835529 Lattice="9.402420 0.000000 0.000000 -4.701361 8.142354 0.000000 0.001083 -0.001370 15.067105" Stress="0.000000 0.000000 0.000000 0.000000 -0.000000 -0.000000 0.000000 -0.000000 -0.000000" Properties=species:S:1:pos:R:3:forces:R:3
Al 1.545073 0.865522 2.363722 -0.000035 -0.000012 -0.000079
Al 1.546459 0.865816 7.384009 -0.000006 -0.000008 -0.000076
Al 1.543587 0.866016 -2.664617 -0.000003 0.000003 -0.000137
Al -0.021656 3.579791 2.364193 -0.000004 -0.000013 -0.000114
Al -0.022430 3.579680 7.384147 0.000014 -0.000010 -0.000072
Al -0.022331 3.580045 -2.664229 0.000027 -0.000017 -0.000111
Al 3.112928 -1.848711 2.363917 -0.000045 -0.000012 -0.000069
Al 3.112629 -1.849950 7.384069 0.000005 0.000005 -0.000072
Al 3.111377 -1.847261 -2.664155 0.000001 0.000011 -0.000120
Al -4.722623 0.865450 2.363431 -0.000023 0.000005 -0.000040
Al -4.724222 0.865821 7.383987 0.000005 -0.000023 -0.000061
Al -4.723906 0.865936 -2.664555 0.000008 -0.000017 -0.000055
Al -6.290034 3.579972 2.363667 0.000007 -0.000000 -0.000043
Al -6.290191 3.577936 7.384088 0.000019 -0.000006 -0.000064
Al -6.291489 3.580941 -2.664652 0.000039 -0.000015 -0.000078
Al -3.162899 -1.853021 2.377827 0.000047 0.000026 0.000037
Al -3.155719 -1.849076 7.383298 0.000006 -0.000005 -0.000072
Al -3.161971 -1.850831 -2.674718 0.000003 -0.000021 -0.000076
Al -1.588983 0.873877 2.377892 -0.000010 -0.000010 -0.000050
Al -1.589089 0.865033 7.383322 0.000005 -0.000008 -0.000081
Al -1.590314 0.871990 -2.674519 0.000044 -0.000037 -0.000089
Al -3.155928 3.579780 2.363817 0.000014 0.000022 -0.000036
Al -3.155435 3.579598 7.384079 0.000016 0.000005 -0.000061
Al -3.158099 3.580039 -2.664164 0.000028 -0.000002 -0.000105
Al -0.014304 -1.852996 2.378117 0.000013 0.000033 -0.000038
Al -0.021897 -1.849071 7.383248 0.000006 0.000006 -0.000076
Al -0.018262 -1.850793 -2.674713 0.000032 0.000002 -0.000080
Al -0.020512 1.771458 4.877577 0.000012 0.000004 -0.000099
Al -0.021681 1.771882 -5.176580 0.000017 0.000002 -0.000079
Al -0.019172 1.777693 -0.150214 0.000051 0.000072 0.000008
Al 3.112457 -3.658310 4.873416 0.000026 0.000013 -0.000080
Al 3.111267 -3.657255 -5.172924 0.000008 0.000010 -0.000060
Al 3.110959 -3.657665 -0.153165 0.000119 0.000004 0.000170
Al 1.547307 -0.943755 4.877461 0.000032 0.000021 -0.000070
Al 1.545551 -0.942329 -5.176601 0.000019 0.000009 -0.000071
Al 1.552133 -0.943572 -0.150544 0.000098 -0.000023 0.000139
Al 3.112277 1.770115 4.872809 0.000013 0.000022 -0.000074
Al 3.111072 1.771190 -5.171902 0.000024 0.000018 -0.000083
Al 3.110721 1.770764 -0.152764 0.000127 0.000027 0.000064
Al 6.246158 -3.660166 4.877616 -0.000002 0.000055 -0.000062
Al 6.245442 -3.658757 -5.176622 0.000014 0.000030 -0.000072
Al 6.240884 -3.664678 -0.150249 0.000048 0.000013 -0.000028
Al 4.677685 -0.943681 4.877441 0.000050 0.000009 -0.000037
Al 4.677001 -0.942305 -5.176641 0.000029 0.000028 -0.000065
Al 4.669960 -0.943625 -0.150020 0.000064 0.000048 -0.000131
Al -3.157635 1.771434 4.877335 0.000055 0.000021 -0.000064
Al -3.158798 1.771864 -5.176501 0.000040 0.000014 -0.000098
Al -3.161253 1.777919 -0.150441 -0.000003 -0.000029 0.000042
Al -0.021407 -3.660202 4.877536 0.000030 0.000033 -0.000061
Al -0.023115 -3.658790 -5.176602 0.000023 0.000019 -0.000084
Al -0.019224 -3.664666 -0.150243 0.000106 0.000024 -0.000007
Al -1.588930 -0.944200 4.873691 0.000026 0.000019 -0.000055
Al -1.590145 -0.943163 -5.174622 0.000034 0.000022 -0.000080
Ga -1.590414 -0.944183 -0.145287 0.000082 0.000000 -0.000032
N 1.545132 0.865511 4.279621 -0.000028 -0.000052 0.000108
N 1.545460 0.867381 -5.769117 -0.000028 -0.000045 0.000077
N 1.543344 0.865908 -0.746472 -0.000000 -0.000060 0.000135
N -0.021372 3.579481 4.279705 -0.000025 -0.000036 0.000116
N -0.023819 3.581188 -5.769270 -0.000011 -0.000047 0.000065
N -0.023286 3.580254 -0.747857 0.000010 -0.000048 0.000110
N 3.112787 -1.848603 4.279626 -0.000033 -0.000032 0.000093
N 3.111474 -1.848904 -5.769283 -0.000020 -0.000026 0.000054
N 3.111253 -1.848376 -0.747685 0.000007 -0.000025 0.000066
N -4.722872 0.865356 4.279524 -0.000021 -0.000044 0.000055
N -4.725507 0.867349 -5.769114 -0.000028 -0.000053 0.000075
N -4.723902 0.865874 -0.746052 0.000018 -0.000062 0.000021
N -6.290180 3.579851 4.279565 -0.000006 -0.000042 0.000079
N -6.291357 3.579185 -5.769100 -0.000011 -0.000040 0.000073
N -6.291648 3.580994 -0.746257 0.000002 -0.000052 0.000044
N -3.159749 -1.851197 4.289606 -0.000016 -0.000030 0.000042
N -3.157123 -1.847883 -5.767981 -0.000014 -0.000033 0.000069
N -3.199422 -1.872507 -0.765716 0.000067 -0.000026 0.000039
N -1.589133 0.870074 4.289523 -0.000022 -0.000015 0.000094
N -1.590336 0.866678 -5.767928 -0.000013 -0.000024 0.000077
N -1.590245 0.914573 -0.765564 -0.000045 -0.000017 -0.000019
N -3.156429 3.579410 4.279592 -0.000003 -0.000018 0.000089
N -3.156430 3.581048 -5.769284 -0.000004 -0.000014 0.000078
N -3.157477 3.580327 -0.747625 0.000022 -0.000026 0.000043
N -0.017887 -1.851281 4.289728 -0.000005 -0.000015 0.000086
N -0.022938 -1.847986 -5.767994 -0.000004 -0.000007 0.000077
N 0.018757 -1.872544 -0.765731 -0.000022 0.000014 0.000047
N -0.022363 1.770495 1.769066 0.000050 0.000010 0.000007
N -0.020866 1.770474 6.791573 -0.000021 -0.000001 0.000089
N -0.020132 1.772523 -3.263114 -0.000050 -0.000012 0.000068
N 3.112895 -3.657992 1.767933 -0.000096 0.000029 -0.000160
N 3.112667 -3.658495 6.788172 -0.000033 0.000006 0.000067
N 3.111376 -3.657335 -3.256628 -0.000036 -0.000005 0.000072
N 1.545432 -0.944422 1.769372 -0.000046 0.000044 -0.000137
N 1.546469 -0.944034 6.791580 -0.000020 0.000021 0.000077
N 1.546880 -0.941620 -3.263085 -0.000019 -0.000013 0.000090
N 3.112460 1.770447 1.767438 -0.000104 0.000001 -0.000068
N 3.112336 1.769962 6.787540 -0.000016 0.000017 0.000073
N 3.111139 1.771053 -3.255909 -0.000032 0.000006 0.000075
N 6.246698 -3.657737 1.768948 -0.000075 0.000056 0.000016
N 6.246699 -3.659453 6.791634 -0.000020 0.000017 0.000069
N 6.245711 -3.660417 -3.263198 -0.000062 0.000037 0.000071
N 4.680178 -0.944447 1.768732 -0.000035 0.000051 0.000125
N 4.678839 -0.944050 6.791570 -0.000018 0.000044 0.000067
N 4.675835 -0.941688 -3.263113 -0.000013 0.000018 0.000061
N -3.155527 1.770418 1.768865 -0.000066 -0.000017 0.000010
N -3.156972 1.770347 6.791401 -0.000017 0.000022 0.000077
N -3.160150 1.772355 -3.263028 -0.000014 0.000031 0.000070
N -0.021539 -3.657591 1.768980 -0.000110 -0.000001 0.000008
N -0.021840 -3.659515 6.791561 -0.000016 0.000022 0.000071
N -0.023257 -3.660410 -3.263153 -0.000025 0.000023 0.000065
N -1.588308 -0.944238 1.832336 -0.000222 -0.000005 -0.000008
N -1.588918 -0.944568 6.789866 0.000003 0.000041 0.000083
N -1.590170 -0.943408 -3.257439 -0.000012 0.000046 0.000054
