108
Energy=-1077520.287230 Lattice="9.480797 0.000000 0.000000 -4.757326 8.199784 0.000000 -0.000450 0.004426 15.259284" Stress="-0.000007 -0.000008 0.000002 -0.000008 0.000001 0.000005 0.000002 0.000005 0.000009" Properties=species:S:1:pos:R:3:forces:R:3
Al 1.555131 0.862120 2.375913 0.009147 -0.005541 0.013014
Al 1.544272 0.865831 7.462278 0.003732 -0.001109 -0.001786
Al 1.522814 0.852706 -2.683434 0.006849 0.003035 -0.002642
Al -0.002093 3.641550 2.374737 -0.006555 -0.021530 0.010924
Al -0.026323 3.602279 7.479179 0.002558 0.001765 0.000845
Al -0.030060 3.613977 -2.713144 0.002211 -0.003334 0.002371
Al 3.114961 -1.856733 2.366705 -0.005247 -0.004613 0.015564
Al 3.148895 -1.851814 7.487111 0.001486 -0.000990 -0.002900
Al 3.137154 -1.867142 -2.703665 0.006400 0.000525 0.000333
Al -4.773214 0.881922 2.381489 -0.001886 -0.000720 0.007088
Al -4.767470 0.871507 7.473286 -0.000678 -0.000134 -0.000552
Ga -4.759933 0.853274 -2.696379 0.000264 -0.000873 -0.000732
Al -6.368366 3.594642 2.385324 -0.004422 -0.009624 0.012802
Al -6.356617 3.596055 7.458579 -0.003042 0.002257 -0.001364
Ga -6.373392 3.610580 -2.677577 0.001533 -0.001145 0.002536
Ga -3.183343 -1.897745 2.414366 0.003239 0.002071 0.004803
Al -3.181359 -1.858201 7.469724 -0.006856 -0.005301 0.005585
Al -3.158744 -1.848760 -2.688730 -0.004249 -0.002985 -0.009759
Al -1.601661 0.866588 2.407482 0.002754 0.000357 0.005199
Al -1.603340 0.890714 7.496979 -0.001325 0.002457 0.001311
Al -1.596863 0.875090 -2.696533 -0.000559 0.000690 -0.008623
Al -3.137816 3.583611 2.391993 -0.021582 0.011005 -0.005461
Al -3.190766 3.607139 7.489811 0.000399 0.001466 0.000519
Ga -3.169183 3.607672 -2.688845 -0.001889 -0.002188 0.000707
Al -0.029106 -1.828854 2.412383 0.009608 -0.011603 0.008213
Ga -0.021160 -1.838863 7.484223 0.004590 -0.001475 -0.001613
Al -0.007220 -1.835631 -2.700456 -0.001065 -0.002673 0.002067
Al -0.030362 1.781805 4.931224 0.006085 0.002975 0.000362
Al -0.030849 1.770803 -5.249383 -0.000326 0.004692 0.003478
Ga -0.022594 1.777099 -0.113802 0.000750 0.000034 -0.005324
Ga 3.153545 -3.669350 4.931461 0.000968 0.002510 0.002913
Al 3.168087 -3.686184 -5.256047 -0.002184 0.001152 0.000794
Al 3.156625 -3.692855 -0.141125 0.001551 0.002861 -0.003544
Al 1.575839 -0.933022 4.921762 -0.002723 -0.001624 -0.004817
Al 1.574051 -0.951743 -5.235124 0.004966 0.002961 0.003825
Al 1.573781 -0.959418 -0.155235 -0.001486 0.001528 0.001568
Al 3.114241 1.777847 4.925970 -0.002585 0.002321 0.002553
Ga 3.114714 1.773909 -5.269845 0.002847 0.002302 0.003929
Al 3.130618 1.772257 -0.124769 -0.000899 0.002871 -0.004732
Al 6.316652 -3.699149 4.935421 -0.001363 -0.010031 0.010178
Al 6.291731 -3.666842 -5.245221 0.001166 -0.000241 -0.000941
Al 6.299344 -3.698226 -0.150871 0.002542 -0.001137 -0.004138
Al 4.702493 -0.930202 4.940485 0.001898 -0.008767 0.002299
Al 4.738669 -0.955235 -5.267240 -0.001422 -0.001525 0.004033
Ga 4.723512 -0.971131 -0.094336 -0.003284 0.002487 -0.013889
Ga -3.200774 1.795945 4.927500 -0.000224 -0.000436 0.005140
Al -3.173159 1.778604 -5.269556 -0.003780 0.001886 0.001616
Al -3.181295 1.788366 -0.124923 -0.004088 0.000056 -0.002944
Al -0.020309 -3.682696 4.942652 -0.002163 0.002255 -0.004444
Ga -0.014720 -3.661110 -5.246374 -0.000658 -0.004076 0.001448
Ga -0.005645 -3.671187 -0.067639 -0.006471 0.000152 -0.018880
Ga -1.606472 -0.958253 4.964104 0.001122 0.001679 -0.000894
Al -1.596091 -0.929466 -5.237346 -0.004454 -0.000618 0.001242
Ga -1.595883 -0.939388 -0.138429 0.000341 -0.001625 -0.002583
N 1.535399 0.874514 4.320387 0.004883 0.000716 -0.001300
N 1.510402 0.843812 -5.868962 -0.002676 -0.003415 -0.005891
N 1.587301 0.843339 -0.763004 0.001554 -0.000359 -0.000169
N 0.006345 3.593717 4.315758 0.001012 -0.002601 -0.005858
N -0.023122 3.601196 -5.850985 0.000138 -0.002105 0.000054
N -0.028505 3.632927 -0.768581 -0.001510 0.002431 -0.002356
N 3.142704 -1.810976 4.308776 -0.000801 0.000205 -0.006598
N 3.150370 -1.858177 -5.849315 -0.002173 0.000340 -0.001177
N 3.112913 -1.887436 -0.759576 -0.000942 -0.002920 -0.004505
N -4.811409 0.859127 4.318688 0.001074 -0.000475 -0.005695
N -4.741282 0.851162 -5.871572 0.004908 0.000010 -0.001286
N -4.764661 0.903518 -0.708644 0.002825 0.001697 0.002603
N -6.350553 3.603403 4.331498 -0.000582 -0.002279 -0.001435
N -6.390951 3.634705 -5.898099 -0.001623 0.001141 0.002799
N -6.380739 3.586836 -0.700769 -0.001071 -0.003466 -0.002167
N -3.211985 -1.929823 4.391218 -0.006289 0.018003 -0.005601
N -3.168417 -1.854002 -5.855591 0.001428 -0.000698 -0.000384
N -3.177889 -1.906339 -0.790541 0.001264 -0.000433 0.006594
N -1.579008 0.898885 4.315175 -0.002542 -0.001824 -0.002875
N -1.606223 0.882753 -5.840283 0.002651 -0.001765 -0.003428
N -1.656148 0.908956 -0.801682 0.002241 -0.001840 0.005659
N -3.227722 3.640075 4.266983 -0.000011 -0.000123 0.006629
N -3.161356 3.599879 -5.856923 0.003955 -0.002618 -0.001306
N -3.156814 3.592636 -0.698566 0.001710 -0.002599 0.001811
N 0.008981 -1.864592 4.341004 0.004270 -0.003394 -0.003321
N -0.001161 -1.790033 -5.809375 -0.004276 -0.001775 -0.000666
N 0.015961 -1.829286 -0.773475 0.002577 -0.000722 -0.005761
N -0.001439 1.718191 1.865734 -0.012280 0.025488 -0.008557
N -0.025862 1.784386 6.873210 -0.002181 -0.001258 -0.003329
N -0.026119 1.778490 -3.309430 0.000737 0.002123 0.001186
N 3.167770 -3.682438 1.782336 -0.002659 -0.000745 -0.000192
N 3.147178 -3.682825 6.916167 -0.000241 -0.000012 0.001639
N 3.187660 -3.669788 -3.325900 0.000468 0.003468 -0.002423
N 1.553894 -0.958337 1.778469 -0.000489 -0.000811 -0.002212
N 1.610435 -0.949169 6.802214 -0.001771 0.007621 0.015667
N 1.573263 -0.954983 -3.303328 -0.000783 0.001038 -0.001368
N 3.128783 1.778061 1.788210 0.001365 -0.002359 0.001861
N 3.128914 1.778861 6.868142 0.000352 -0.001486 -0.002103
N 3.094182 1.756417 -3.296037 -0.004125 -0.002034 0.001003
N 6.320310 -3.754306 1.754835 -0.008334 0.008263 -0.000559
N 6.306765 -3.683040 6.868126 -0.000733 -0.000876 -0.001131
N 6.271734 -3.654506 -3.317046 -0.001243 0.001099 -0.004029
N 4.658828 -0.960034 1.854606 0.012998 0.009348 -0.003241
N 4.726683 -0.946468 6.875299 -0.002365 0.000451 -0.002801
N 4.734153 -1.007938 -3.341979 -0.002369 0.000978 0.004769
N -3.165378 1.772314 1.797013 -0.004027 -0.000998 -0.000427
N -3.185080 1.790444 6.912530 -0.000821 0.000955 0.001187
N -3.146047 1.761046 -3.359812 -0.000156 -0.000197 0.002879
N -0.155716 -3.642374 1.837055 0.047081 -0.003012 0.012754
N -0.017960 -3.708594 6.872878 0.002207 -0.004990 -0.006079
N -0.013086 -3.645474 -3.279857 -0.000275 0.003400 0.001627
N -1.546062 -0.940627 1.842161 -0.017714 0.008551 -0.004320
N -1.655528 -0.916567 6.932801 0.005758 0.003206 -0.004101
N -1.584573 -0.939880 -3.304603 -0.001932 -0.000777 0.001235
