108
Energy=-2.725439e+06 Lattice="9.692964e+00 0.000000e+00 0.000000e+00 -4.868722e+00 8.381801e+00 0.000000e+00 -6.612192e-02 -1.204319e-02 1.574546e+01" Stress="2.133512e-03 -8.372656e-04 -2.424897e-03 -8.448176e-04 6.885984e-04 -6.132154e-04 -2.428768e-03 -6.137861e-04 5.881987e-03" Properties=species:S:1:pos:R:3:forces:R:3 Config_type=AlGaN_super3_50_1_6.xyz
Al 1.570444e+00 9.028218e-01 2.492089e+00 1.388901e-03 1.080969e-03 3.227548e-05
Ga 1.555238e+00 8.927898e-01 7.720249e+00 8.959374e-04 -4.345837e-04 8.567368e-04
Ga 1.603952e+00 8.836727e-01 -2.781102e+00 1.173116e-03 -1.147099e-04 1.125673e-03
Ga -4.668495e-02 3.688710e+00 2.483049e+00 8.096491e-04 -4.215693e-05 -2.764186e-04
Al -6.611724e-02 3.676957e+00 7.719077e+00 5.312416e-04 3.816469e-06 1.548673e-03
Ga -1.627421e-02 3.673170e+00 -2.777585e+00 6.954877e-04 1.554136e-04 1.206758e-03
Ga 3.195936e+00 -1.882796e+00 2.491633e+00 1.248060e-03 -4.158794e-04 -5.556216e-04
Ga 3.190429e+00 -1.905354e+00 7.720075e+00 4.166657e-04 -6.108346e-04 9.873143e-04
Ga 3.234078e+00 -1.912448e+00 -2.781264e+00 6.712083e-04 -1.047970e-04 9.683463e-04
Ga -4.904653e+00 9.084021e-01 2.482180e+00 1.369023e-03 -7.447793e-04 -7.022158e-04
Al -4.911441e+00 8.853707e-01 7.720027e+00 5.537094e-04 1.570246e-03 1.436469e-03
Ga -4.861896e+00 8.870383e-01 -2.776267e+00 5.314169e-04 -2.102369e-04 1.099229e-03
Ga -6.519196e+00 3.690873e+00 2.490951e+00 5.884553e-04 1.621772e-04 -6.816987e-04
Ga -6.534375e+00 3.672412e+00 7.721465e+00 -6.252106e-05 3.178681e-04 3.556978e-04
Ga -6.478965e+00 3.675390e+00 -2.780008e+00 -6.516378e-06 9.113733e-05 9.232720e-04
Ga -3.257193e+00 -1.884595e+00 2.472061e+00 -4.617950e-05 -5.519017e-04 7.037888e-04
Ga -3.288963e+00 -1.902213e+00 7.722969e+00 3.910430e-04 -8.079988e-04 9.285898e-04
Ga -3.223982e+00 -1.904197e+00 -2.771792e+00 -1.385689e-04 -6.069496e-04 1.547882e-03
Ga -1.657268e+00 9.021436e-01 2.467227e+00 1.584769e-03 -8.543993e-04 8.030658e-04
Ga -1.688383e+00 9.002196e-01 7.722521e+00 2.067319e-03 -4.761158e-04 -1.329578e-04
Ga -1.631434e+00 8.844853e-01 -2.767191e+00 1.423130e-03 -3.811079e-05 3.275068e-04
Ga -3.282649e+00 3.703789e+00 2.494976e+00 9.915751e-04 -6.540517e-04 -1.333700e-03
Ga -3.299812e+00 3.675960e+00 7.726087e+00 1.155480e-03 3.485186e-04 -6.477304e-05
Ga -3.248439e+00 3.681561e+00 -2.781390e+00 5.774530e-04 -1.530786e-04 -3.922999e-05
Ga -3.853800e-02 -1.871626e+00 2.465553e+00 2.095753e-03 -1.031191e-03 2.578651e-04
Ga -5.242312e-02 -1.899475e+00 7.723291e+00 9.887908e-04 -8.089918e-04 1.243292e-03
Ga -5.465069e-03 -1.898884e+00 -2.758145e+00 1.239935e-03 -9.566624e-04 1.756449e-03
Ga -5.011850e-02 1.823308e+00 5.099971e+00 -3.541193e-04 2.155692e-04 9.904466e-04
Ga -3.041008e-03 1.824747e+00 -5.412307e+00 -7.035716e-04 1.090168e-03 1.312055e-03
Ga -1.631654e-02 1.788996e+00 -1.428799e-01 -1.217287e-03 2.169434e-03 3.582338e-03
Ga 3.201723e+00 -3.768358e+00 5.119298e+00 -7.731936e-04 6.324131e-04 4.939220e-04
Ga 3.254535e+00 -3.771306e+00 -5.412925e+00 -3.132128e-04 2.938732e-04 6.681982e-04
Ga 3.230724e+00 -3.786908e+00 -1.491878e-01 -1.099049e-03 1.716540e-03 2.592994e-03
Ga 1.574256e+00 -9.680402e-01 5.094731e+00 -1.085059e-03 1.688883e-03 2.558775e-04
Ga 1.627341e+00 -9.761124e-01 -5.395919e+00 -1.026458e-03 9.814613e-04 3.345458e-04
Ga 1.607991e+00 -9.861442e-01 -1.382197e-01 -2.110056e-03 1.573063e-03 3.059613e-03
Ga 3.173525e+00 1.818140e+00 5.103498e+00 -5.807863e-04 5.524855e-04 1.875301e-03
Ga 3.231869e+00 1.817472e+00 -5.415921e+00 2.085005e-04 4.780375e-04 1.235730e-03
Ga 3.204613e+00 1.800536e+00 -1.366114e-01 -8.004487e-04 1.875681e-03 1.952708e-03
Ga 6.417254e+00 -3.762095e+00 5.114359e+00 6.018648e-04 1.177606e-04 5.534824e-04
Ga 6.468847e+00 -3.767465e+00 -5.411255e+00 -2.277392e-05 5.387198e-06 1.128928e-03
Ga 6.464494e+00 -3.776040e+00 -1.543709e-01 -6.734371e-04 1.608124e-03 3.787745e-03
Ga 4.807492e+00 -9.623850e-01 5.114744e+00 -4.972193e-04 3.464314e-04 3.649920e-04
Ga 4.857465e+00 -9.654043e-01 -5.408808e+00 -4.930011e-04 1.060672e-03 7.592249e-04
Ga 4.848212e+00 -9.910011e-01 -1.552826e-01 -1.089205e-03 1.243961e-03 4.120686e-03
Ga -3.292527e+00 1.823757e+00 5.109591e+00 -2.213882e-04 4.934345e-04 1.449209e-03
Ga -3.242435e+00 1.820909e+00 -5.412603e+00 -8.550467e-04 3.133584e-04 1.733597e-03
Ga -3.248437e+00 1.801111e+00 -1.592518e-01 -1.457648e-03 1.932352e-03 4.732921e-03
Ga -3.998388e-02 -3.754331e+00 5.103509e+00 -4.852961e-04 -8.313974e-05 8.590659e-04
Ga 1.236249e-02 -3.757275e+00 -5.398073e+00 -5.067566e-04 -1.876567e-04 1.148760e-03
Ga -7.868583e-03 -3.773376e+00 -1.534601e-01 -8.824245e-04 1.623064e-03 3.711901e-03
Ga -1.657346e+00 -9.649811e-01 5.100359e+00 -9.778116e-04 5.830424e-04 1.881120e-03
Ga -1.603863e+00 -9.673155e-01 -5.400719e+00 -1.199709e-03 4.716705e-04 1.393204e-03
Al -1.626660e+00 -9.747655e-01 -1.403914e-01 -1.254965e-03 -2.451985e-03 -2.933579e-03
N 1.559955e+00 8.974905e-01 4.424554e+00 8.493873e-04 -6.346333e-04 -2.180889e-03
N 1.610266e+00 8.903471e-01 -6.039729e+00 7.970935e-04 -6.072071e-04 -5.942895e-04
N 1.596028e+00 8.738504e-01 -7.956711e-01 9.460537e-04 -1.357974e-04 -4.996073e-04
N -5.891401e-02 3.688470e+00 4.465378e+00 2.131634e-04 -1.412179e-04 -6.648752e-04
N -6.183399e-03 3.683985e+00 -6.093404e+00 2.908865e-04 -2.781884e-04 -2.131195e-03
N -2.320950e-02 3.662952e+00 -7.889430e-01 2.963301e-04 -1.280895e-04 5.725662e-04
N 3.193293e+00 -1.900091e+00 4.478600e+00 5.965908e-04 -7.661818e-04 -3.010608e-04
N 3.241598e+00 -1.900568e+00 -6.038833e+00 3.833468e-04 -3.724292e-04 -5.601072e-04
N 3.223208e+00 -1.919427e+00 -7.927582e-01 2.498654e-04 9.964740e-05 9.699015e-04
N -4.903725e+00 8.976498e-01 4.463726e+00 7.228834e-04 -3.383157e-04 -7.351907e-04
N -4.850739e+00 8.943292e-01 -6.093908e+00 5.084496e-04 -6.399278e-04 -1.870418e-03
N -4.871722e+00 8.777295e-01 -7.895237e-01 5.761195e-04 1.594476e-04 1.245987e-04
N -6.524139e+00 3.689712e+00 4.479494e+00 -6.522485e-05 3.888720e-05 -9.626560e-04
N -6.468773e+00 3.688553e+00 -6.037463e+00 -8.178196e-05 1.035525e-06 -8.119049e-04
N -6.486354e+00 3.665460e+00 -7.905887e-01 1.411089e-04 8.979560e-05 -1.225080e-04
N -3.271442e+00 -1.894613e+00 4.468148e+00 6.625242e-05 -5.226467e-04 -1.394547e-03
N -3.219958e+00 -1.897686e+00 -6.036901e+00 1.943323e-04 -4.117186e-04 -8.480322e-04
N -3.197054e+00 -1.892044e+00 -7.726336e-01 1.640279e-03 6.134220e-04 -8.563187e-04
N -1.675022e+00 8.995942e-01 4.463150e+00 1.141745e-03 -5.413147e-04 -1.269570e-03
N -1.623163e+00 8.989147e-01 -6.039400e+00 1.089351e-03 -9.168068e-04 -8.489560e-04
N -1.638053e+00 8.318649e-01 -7.697142e-01 1.380951e-03 7.318193e-04 -4.266491e-04
N -3.290057e+00 3.694419e+00 4.480788e+00 6.031484e-04 -4.616749e-04 -7.205939e-04
N -3.241814e+00 3.692089e+00 -6.035260e+00 2.424786e-04 -4.919207e-04 -5.549105e-04
N -3.257260e+00 3.674079e+00 -7.965142e-01 2.141992e-04 -3.468566e-04 5.778561e-04
N -4.816158e-02 -1.889112e+00 4.455799e+00 8.863833e-04 -9.768907e-04 -1.324729e-03
N 8.332705e-03 -1.893456e+00 -6.036472e+00 6.221885e-04 -8.428747e-04 -1.234919e-03
N -4.958499e-02 -1.883938e+00 -7.579943e-01 -5.456232e-05 2.746678e-05 -8.341446e-04
N 4.244572e-03 1.807956e+00 1.866299e+00 -9.020703e-04 -1.433590e-03 -3.179703e-03
N -5.692132e-02 1.859375e+00 7.097254e+00 -1.474411e-03 1.586895e-03 -4.071730e-04
N -1.013038e-02 1.812111e+00 -3.419846e+00 -1.287481e-03 4.167217e-04 -7.090788e-04
N 3.206944e+00 -3.751683e+00 1.847503e+00 -4.656006e-04 -9.965173e-04 -2.446704e-03
N 3.229460e+00 -3.794989e+00 7.109424e+00 -4.617635e-05 -3.298771e-04 4.509577e-05
N 3.244230e+00 -3.777267e+00 -3.423150e+00 -7.805915e-04 3.480288e-04 -8.941735e-04
N 1.592479e+00 -9.043014e-01 1.873301e+00 -1.361600e-03 -2.271923e-03 -4.285201e-03
N 1.569878e+00 -9.769377e-01 7.081207e+00 -1.015919e-03 7.348855e-04 -1.101032e-03
N 1.619765e+00 -9.830147e-01 -3.409701e+00 -1.457878e-03 2.279241e-04 -6.899998e-04
N 3.142736e+00 1.813560e+00 1.863467e+00 -7.069827e-04 -1.481723e-03 -1.299013e-03
N 3.206938e+00 1.791507e+00 7.099578e+00 9.277023e-04 -2.268832e-04 -7.107660e-04
N 3.222455e+00 1.812865e+00 -3.425099e+00 -4.611656e-04 2.757119e-04 -1.311893e-03
N 6.434853e+00 -3.750957e+00 1.847168e+00 3.357396e-04 -1.438786e-03 -3.797494e-03
N 6.376359e+00 -3.790257e+00 7.107728e+00 -9.751000e-04 -4.575072e-04 -6.011481e-04
N 6.465948e+00 -3.771595e+00 -3.416660e+00 -1.586749e-04 1.495445e-04 -1.048342e-03
N 4.816184e+00 -9.573588e-01 1.847604e+00 -3.325795e-04 -8.525769e-04 -4.120960e-03
N 4.799096e+00 -9.232780e-01 7.107265e+00 -5.283070e-04 -6.350940e-04 -1.460182e-03
N 4.852255e+00 -9.751524e-01 -3.416382e+00 -6.384765e-04 -2.637336e-04 -1.056178e-03
N -3.276755e+00 1.840769e+00 1.845587e+00 -2.277024e-05 -1.347004e-03 -3.673992e-03
N -3.335660e+00 1.796509e+00 7.103596e+00 -1.596144e-03 -2.790255e-04 -6.775858e-04
N -3.243629e+00 1.814083e+00 -3.418153e+00 -3.223738e-04 2.947871e-04 -7.120604e-04
N -2.744791e-02 -3.749088e+00 1.850891e+00 -3.591830e-04 -1.401345e-03 -3.380518e-03
N -4.647360e-02 -3.765272e+00 7.088921e+00 -1.889407e-04 -1.038193e-04 -9.177109e-04
N 5.307756e-03 -3.764128e+00 -3.407841e+00 -3.235407e-04 2.827299e-04 -6.723110e-04
N -1.646085e+00 -9.611377e-01 1.771774e+00 -1.339940e-03 1.773478e-03 3.444623e-03
N -1.664462e+00 -9.716121e-01 7.086383e+00 -1.157800e-03 6.331624e-04 -9.096789e-04
N -1.610401e+00 -9.740931e-01 -3.413933e+00 -1.075531e-03 1.319073e-04 -1.290926e-03
