108
Energy=-757092.566544 Lattice="9.436006 0.000000 0.000000 -4.724018 8.168739 0.000000 -0.002441 -0.000446 15.158116" Stress="0.000002 -0.000002 -0.000001 -0.000002 -0.000001 0.000000 -0.000001 0.000000 0.000003" Properties=species:S:1:pos:R:3:forces:R:3
Al 1.550336 0.877038 2.374247 -0.000103 -0.001010 -0.000730
Al 1.545629 0.875603 7.436072 0.000451 0.000228 0.000268
Al 1.554149 0.874803 -2.683549 -0.000004 -0.000038 0.000728
Al -0.032912 3.586979 2.394724 0.000515 0.000464 -0.000859
Al -0.026529 3.584459 7.406215 0.000141 0.000122 -0.000443
Al -0.024973 3.582265 -2.666680 -0.001288 -0.001024 0.000883
Al 3.130917 -1.858514 2.369973 -0.000339 -0.000190 0.000333
Al 3.132147 -1.854044 7.426720 0.000278 -0.000224 0.000103
Al 3.136252 -1.846976 -2.668789 -0.000451 -0.000139 0.000511
Al -4.743012 0.869267 2.380315 0.000310 0.000409 -0.000160
Al -4.745786 0.867086 7.423686 0.000439 0.000154 0.000567
Al -4.741682 0.869245 -2.683932 0.000394 0.000463 0.000415
Al -6.315339 3.581628 2.414255 -0.000763 0.001091 -0.001192
Al -6.313706 3.587431 7.412750 -0.000198 0.000176 -0.000078
Al -6.316484 3.575432 -2.692806 0.002007 -0.000317 0.001868
Al -3.175138 -1.847686 2.411453 0.000726 0.000033 -0.000279
Al -3.169124 -1.848517 7.412901 -0.000010 -0.000237 -0.000090
Al -3.180920 -1.845101 -2.689924 0.001397 0.000810 0.000337
Al -1.596418 0.878700 2.396885 -0.000164 0.000129 0.000251
Al -1.598684 0.872260 7.421140 0.000056 -0.000174 0.000354
Al -1.603417 0.884312 -2.693395 0.000581 -0.000741 0.000654
Al -3.162479 3.586304 2.396970 -0.000028 0.000389 0.000002
Al -3.176366 3.590463 7.411446 -0.000064 -0.000470 0.000188
Al -3.168088 3.577292 -2.678173 -0.000286 0.000044 0.000345
Al -0.020449 -1.851064 2.399629 0.000676 0.000347 -0.000552
Al -0.027903 -1.856124 7.438148 -0.000087 -0.000438 -0.000218
Ga -0.017540 -1.850910 -2.695453 -0.000001 -0.000334 0.000299
Al -0.029139 1.779954 4.905440 -0.000149 0.000054 0.000232
Al -0.023607 1.760869 -5.209795 -0.000010 -0.000023 0.000328
Al -0.028387 1.773352 -0.148314 0.000974 -0.000032 0.000564
Al 3.128758 -3.677659 4.907848 -0.000113 0.000697 0.000180
Ga 3.120455 -3.672278 -5.204592 -0.000493 0.000552 0.000274
Al 3.125573 -3.673199 -0.148427 0.000301 0.000339 -0.000828
Ga 1.554887 -0.946205 4.911532 -0.000511 0.000257 0.000471
Al 1.557507 -0.936914 -5.221195 -0.000329 -0.000013 0.000207
Al 1.571396 -0.935735 -0.134147 -0.000451 0.000506 -0.000221
Al 3.122639 1.778635 4.908487 0.000195 -0.000371 0.000339
Al 3.126026 1.767010 -5.211798 -0.000115 -0.000132 0.000207
Al 3.120958 1.763815 -0.150123 0.000308 -0.001641 0.000588
Al 6.267356 -3.670491 4.907823 0.000097 0.000069 -0.000160
Ga 6.279889 -3.670602 -5.205028 0.000090 0.000104 -0.000682
Ga 6.264787 -3.677691 -0.138466 -0.000348 0.000174 -0.000881
Al 4.701775 -0.943975 4.904676 -0.000555 0.000037 0.000371
Al 4.697837 -0.930017 -5.209026 -0.000347 -0.000429 0.000348
Al 4.684758 -0.935192 -0.143801 0.001475 -0.000952 -0.001203
Al -3.173390 1.775179 4.905762 -0.000114 0.000084 0.000281
Al -3.175924 1.770005 -5.216947 -0.000067 -0.000007 0.000214
Al -3.168295 1.774856 -0.143902 -0.000043 -0.000337 -0.001133
Al -0.024832 -3.674631 4.906766 0.000417 0.000161 -0.000128
Al -0.018558 -3.677003 -5.219864 0.000065 0.000292 0.000284
Ga -0.005032 -3.688262 -0.124039 -0.000484 0.000341 -0.000655
Al -1.602642 -0.942351 4.910274 -0.000238 0.000161 0.000114
Al -1.595199 -0.933114 -5.222145 -0.000122 -0.000197 0.000496
Ga -1.601284 -0.927813 -0.127704 -0.000282 0.000057 -0.000857
N 1.546963 0.918026 4.284460 0.000434 -0.000259 -0.000074
N 1.548402 0.874228 -5.807678 0.000374 0.000305 -0.000166
N 1.546338 0.868296 -0.750717 0.000521 0.000219 -0.000457
N -0.029937 3.588964 4.312900 0.000297 0.000005 -0.000260
N -0.023663 3.541613 -5.849253 0.000051 0.000216 0.000858
N -0.063748 3.564126 -0.758157 -0.000265 -0.000267 -0.000003
N 3.166341 -1.879722 4.284200 0.000113 -0.000184 -0.000118
N 3.132738 -1.810284 -5.825261 0.000318 -0.000239 -0.000109
N 3.124968 -1.851727 -0.740995 0.000481 -0.000228 -0.000407
N -4.745604 0.868449 4.301694 0.000321 0.000424 -0.000342
N -4.743386 0.868133 -5.813755 0.000313 0.000389 -0.000377
N -4.741108 0.870137 -0.753127 0.000290 0.000005 -0.000233
N -6.318321 3.586401 4.324493 -0.000287 0.000241 -0.000045
N -6.275597 3.564063 -5.833462 -0.000370 -0.000016 -0.000070
N -6.310014 3.538375 -0.782390 -0.000401 0.001736 -0.000715
N -3.171148 -1.852185 4.323637 0.000342 -0.000094 -0.000148
N -3.169019 -1.807077 -5.831224 -0.000058 -0.000126 -0.000165
N -3.203447 -1.830547 -0.786489 -0.001959 0.001067 0.001897
N -1.600066 0.874283 4.313922 0.000142 -0.000128 -0.000320
N -1.597946 0.874986 -5.816307 0.000242 0.000012 -0.000363
N -1.596058 0.915052 -0.774986 -0.001193 0.001144 -0.000337
N -3.168682 3.591586 4.315027 -0.000196 -0.000658 -0.000141
N -3.209875 3.567147 -5.836445 0.000384 -0.000367 -0.000284
N -3.130852 3.564574 -0.765262 0.000120 -0.000543 -0.000151
N -0.063565 -1.873082 4.303291 0.000670 -0.000373 0.000095
N -0.022837 -1.854401 -5.797863 0.000070 -0.000338 -0.000077
N 0.019432 -1.830777 -0.724198 0.000354 -0.000755 -0.000991
N -0.026341 1.776468 1.778848 -0.000143 0.000226 -0.000305
N -0.024150 1.768894 6.818951 -0.000009 0.000427 -0.000309
N -0.020466 1.774452 -3.288276 -0.000066 0.000469 -0.000088
N 3.125419 -3.674872 1.774347 0.000103 0.000179 0.001057
N 3.123449 -3.669582 6.825384 0.000173 0.000492 -0.000361
N 3.128041 -3.669213 -3.225730 0.000240 0.000491 -0.000298
N 1.555232 -0.946881 1.786030 -0.000219 0.001014 0.001736
N 1.551041 -0.946652 6.887634 -0.000296 0.000115 -0.000477
N 1.602252 -0.921416 -3.305655 -0.000375 0.000024 -0.000428
N 3.124549 1.779172 1.776275 -0.000233 0.000129 -0.000180
N 3.118749 1.770811 6.824795 -0.000179 -0.000070 -0.000352
N 3.122450 1.771143 -3.291005 -0.000142 -0.000253 -0.000136
N 6.270704 -3.664542 1.841157 0.000889 -0.001510 0.002621
N 6.270399 -3.668946 6.825512 0.000110 0.000004 -0.000007
N 6.270808 -3.671672 -3.222599 -0.000484 0.000470 -0.002445
N 4.699967 -0.943240 1.777290 0.000129 -0.000319 0.000336
N 4.694722 -0.943233 6.818531 -0.000269 -0.000153 -0.000365
N 4.693996 -0.942330 -3.288308 -0.000355 -0.000267 -0.000315
N -3.168795 1.776492 1.780191 -0.000089 -0.000118 0.001009
N -3.173354 1.773066 6.822374 -0.000243 0.000095 -0.000211
N -3.172675 1.776033 -3.294824 -0.000443 0.000004 -0.000091
N -0.017703 -3.672880 1.851422 -0.000761 -0.001014 0.000652
N -0.021249 -3.665369 6.822020 -0.000079 0.000116 -0.000002
N -0.017069 -3.720628 -3.306089 -0.000080 0.000210 -0.000084
N -1.597641 -0.939841 1.847437 -0.000962 -0.000874 0.000714
N -1.591433 -0.943526 6.828896 -0.000391 -0.000164 -0.000050
N -1.636535 -0.918406 -3.307570 -0.000272 -0.000186 -0.000376
