108
Energy=-2.405010e+06 Lattice="9.638091e+00 0.000000e+00 0.000000e+00 -4.819083e+00 8.345660e+00 0.000000e+00 -1.017831e-04 1.124123e-03 1.563469e+01" Stress="-7.049285e-06 -2.481853e-05 -9.490265e-06 -2.325238e-05 -3.680146e-05 8.564259e-06 2.445212e-07 8.412462e-06 -5.275303e-05" Properties=species:S:1:pos:R:3:forces:R:3 Config_type=AlGaN_super3_43_1_12.xyz
Al 1.583852e+00 8.862976e-01 2.468655e+00 2.115720e-05 -9.284557e-07 6.049104e-05
Al 1.576865e+00 8.900175e-01 7.680242e+00 -3.403758e-06 -9.035249e-06 5.923386e-06
Ga 1.576490e+00 8.929814e-01 -2.772711e+00 1.338257e-06 3.510107e-05 9.092641e-05
Ga -2.570362e-02 3.664580e+00 2.448777e+00 -2.129972e-05 1.304894e-05 9.711169e-05
Al -1.663646e-02 3.654307e+00 7.681562e+00 -5.393503e-06 1.572512e-05 3.026550e-06
Ga -2.821091e-02 3.658923e+00 -2.750216e+00 -2.841682e-05 1.238070e-05 3.928608e-05
Ga 3.188983e+00 -1.890976e+00 2.448022e+00 1.774915e-05 5.379128e-07 6.935966e-05
Ga 3.183745e+00 -1.883760e+00 7.667715e+00 -2.392947e-05 2.081123e-06 2.432138e-05
Ga 3.193828e+00 -1.897110e+00 -2.739026e+00 -3.010796e-06 -1.942563e-06 2.567242e-05
Ga -4.848143e+00 8.849767e-01 2.460192e+00 3.833824e-06 1.978569e-05 9.521766e-05
Al -4.844609e+00 8.908241e-01 7.657450e+00 1.334847e-06 8.140788e-06 5.656165e-06
Ga -4.845915e+00 8.834128e-01 -2.738257e+00 3.429689e-06 1.756310e-05 6.210371e-05
Ga -6.454491e+00 3.658602e+00 2.471892e+00 3.606509e-05 -8.443594e-06 1.432145e-04
Ga -6.448928e+00 3.665762e+00 7.677790e+00 -6.245612e-08 4.533654e-06 6.821085e-05
Ga -6.438712e+00 3.669200e+00 -2.772714e+00 1.964865e-06 -1.220526e-05 1.030664e-04
Ga -3.233444e+00 -1.886783e+00 2.444735e+00 1.035607e-07 2.697070e-05 6.181684e-05
Ga -3.238036e+00 -1.894367e+00 7.673040e+00 -6.933971e-06 1.005485e-05 2.312977e-05
Ga -3.234713e+00 -1.886702e+00 -2.739722e+00 -1.930515e-05 7.659317e-06 4.186723e-05
Ga -1.624410e+00 8.830904e-01 2.471705e+00 -3.377659e-05 1.036158e-05 9.454965e-05
Ga -1.621709e+00 8.968070e-01 7.666185e+00 -1.924017e-05 3.475626e-06 7.117310e-05
Ga -1.617691e+00 8.879908e-01 -2.761910e+00 -1.534382e-05 1.393877e-05 8.135194e-05
Ga -3.227374e+00 3.667128e+00 2.470097e+00 -2.230967e-05 -9.681387e-06 1.017942e-04
Ga -3.241765e+00 3.664694e+00 7.672516e+00 -1.847314e-05 -3.836925e-06 2.995809e-05
Ga -3.238611e+00 3.677721e+00 -2.760684e+00 -8.549780e-06 -1.428959e-05 8.502058e-05
Ga -2.403778e-02 -1.879393e+00 2.448812e+00 -4.223163e-05 -2.564625e-05 8.270903e-05
Al -1.708234e-02 -1.890293e+00 7.681050e+00 3.908510e-06 -6.542905e-06 -9.308175e-06
Ga -2.592433e-02 -1.899119e+00 -2.749545e+00 -3.952360e-05 -1.284005e-05 4.497959e-05
Ga -2.055505e-02 1.815264e+00 5.075456e+00 1.439439e-05 3.398152e-05 1.861886e-05
Al -1.807475e-02 1.819059e+00 -5.386932e+00 -5.055808e-06 -1.085417e-06 3.334515e-05
Ga -2.884500e-02 1.808136e+00 -1.305149e-01 5.430217e-05 -1.769492e-05 -7.247554e-05
Ga 3.190230e+00 -3.760534e+00 5.085295e+00 3.280016e-05 2.044342e-05 4.667488e-05
Ga 3.191990e+00 -3.761788e+00 -5.374846e+00 2.136581e-05 1.771878e-05 5.880651e-05
Al 3.191541e+00 -3.742436e+00 -1.483159e-01 3.361785e-06 -1.668859e-05 3.811416e-05
Ga 1.576148e+00 -9.572265e-01 5.079342e+00 3.162942e-05 -2.390085e-05 6.894861e-05
Ga 1.568067e+00 -9.669940e-01 -5.376460e+00 2.381948e-05 -1.680304e-05 5.328105e-05
Ga 1.588686e+00 -9.687789e-01 -1.421612e-01 -9.589899e-06 1.847064e-05 -4.061263e-05
Ga 3.191592e+00 1.802969e+00 5.085134e+00 2.399107e-05 2.840144e-06 2.825929e-05
Ga 3.189395e+00 1.812611e+00 -5.389909e+00 7.298078e-06 -3.851588e-06 5.295226e-05
Ga 3.187902e+00 1.805152e+00 -1.351676e-01 -2.270503e-05 -1.449864e-05 -6.162127e-05
Ga 6.394800e+00 -3.750287e+00 5.079641e+00 -6.943707e-06 1.193961e-05 6.291909e-05
Ga 6.398721e+00 -3.760774e+00 -5.364466e+00 2.598109e-06 -9.138371e-07 5.635373e-05
Ga 6.395517e+00 -3.734874e+00 -1.544525e-01 1.283560e-05 3.446076e-06 -1.665337e-04
Ga 4.801017e+00 -9.545082e-01 5.072626e+00 6.646385e-06 -3.490172e-05 3.152969e-05
Ga 4.795705e+00 -9.581876e-01 -5.367201e+00 -8.035281e-06 -4.094163e-05 4.348845e-05
Al 4.800295e+00 -9.753196e-01 -1.432692e-01 8.656005e-06 1.468068e-05 6.109021e-05
Al -3.240397e+00 1.812344e+00 5.078057e+00 -9.840057e-06 1.172223e-06 2.798066e-05
Ga -3.239015e+00 1.817504e+00 -5.365924e+00 2.348013e-05 7.046589e-07 3.141507e-05
Ga -3.228575e+00 1.809219e+00 -1.527088e-01 2.707357e-05 -3.898622e-05 -1.041452e-04
Ga -1.703069e-02 -3.748945e+00 5.074728e+00 4.238228e-06 -4.838309e-06 5.569919e-05
Al -2.132321e-02 -3.740207e+00 -5.373362e+00 6.786289e-06 -7.939564e-06 1.880301e-05
Ga -1.691419e-02 -3.744220e+00 -1.403536e-01 9.268466e-06 8.738961e-06 -7.157590e-05
Ga -1.629066e+00 -9.613591e-01 5.085141e+00 6.643061e-06 -3.579152e-05 1.784092e-05
Ga -1.614498e+00 -9.702818e-01 -5.376219e+00 9.250678e-06 -2.545964e-05 4.691211e-05
Al -1.638455e+00 -9.633844e-01 -1.495565e-01 2.446025e-05 -1.049036e-05 3.639935e-05
N 1.584028e+00 8.881091e-01 4.388457e+00 1.561796e-06 -4.097999e-06 -6.292759e-05
N 1.540139e+00 9.092686e-01 -6.031792e+00 2.984025e-05 3.237890e-06 -4.826156e-05
N 1.579157e+00 8.895998e-01 -7.964428e-01 -1.590010e-05 3.794302e-05 -1.199078e-04
N -2.629425e-02 3.669469e+00 4.423919e+00 4.274787e-06 -5.975565e-06 -5.259599e-05
N -2.131274e-02 3.619957e+00 -6.032230e+00 -1.071812e-05 2.550399e-05 -1.511815e-05
N -6.695208e-02 3.684849e+00 -7.627275e-01 1.278066e-05 -9.648541e-06 -7.635060e-05
N 3.188296e+00 -1.896364e+00 4.438974e+00 -3.125084e-06 1.143479e-05 -1.767897e-05
N 3.188388e+00 -1.894052e+00 -5.995611e+00 2.173928e-05 3.455727e-06 -3.381261e-05
N 3.232612e+00 -1.918349e+00 -7.420243e-01 -1.855631e-05 3.743676e-06 -4.892083e-05
N -4.801708e+00 9.134110e-01 4.445820e+00 -2.589479e-05 -9.453613e-06 -5.004956e-05
N -4.836409e+00 8.880983e-01 -6.060640e+00 2.081506e-06 8.178131e-06 -3.543231e-05
N -4.844910e+00 8.382845e-01 -7.557214e-01 -1.991524e-06 1.999502e-05 -8.150988e-05
N -6.449995e+00 3.665089e+00 4.452780e+00 -1.112017e-05 1.875057e-06 -7.575097e-05
N -6.405827e+00 3.695231e+00 -5.975641e+00 -1.833405e-05 -2.133048e-06 -6.909760e-05
N -6.444150e+00 3.666873e+00 -7.886482e-01 7.164176e-06 -4.715392e-07 -1.456652e-04
N -3.233395e+00 -1.891743e+00 4.430026e+00 -1.175342e-05 7.647727e-06 7.233125e-06
N -3.236306e+00 -1.896347e+00 -5.991623e+00 -1.000247e-05 -4.564246e-06 -3.418356e-05
N -3.235718e+00 -1.842031e+00 -7.476769e-01 8.050675e-06 -2.228758e-05 -5.636923e-05
N -1.670805e+00 9.113008e-01 4.464560e+00 2.257462e-05 -1.882395e-05 -5.630327e-05
N -1.590897e+00 9.149496e-01 -5.984000e+00 -3.236291e-06 1.974936e-06 -5.404153e-05
N -1.623049e+00 8.415547e-01 -7.748578e-01 -2.744825e-05 1.666426e-05 -8.286946e-05
N -3.232074e+00 3.620886e+00 4.460068e+00 -8.247386e-06 2.102022e-05 -5.125365e-05
N -3.279441e+00 3.689972e+00 -5.980945e+00 -2.625954e-07 -1.507361e-05 -4.640851e-05
N -3.195146e+00 3.696297e+00 -7.724925e-01 -1.243714e-05 2.045262e-05 -9.098799e-05
N -2.544550e-02 -1.889942e+00 4.426019e+00 -2.478078e-05 1.874298e-05 -5.453059e-05
N -2.151145e-02 -1.943948e+00 -6.034590e+00 -1.839393e-05 2.135978e-05 -6.952106e-06
N -6.469096e-02 -1.871041e+00 -7.624447e-01 -6.571774e-06 -3.101444e-05 -6.745571e-05
N 1.821444e-02 1.785386e+00 1.852119e+00 -4.731356e-06 4.091831e-05 5.215317e-05
N 2.386723e-02 1.838960e+00 7.063881e+00 -3.197192e-06 -8.088846e-06 -3.359452e-05
N -2.219255e-02 1.818721e+00 -3.460900e+00 9.529847e-06 -5.523968e-06 -3.777519e-05
N 3.185988e+00 -3.749539e+00 1.773017e+00 2.590312e-05 1.949545e-05 -6.020527e-05
N 3.233899e+00 -3.776294e+00 7.068608e+00 -1.243096e-05 8.469088e-06 -5.118827e-05
N 3.193710e+00 -3.748923e+00 -3.396945e+00 3.016416e-05 7.914979e-06 -6.421633e-05
N 1.585291e+00 -9.155167e-01 1.841407e+00 5.937016e-06 9.740721e-06 5.222205e-05
N 1.536895e+00 -9.363014e-01 7.074790e+00 9.747943e-06 6.414212e-06 -6.695958e-06
N 1.583014e+00 -9.711552e-01 -3.391141e+00 9.112607e-06 -2.149212e-06 -7.615500e-05
N 3.145544e+00 1.788762e+00 1.849092e+00 1.098077e-05 2.157491e-06 6.041104e-05
N 3.183705e+00 1.763294e+00 7.079447e+00 -1.099994e-05 2.544275e-05 -1.370301e-05
N 3.193737e+00 1.808859e+00 -3.407822e+00 6.579340e-07 -3.717617e-07 -4.364203e-05
N 6.404567e+00 -3.749471e+00 1.821180e+00 -2.884014e-05 -1.091397e-06 1.824462e-04
N 6.358546e+00 -3.774708e+00 7.062503e+00 2.019390e-05 3.486191e-06 -2.877031e-05
N 6.397108e+00 -3.747970e+00 -3.380783e+00 3.629500e-06 9.979560e-06 -6.793295e-05
N 4.795129e+00 -9.657821e-01 1.775838e+00 -7.766469e-06 -3.157087e-05 -8.443174e-05
N 4.795906e+00 -9.186325e-01 7.050516e+00 1.656091e-05 -1.722359e-05 -3.007147e-05
N 4.795334e+00 -9.651645e-01 -3.389233e+00 1.469457e-05 -2.182950e-05 -4.385617e-05
N -3.233289e+00 1.813784e+00 1.823803e+00 -4.430166e-06 -1.210282e-06 1.014807e-04
N -3.277429e+00 1.791573e+00 7.003971e+00 2.198852e-05 1.552236e-05 -8.412361e-06
N -3.239339e+00 1.812571e+00 -3.383006e+00 -6.731968e-06 -1.169642e-05 -5.988152e-05
N -2.226362e-02 -3.751642e+00 1.837151e+00 -1.926084e-05 -3.422793e-06 6.688863e-05
N -2.306219e-02 -3.697300e+00 7.053055e+00 1.261662e-05 -1.914189e-05 -5.108091e-05
N -1.985803e-02 -3.742460e+00 -3.449167e+00 -5.915062e-06 7.243714e-06 -4.049608e-05
N -1.629618e+00 -9.605928e-01 1.770002e+00 -1.218232e-05 -3.466718e-05 -5.344753e-05
N -1.585897e+00 -9.896211e-01 7.066232e+00 -3.082588e-05 -8.455441e-06 -5.269871e-05
N -1.626741e+00 -9.692239e-01 -3.398534e+00 1.891009e-06 -2.534492e-05 -5.524224e-05
