108
Energy=-1.764153e+06 Lattice="9.557888e+00 0.000000e+00 0.000000e+00 -4.782005e+00 8.279320e+00 0.000000e+00 -2.493335e-04 -1.097596e-02 1.544406e+01" Stress="3.980674e-04 -1.385197e-04 2.471947e-05 -1.455295e-04 8.026798e-04 -4.184634e-04 2.867560e-05 -4.309797e-04 -1.131628e-03" Properties=species:S:1:pos:R:3:forces:R:3 Config_type=AlGaN_super3_29_1_32.xyz
Al 1.578416e+00 8.669705e-01 2.398125e+00 -1.495355e-04 -3.505693e-05 1.561152e-04
Al 1.549771e+00 8.849572e-01 7.578282e+00 -8.927976e-05 2.172213e-04 3.911143e-04
Al 1.569412e+00 8.927279e-01 -2.700438e+00 8.590466e-05 -1.437777e-05 3.943616e-04
Al -1.948119e-02 3.651425e+00 2.427749e+00 -3.876682e-04 2.728805e-05 -6.161602e-04
Al -1.987352e-02 3.628025e+00 7.557247e+00 2.327360e-04 -8.246011e-04 3.045089e-04
Al -1.388675e-02 3.637118e+00 -2.711988e+00 -2.796136e-05 5.514250e-05 2.481795e-04
Al 3.154540e+00 -1.882622e+00 2.405230e+00 -2.028453e-04 -4.110155e-04 -5.472603e-05
Ga 3.174885e+00 -1.892785e+00 7.561959e+00 -9.104441e-05 9.681827e-05 3.493086e-04
Ga 3.175284e+00 -1.871787e+00 -2.689300e+00 -6.271443e-05 3.595106e-05 2.081390e-04
Al -4.818712e+00 8.782285e-01 2.430445e+00 1.125936e-04 -1.264456e-04 -9.906773e-05
Ga -4.797779e+00 8.695032e-01 7.561957e+00 1.337600e-04 8.861931e-06 3.132977e-04
Al -4.812525e+00 8.760714e-01 -2.706203e+00 1.121783e-04 2.510967e-05 1.334868e-04
Ga -6.413834e+00 3.630965e+00 2.397875e+00 1.250999e-04 -2.362145e-06 2.246009e-04
Ga -6.418752e+00 3.637570e+00 7.574287e+00 -1.162644e-04 -1.375549e-05 4.059075e-04
Ga -6.404295e+00 3.638287e+00 -2.694390e+00 -1.334708e-05 8.760698e-05 2.032513e-04
Ga -3.209301e+00 -1.895696e+00 2.437893e+00 -9.831845e-05 2.117785e-04 1.669291e-05
Al -3.199441e+00 -1.887522e+00 7.550947e+00 1.141666e-04 -1.376496e-05 2.370764e-04
Al -3.210677e+00 -1.876439e+00 -2.712686e+00 -2.959701e-05 5.055611e-05 3.043247e-04
Ga -1.611047e+00 8.756700e-01 2.446588e+00 1.721595e-04 -4.483680e-05 3.257322e-04
Al -1.608569e+00 8.676350e-01 7.567697e+00 5.608650e-04 4.872267e-04 -5.477181e-04
Ga -1.607177e+00 8.822736e-01 -2.739079e+00 3.224641e-04 -1.493821e-04 2.058072e-04
Ga -3.195357e+00 3.647573e+00 2.426111e+00 9.828795e-05 3.766892e-05 -9.831862e-05
Ga -3.191210e+00 3.627818e+00 7.555765e+00 -8.791790e-05 -9.197198e-05 1.550460e-04
Ga -3.211125e+00 3.646144e+00 -2.694100e+00 1.390027e-04 -6.436883e-05 3.919602e-04
Al -7.835810e-03 -1.870628e+00 2.419395e+00 4.149023e-05 -3.164007e-05 9.423893e-05
Ga -3.938698e-02 -1.865553e+00 7.583362e+00 7.677478e-05 -1.693982e-04 2.713929e-04
Ga -2.902137e-02 -1.872206e+00 -2.718507e+00 1.639607e-04 -1.166996e-04 4.231496e-04
Ga -2.868686e-02 1.807775e+00 4.996876e+00 -2.180691e-04 7.350860e-05 5.267443e-04
Al -2.114431e-02 1.800976e+00 -5.311402e+00 -8.650097e-05 3.657662e-04 5.425430e-05
Ga -2.334709e-03 1.817637e+00 -1.351910e-01 -2.150761e-04 2.166784e-04 1.521444e-04
Al 3.178571e+00 -3.730784e+00 4.980721e+00 8.520951e-04 2.567160e-04 -2.686103e-05
Ga 3.172256e+00 -3.732057e+00 -5.288090e+00 -2.806328e-05 1.100869e-04 1.427679e-04
Al 3.174923e+00 -3.715489e+00 -1.346236e-01 -5.944223e-05 1.727572e-05 2.576349e-04
Ga 1.565856e+00 -9.671244e-01 4.977048e+00 -1.787935e-04 1.912027e-04 4.401125e-04
Ga 1.554930e+00 -9.435725e-01 -5.289134e+00 -2.121406e-04 1.741739e-04 2.045355e-04
Al 1.572667e+00 -9.624868e-01 -1.302380e-01 -2.541711e-04 1.340392e-04 1.714972e-04
Ga 3.156723e+00 1.797239e+00 4.984773e+00 -3.733422e-05 -3.090003e-05 4.316461e-04
Ga 3.147133e+00 1.804934e+00 -5.277236e+00 1.070184e-06 4.200419e-06 3.382235e-04
Al 3.158465e+00 1.794791e+00 -1.466333e-01 1.285731e-04 2.989592e-04 -2.025243e-04
Al 6.333845e+00 -3.718435e+00 5.007349e+00 4.848813e-05 1.423433e-05 2.380331e-04
Ga 6.347526e+00 -3.707374e+00 -5.293428e+00 -1.633333e-04 -7.303871e-07 3.229514e-04
Al 6.341479e+00 -3.724328e+00 -1.620874e-01 2.842631e-04 4.012828e-05 8.160761e-05
Ga 4.765670e+00 -9.728537e-01 4.976291e+00 -3.492922e-04 -1.748701e-06 1.114917e-04
Ga 4.780616e+00 -9.586269e-01 -5.281006e+00 -1.625816e-04 -1.027812e-04 2.735908e-04
Ga 4.750154e+00 -9.590463e-01 -1.319472e-01 5.225944e-05 4.487381e-05 -2.670719e-04
Al -3.202021e+00 1.790253e+00 4.999322e+00 7.516104e-06 -6.851706e-05 1.989216e-04
Ga -3.198768e+00 1.803999e+00 -5.293344e+00 -2.917739e-05 6.201043e-05 2.942462e-04
Ga -3.227966e+00 1.810689e+00 -1.435883e-01 5.713597e-05 -5.564240e-05 3.248675e-04
Ga -2.459370e-02 -3.715171e+00 4.975965e+00 4.908563e-05 3.318435e-05 1.262813e-04
Al -2.619368e-02 -3.707812e+00 -5.292785e+00 5.136167e-05 -3.603646e-06 2.828125e-04
Al -2.047617e-02 -3.710702e+00 -1.232435e-01 -8.938115e-05 -8.921947e-05 -8.698386e-06
Al -1.619734e+00 -9.657050e-01 5.005515e+00 -7.030464e-05 1.242407e-04 3.013142e-04
Al -1.618240e+00 -9.551080e-01 -5.308033e+00 -1.903048e-04 -5.835604e-05 2.879812e-04
Ga -1.606419e+00 -9.787850e-01 -1.425525e-01 -1.734880e-04 -4.244940e-05 3.572789e-04
N 1.565096e+00 8.763594e-01 4.306161e+00 2.576685e-04 -3.595451e-05 -3.447423e-04
N 1.527902e+00 9.098446e-01 -5.952379e+00 2.303432e-04 -8.335466e-05 -3.016722e-04
N 1.606395e+00 8.550115e-01 -7.720377e-01 1.440446e-05 -1.680556e-04 -1.820252e-04
N -1.906552e-02 3.685973e+00 4.349380e+00 -1.074251e-04 4.920706e-05 6.045518e-04
N -2.134947e-02 3.597516e+00 -5.964775e+00 3.910637e-05 -6.633769e-05 -1.017208e-04
N -2.724975e-02 3.684232e+00 -7.923951e-01 2.443709e-05 -2.638878e-05 -8.675598e-05
N 3.157677e+00 -1.935890e+00 4.328658e+00 2.244964e-04 2.350105e-04 -1.930241e-04
N 3.166951e+00 -1.876918e+00 -5.907236e+00 -3.862226e-05 2.334694e-05 -3.615872e-04
N 3.122568e+00 -1.902171e+00 -7.103660e-01 -2.098641e-05 -1.458236e-04 -9.548287e-05
N -4.765005e+00 9.040265e-01 4.345925e+00 2.159544e-04 1.288827e-04 -7.762109e-05
N -4.805433e+00 8.861066e-01 -5.915948e+00 1.642400e-04 7.529216e-05 -2.289272e-04
N -4.846784e+00 9.019314e-01 -7.971695e-01 1.106004e-04 -1.658418e-05 -3.034847e-05
N -6.448722e+00 3.661829e+00 4.379731e+00 -4.635870e-05 6.356807e-05 -3.200668e-04
N -6.361483e+00 3.666766e+00 -5.890975e+00 4.654886e-05 1.100102e-06 -4.338075e-04
N -6.391758e+00 3.641186e+00 -6.978770e-01 -1.521193e-04 -8.842711e-05 1.606232e-04
N -3.161264e+00 -1.914837e+00 4.412531e+00 9.990971e-05 -3.272261e-05 -9.280453e-06
N -3.164551e+00 -1.854199e+00 -5.969763e+00 1.365358e-04 6.779046e-05 -4.334556e-04
N -3.207912e+00 -1.921918e+00 -7.963044e-01 7.262022e-05 -8.611957e-05 -1.078196e-04
N -1.655176e+00 8.497855e-01 4.423099e+00 2.536985e-04 -4.686055e-05 -3.879790e-04
N -1.573839e+00 8.604933e-01 -5.935721e+00 1.414806e-04 -2.349815e-04 8.308492e-05
N -1.610245e+00 8.833225e-01 -7.657798e-01 2.811700e-04 -1.084451e-04 -1.894852e-04
N -3.164182e+00 3.611202e+00 4.410572e+00 -4.726077e-04 -2.182562e-04 -2.791833e-04
N -3.248693e+00 3.669463e+00 -5.908022e+00 -6.280674e-05 -1.450255e-04 -4.140143e-04
N -3.210300e+00 3.696151e+00 -7.116505e-01 3.137843e-05 -7.033330e-05 -1.962177e-04
N -6.581871e-02 -1.853243e+00 4.335467e+00 1.570222e-05 -2.183062e-04 -3.066245e-04
N -6.586354e-02 -1.895547e+00 -5.878012e+00 9.328332e-05 -1.848634e-04 -2.558580e-04
N 2.236250e-02 -1.903772e+00 -7.367089e-01 2.080908e-04 -1.027330e-04 -3.163014e-04
N 1.746762e-02 1.829183e+00 1.847464e+00 1.169668e-04 1.945709e-05 -1.023101e-04
N -2.430106e-02 1.794888e+00 6.989902e+00 -2.542631e-04 2.259747e-04 -1.091079e-04
N 2.639077e-02 1.829846e+00 -3.368492e+00 -2.884639e-05 1.256328e-04 -2.275458e-04
N 3.214152e+00 -3.701063e+00 1.785756e+00 1.756759e-04 -1.116878e-04 -7.043939e-05
N 3.214435e+00 -3.749396e+00 6.899691e+00 -2.938323e-04 1.932708e-04 7.011907e-05
N 3.209390e+00 -3.742460e+00 -3.313391e+00 3.924475e-05 5.799704e-05 -2.706532e-04
N 1.569118e+00 -9.619790e-01 1.800655e+00 1.089993e-04 2.525355e-04 -1.028983e-04
N 1.570340e+00 -9.164852e-01 6.961845e+00 -1.940353e-04 2.314787e-05 -4.106286e-04
N 1.574439e+00 -9.042148e-01 -3.313543e+00 -2.545768e-04 1.464383e-04 -2.925818e-04
N 3.164035e+00 1.745528e+00 1.776228e+00 2.858519e-05 -4.435139e-05 -8.283238e-06
N 3.114909e+00 1.769045e+00 6.961769e+00 3.883529e-05 -1.090673e-04 -3.992141e-04
N 3.156983e+00 1.756662e+00 -3.293884e+00 -4.473257e-05 -1.272798e-04 -1.844545e-04
N 6.301254e+00 -3.741014e+00 1.750425e+00 1.290153e-05 -1.123336e-04 -3.989242e-04
N 6.303779e+00 -3.703647e+00 6.933431e+00 4.027060e-05 1.976217e-04 -3.886150e-04
N 6.308405e+00 -3.690729e+00 -3.304822e+00 6.647144e-06 -6.889984e-05 -2.896531e-04
N 4.721751e+00 -9.366242e-01 1.850272e+00 -2.379960e-04 7.437267e-05 6.516033e-04
N 4.798031e+00 -9.892877e-01 6.949585e+00 -7.643068e-05 -9.792800e-05 -3.752045e-04
N 4.801409e+00 -9.346225e-01 -3.294503e+00 -9.300182e-05 -1.019656e-04 -2.176755e-04
N -3.251614e+00 1.772012e+00 1.827782e+00 -2.053238e-04 5.575276e-05 -3.299867e-04
N -3.166196e+00 1.767068e+00 6.918305e+00 -8.774838e-06 2.632225e-05 -6.589368e-05
N -3.252504e+00 1.783149e+00 -3.315362e+00 -8.561775e-05 -7.848923e-05 -1.453005e-04
N -1.991112e-02 -3.672673e+00 1.790790e+00 -4.963506e-05 1.858989e-05 4.156606e-05
N -2.316536e-02 -3.719274e+00 6.943973e+00 -3.447176e-05 2.574220e-05 -2.461124e-04
N -2.356579e-02 -3.719065e+00 -3.381495e+00 -6.741605e-05 -4.205786e-05 -2.799540e-04
N -1.577113e+00 -9.859162e-01 1.824233e+00 -1.434696e-04 8.375833e-05 -4.598955e-04
N -1.653487e+00 -9.400844e-01 6.929718e+00 -1.203184e-04 -1.761006e-04 -4.883909e-05
N -1.660734e+00 -9.820477e-01 -3.384076e+00 -2.854713e-04 4.003851e-05 -2.908611e-04
