108
Energy=-1672602.299227 Lattice="9.542498 0.000000 0.000000 -4.777855 8.256355 0.000000 -0.009338 -0.016755 15.420440" Stress="-0.000009 -0.000000 -0.000003 -0.000000 -0.000014 -0.000004 -0.000002 -0.000004 -0.000011" Properties=species:S:1:pos:R:3:forces:R:3
Al 1.579584 0.870427 2.454284 -0.000065 0.000403 -0.000164
Al 1.571290 0.878638 7.550916 0.000902 0.000117 0.001305
Al 1.563210 0.896666 -2.741561 0.000108 -0.000216 -0.000154
Al -0.024137 3.639009 2.395467 0.002224 -0.000428 0.000732
Al -0.019834 3.623291 7.585411 -0.000336 0.000133 0.000319
Ga -0.022536 3.626436 -2.723453 -0.000113 -0.000086 0.000837
Al 3.171999 -1.867823 2.415983 0.001226 -0.001518 -0.001983
Al 3.163963 -1.887476 7.554528 -0.000242 -0.000126 0.000499
Ga 3.172389 -1.882076 -2.702547 0.000003 -0.000162 0.001003
Al -4.797225 0.864930 2.414577 -0.000404 -0.000104 0.000169
Ga -4.827951 0.871371 7.555525 0.000816 0.000027 0.000965
Ga -4.798272 0.889899 -2.708618 0.000537 -0.000273 -0.000095
Ga -6.407248 3.620731 2.435881 -0.000308 -0.000265 0.001296
Al -6.406181 3.609286 7.545750 -0.000358 0.000432 -0.000616
Al -6.393530 3.629391 -2.714890 -0.000077 0.000024 0.000260
Al -3.216953 -1.893785 2.420883 -0.001546 0.003599 -0.001711
Al -3.210379 -1.894032 7.545554 0.000199 0.000059 0.000429
Al -3.196155 -1.873764 -2.693787 0.000001 0.000147 0.000605
Ga -1.629021 0.882293 2.438031 0.000713 -0.000405 0.000080
Ga -1.619566 0.871473 7.547039 0.000525 -0.000668 0.000620
Al -1.611051 0.891918 -2.713945 0.000585 -0.000246 -0.000283
Ga -3.199582 3.624003 2.427236 0.000219 -0.000332 0.000768
Ga -3.211002 3.629823 7.547766 0.000170 -0.000224 0.000840
Al -3.195873 3.632526 -2.705221 0.000239 -0.000389 -0.000042
Ga -0.016016 -1.862171 2.461734 0.000107 -0.000256 -0.000586
Ga -0.029542 -1.881561 7.533452 0.000237 -0.000261 0.000467
Ga -0.025318 -1.864680 -2.713514 0.000629 -0.000226 -0.001583
Ga -0.016000 1.780527 4.994065 -0.000193 0.000916 -0.000618
Al -0.012887 1.804514 -5.295723 -0.000179 0.000198 0.000111
Ga -0.024294 1.798938 -0.139918 -0.000541 0.000582 0.000735
Ga 3.159547 -3.713867 4.988958 -0.000214 0.000221 0.000091
Al 3.170125 -3.710038 -5.300095 -0.000265 0.000282 0.000561
Al 3.171045 -3.714772 -0.133432 -0.000380 0.000581 -0.000247
Al 1.576854 -0.958550 4.999315 -0.001355 -0.000787 -0.001105
Ga 1.592630 -0.938645 -5.302387 -0.000890 0.000826 -0.000083
Ga 1.592603 -0.952274 -0.130925 -0.001116 0.000429 0.000109
Al 3.161275 1.769505 4.989855 -0.001188 0.005816 -0.002436
Al 3.137380 1.810826 -5.289947 -0.000099 -0.000082 0.000577
Ga 3.151329 1.793369 -0.139591 0.000472 0.000070 0.000383
Ga 6.345997 -3.713945 5.009653 0.000300 -0.000698 0.000532
Ga 6.345177 -3.713131 -5.302423 0.000117 0.000257 0.000573
Al 6.332400 -3.697094 -0.152388 -0.000161 -0.000017 0.000642
Ga 4.748261 -0.951377 4.977876 0.000131 -0.000114 -0.000093
Ga 4.753332 -0.959864 -5.298869 -0.000400 0.000173 0.000829
Al 4.761685 -0.966875 -0.122919 -0.000137 0.000212 0.000673
Al -3.229897 1.788924 4.983447 0.000305 0.000249 0.000595
Ga -3.199612 1.815132 -5.268865 0.000080 0.000106 0.000709
Al -3.205189 1.801307 -0.160125 -0.000092 -0.000008 -0.000246
Al -0.029174 -3.718161 5.001737 -0.000384 0.000211 -0.000202
Ga -0.019499 -3.720542 -5.277593 0.000168 0.000031 0.000346
Ga -0.015104 -3.720973 -0.158815 -0.000034 0.000301 0.000104
Al -1.619961 -0.966149 4.989576 -0.000122 -0.000074 -0.000623
Ga -1.615508 -0.941437 -5.274176 -0.000647 0.000248 0.000666
Ga -1.636887 -0.951034 -0.147109 -0.000282 0.000364 0.001148
N 1.605507 0.843381 4.367303 0.000625 -0.000165 0.000089
N 1.570515 0.935804 -5.938438 0.000297 -0.000251 -0.001165
N 1.563935 0.880118 -0.834737 0.000291 0.000015 0.000675
N -0.021293 3.625612 4.308476 -0.000547 0.000163 -0.000506
N -0.061282 3.611799 -5.911302 -0.000414 -0.000473 -0.000411
N -0.025863 3.673878 -0.736551 -0.000087 0.000174 -0.000163
N 3.120745 -1.858604 4.328989 -0.000538 0.000131 0.000279
N 3.166391 -1.916740 -5.949793 0.000082 -0.000636 -0.000810
N 3.207336 -1.901270 -0.718595 0.000729 -0.000357 0.000373
N -4.800992 0.919896 4.343376 0.000953 -0.000833 -0.000604
N -4.840187 0.915207 -5.881631 0.000340 0.000073 -0.000552
N -4.762683 0.852699 -0.725981 0.000588 -0.000464 -0.000011
N -6.356372 3.604261 4.412172 0.000151 -0.003068 0.000278
N -6.381192 3.588002 -5.955085 -0.000088 -0.000542 -0.000818
N -6.433533 3.650512 -0.797262 -0.000489 0.000055 -0.000055
N -3.169187 -1.864443 4.332475 0.000629 0.000074 0.000008
N -3.191426 -1.866059 -5.970589 0.000103 -0.000049 -0.000653
N -3.246394 -1.896298 -0.776172 -0.000395 -0.000134 -0.000006
N -1.664842 0.856173 4.417152 0.000579 -0.000586 -0.000093
N -1.578585 0.912196 -5.896933 0.001111 -0.000298 -0.000543
N -1.652593 0.909432 -0.798276 0.000824 -0.000308 0.000637
N -3.249869 3.606493 4.408992 0.000314 -0.000655 -0.000563
N -3.167870 3.662764 -5.902525 0.000501 -0.000324 -0.000627
N -3.157291 3.614725 -0.780561 0.000687 -0.000480 0.000019
N -0.021343 -1.876436 4.448547 0.000886 0.000391 0.000882
N -0.019740 -1.866415 -5.909043 0.000447 -0.000336 -0.000251
N -0.017736 -1.863015 -0.756313 0.000248 -0.000418 0.000961
N 0.021026 1.805395 1.851526 0.000011 -0.000042 -0.001547
N 0.018054 1.812588 6.971907 -0.001051 0.000854 0.000242
N -0.023020 1.751907 -3.366061 -0.000289 -0.000083 -0.000532
N 3.196656 -3.698354 1.785925 -0.000191 0.003872 0.001008
N 3.208051 -3.699338 6.967492 0.000334 0.000455 -0.000413
N 3.126107 -3.729747 -3.379445 -0.000416 0.000382 -0.000663
N 1.607733 -0.930884 1.846288 0.000673 -0.000192 0.000384
N 1.614666 -0.939892 6.926158 0.000450 0.000262 -0.000045
N 1.585506 -0.909274 -3.328546 -0.000698 0.000489 -0.000050
N 3.151514 1.745609 1.839318 -0.000085 -0.000565 -0.000198
N 3.106277 1.808010 6.900717 -0.000218 -0.000927 0.001643
N 3.114757 1.827938 -3.361082 -0.000058 0.000127 -0.000552
N 6.309329 -3.690749 1.773646 -0.001621 0.000425 -0.000422
N 6.329996 -3.720374 6.997833 0.000233 -0.000467 0.000019
N 6.385853 -3.677680 -3.314499 0.000405 0.000000 -0.000671
N 4.754393 -0.953832 1.811310 0.000457 -0.003078 0.000080
N 4.745977 -1.009829 6.963259 -0.000549 -0.000341 -0.000832
N 4.797539 -0.979386 -3.323074 -0.000225 0.000195 -0.000767
N -3.246048 1.774030 1.758017 -0.000703 -0.000157 0.000236
N -3.222420 1.784375 6.889074 -0.000175 0.000027 -0.000428
N -3.165168 1.826441 -3.293196 -0.000132 -0.000002 0.000194
N -0.023977 -3.707626 1.808052 0.000165 -0.000074 -0.000024
N -0.070466 -3.745353 6.909944 -0.000138 0.000133 -0.000083
N -0.018013 -3.757133 -3.292128 0.000048 -0.000371 0.000436
N -1.651789 -0.979498 1.830430 -0.001311 -0.001236 -0.000917
N -1.662661 -0.988679 6.897973 -0.000877 0.000233 -0.000399
N -1.656378 -0.926977 -3.292886 -0.000751 0.000331 0.000223
