108
Energy=-1.214847e+06 Lattice="9.488178e+00 0.000000e+00 0.000000e+00 -4.744583e+00 8.215360e+00 0.000000e+00 2.042417e-04 4.920166e-03 1.529697e+01" Stress="2.958164e-06 -8.502058e-05 5.535745e-05 -9.022949e-05 -2.292765e-04 2.092168e-04 5.881357e-05 2.226843e-04 1.516918e-04" Properties=species:S:1:pos:R:3:forces:R:3 Config_type=AlGaN_super3_17_0_31.xyz
Al 1.559869e+00 8.854371e-01 2.438139e+00 5.848649e-05 -7.596945e-05 8.497082e-05
Al 1.563469e+00 8.944445e-01 7.497495e+00 -6.572151e-05 -1.380608e-04 -1.272872e-05
Al 1.568633e+00 8.864719e-01 -2.737785e+00 -6.908833e-05 1.864465e-05 -6.453878e-05
Al -2.067575e-02 3.607501e+00 2.416459e+00 -4.600835e-04 -2.081257e-05 -2.175354e-04
Al -2.988495e-02 3.602655e+00 7.506330e+00 -8.101228e-06 -5.444079e-06 2.156967e-05
Al -6.893346e-03 3.613934e+00 -2.723082e+00 -7.557818e-05 8.600468e-05 5.233416e-05
Al 3.151092e+00 -1.865135e+00 2.408117e+00 -9.316342e-05 3.511647e-04 -1.566396e-04
Al 3.143309e+00 -1.865846e+00 7.499871e+00 2.361643e-05 -2.142448e-05 2.481254e-04
Ga 3.148500e+00 -1.867473e+00 -2.700425e+00 -1.490660e-04 -1.009124e-05 1.454547e-04
Al -4.779795e+00 8.693957e-01 2.438438e+00 -2.646510e-04 -3.442950e-04 -5.668918e-05
Al -4.775006e+00 8.884051e-01 7.481326e+00 4.956167e-05 1.644473e-05 3.779065e-05
Al -4.775583e+00 8.778549e-01 -2.719516e+00 4.305574e-05 1.289583e-04 7.296274e-06
Al -6.354904e+00 3.602331e+00 2.421176e+00 -2.792554e-04 -2.341947e-04 -3.132327e-05
Al -6.345614e+00 3.594148e+00 7.511466e+00 -1.232724e-04 3.976389e-05 4.160055e-06
Al -6.366140e+00 3.601750e+00 -2.730888e+00 7.268079e-06 -9.521523e-07 -3.047963e-05
Ga -3.188037e+00 -1.860189e+00 2.401150e+00 3.364367e-05 3.970404e-05 -7.036272e-07
Ga -3.196602e+00 -1.861668e+00 7.484555e+00 -5.322111e-05 -1.443722e-05 1.205743e-05
Al -3.190510e+00 -1.883217e+00 -2.678090e+00 -1.595883e-05 -8.287168e-06 1.723068e-05
Al -1.593015e+00 8.704241e-01 2.433121e+00 2.393040e-04 -1.289643e-04 -7.480347e-05
Al -1.601523e+00 8.981694e-01 7.486819e+00 -2.582665e-05 1.056929e-05 3.338625e-05
Ga -1.605628e+00 8.811988e-01 -2.710695e+00 1.139145e-04 2.592921e-05 -2.963903e-05
Ga -3.176692e+00 3.618929e+00 2.442226e+00 4.779183e-05 9.976042e-06 2.172737e-05
Al -3.182311e+00 3.606625e+00 7.482784e+00 -3.742600e-05 -3.124833e-06 -1.487496e-05
Ga -3.183924e+00 3.602962e+00 -2.719188e+00 3.967797e-06 -7.166147e-05 -1.716712e-05
Al -2.996296e-02 -1.856725e+00 2.429026e+00 2.317748e-05 1.222378e-04 -1.131969e-04
Ga -1.543013e-02 -1.868058e+00 7.500926e+00 3.234258e-05 -7.666327e-05 1.948903e-05
Ga -2.278537e-02 -1.867269e+00 -2.711172e+00 3.440554e-05 -1.863633e-05 5.558374e-06
Al -3.228303e-02 1.791277e+00 4.959482e+00 4.897852e-05 -4.496966e-05 2.613916e-05
Al -1.467162e-02 1.795911e+00 -5.271790e+00 -4.178515e-05 -3.925859e-05 -8.117822e-05
Ga -1.979392e-02 1.799057e+00 -1.353149e-01 -2.847357e-05 1.667503e-04 -1.549311e-06
Al 3.145777e+00 -3.692434e+00 4.973161e+00 -1.943702e-05 3.662221e-04 3.383315e-05
Al 3.139433e+00 -3.703659e+00 -5.285978e+00 -3.539062e-05 1.574094e-04 5.670942e-05
Al 3.164858e+00 -3.687504e+00 -1.343316e-01 2.200816e-05 1.564956e-04 -1.447466e-04
Ga 1.566903e+00 -9.484035e-01 4.946954e+00 -5.140918e-05 3.689600e-06 5.244536e-06
Al 1.568280e+00 -9.460270e-01 -5.275089e+00 -2.743706e-04 5.429597e-05 2.793864e-05
Ga 1.563252e+00 -9.515503e-01 -1.099339e-01 -1.105612e-04 1.321949e-04 4.503198e-05
Al 3.146892e+00 1.791437e+00 4.963949e+00 -5.946918e-06 -3.594307e-05 -2.821587e-05
Al 3.137876e+00 1.790372e+00 -5.265694e+00 6.256224e-06 2.899963e-05 7.448307e-06
Ga 3.139653e+00 1.785600e+00 -1.455788e-01 -5.077596e-06 3.283644e-05 -8.544019e-05
Ga 6.301640e+00 -3.703647e+00 4.957869e+00 4.982050e-05 -2.255410e-06 7.248802e-05
Al 6.301169e+00 -3.713089e+00 -5.251185e+00 -2.715347e-05 7.131371e-05 -1.056548e-05
Al 6.292738e+00 -3.685635e+00 -1.548429e-01 8.865274e-05 -1.556897e-04 -1.546421e-04
Al 4.712634e+00 -9.394033e-01 4.959251e+00 1.428627e-04 -1.262574e-05 2.808704e-04
Ga 4.713700e+00 -9.471584e-01 -5.249578e+00 -4.220601e-05 -6.894560e-05 -1.473431e-05
Al 4.730204e+00 -9.549600e-01 -1.495312e-01 -1.170466e-04 -1.317318e-04 1.334736e-05
Al -3.184917e+00 1.779336e+00 4.963619e+00 -4.285910e-05 3.569295e-05 3.728631e-06
Al -3.190497e+00 1.798713e+00 -5.288412e+00 1.408742e-04 -8.382236e-06 -1.059337e-04
Ga -3.190684e+00 1.772604e+00 -1.188381e-01 8.180768e-05 3.446091e-05 -4.200270e-05
Al -2.847365e-02 -3.699227e+00 4.961629e+00 1.063340e-04 -5.955037e-05 -1.806703e-05
Al -2.047022e-02 -3.712621e+00 -5.268615e+00 1.971916e-05 4.879313e-05 2.328108e-05
Ga -3.745085e-02 -3.688272e+00 -1.325753e-01 -4.304454e-05 4.487901e-05 -7.781550e-05
Al -1.602706e+00 -9.342379e-01 4.953978e+00 4.285655e-05 -9.250100e-05 -6.972212e-05
Ga -1.602388e+00 -9.481018e-01 -5.251967e+00 1.260336e-05 -2.557678e-05 3.039171e-05
Al -1.616394e+00 -9.583552e-01 -1.325273e-01 -5.465284e-05 4.169972e-05 -9.700424e-06
N 1.558570e+00 9.318568e-01 4.347317e+00 7.110003e-05 -2.572461e-05 3.311726e-05
N 1.560615e+00 8.787263e-01 -5.875158e+00 -9.841860e-06 9.158084e-05 -1.398657e-05
N 1.556633e+00 8.701163e-01 -8.230999e-01 8.152213e-05 5.243249e-05 5.998098e-06
N -6.928066e-02 3.590992e+00 4.329913e+00 1.633144e-04 -2.989118e-05 -6.616375e-05
N -2.064459e-02 3.608730e+00 -5.873658e+00 -5.030848e-05 4.059059e-05 3.198171e-05
N -2.337952e-02 3.658065e+00 -7.949684e-01 1.052763e-04 -3.032386e-05 6.349207e-05
N 3.188594e+00 -1.894573e+00 4.324690e+00 -1.387649e-04 -2.916157e-04 8.577752e-05
N 3.104767e+00 -1.890505e+00 -5.885019e+00 2.195985e-04 -3.228502e-04 -1.595000e-04
N 3.176028e+00 -1.888394e+00 -7.191910e-01 1.097024e-04 2.364459e-06 -1.305519e-04
N -4.770532e+00 8.746876e-01 4.359896e+00 3.077459e-05 1.488189e-05 -2.346711e-05
N -4.771257e+00 9.195845e-01 -5.899356e+00 -1.680891e-04 -4.919049e-05 -9.452849e-05
N -4.767463e+00 8.326910e-01 -8.048155e-01 -2.294847e-05 3.073895e-05 9.903282e-05
N -6.309794e+00 3.586742e+00 4.329585e+00 6.272609e-05 7.531814e-05 -1.021339e-04
N -6.350813e+00 3.606378e+00 -5.863944e+00 -3.133935e-05 2.476953e-05 -2.583502e-07
N -6.392944e+00 3.632639e+00 -8.105480e-01 -5.948614e-05 4.525580e-05 1.142522e-05
N -3.188334e+00 -1.816558e+00 4.382225e+00 2.319027e-05 -1.265646e-05 -2.736947e-05
N -3.188432e+00 -1.916472e+00 -5.853369e+00 -9.682958e-06 -3.410432e-05 -2.269758e-05
N -3.184939e+00 -1.868680e+00 -7.413756e-01 -3.471582e-05 -3.472110e-05 -6.439319e-05
N -1.602688e+00 8.775490e-01 4.353129e+00 5.418310e-05 -3.201934e-05 -2.931959e-05
N -1.600557e+00 9.230371e-01 -5.891458e+00 3.160926e-05 3.492148e-05 3.010338e-07
N -1.603297e+00 8.324590e-01 -7.408202e-01 3.471666e-05 -7.486751e-05 -4.416304e-06
N -3.180456e+00 3.615336e+00 4.421315e+00 -4.390060e-05 -2.137084e-05 -2.782075e-06
N -3.186060e+00 3.611625e+00 -5.888211e+00 2.380994e-05 3.303363e-05 -1.232666e-05
N -3.142403e+00 3.634572e+00 -7.356745e-01 -8.296626e-05 -8.869558e-05 6.695468e-05
N -6.645942e-02 -1.889085e+00 4.344179e+00 -1.897620e-04 7.910238e-05 9.742424e-05
N 1.766125e-02 -1.894282e+00 -5.827973e+00 5.851548e-05 7.807242e-05 -3.113205e-06
N -5.741320e-02 -1.838798e+00 -7.389463e-01 3.190645e-05 -1.286210e-04 -8.293709e-05
N -1.941052e-02 1.786863e+00 1.850966e+00 -1.535926e-04 9.833590e-05 9.441746e-05
N -2.078776e-02 1.791776e+00 6.884766e+00 -4.265202e-05 2.842961e-05 -2.463582e-05
N 1.781453e-02 1.812051e+00 -3.349431e+00 3.642276e-05 -3.884915e-06 3.321635e-05
N 3.185694e+00 -3.670536e+00 1.781526e+00 1.867817e-04 -2.297638e-04 1.893301e-04
N 3.146536e+00 -3.687257e+00 6.896449e+00 -3.795572e-05 7.104710e-05 5.815482e-05
N 3.182915e+00 -3.716747e+00 -3.371814e+00 1.731074e-05 5.592617e-05 -9.659699e-05
N 1.558779e+00 -9.456922e-01 1.879246e+00 1.274894e-04 -2.261845e-04 9.790022e-05
N 1.602630e+00 -9.214195e-01 6.919853e+00 -3.464491e-05 1.579894e-04 -6.491787e-05
N 1.565685e+00 -9.074147e-01 -3.361968e+00 6.960571e-05 8.154337e-06 3.885281e-06
N 3.140140e+00 1.783922e+00 1.842772e+00 2.221187e-04 1.104200e-04 1.070116e-04
N 3.137627e+00 1.792182e+00 6.884543e+00 -2.027769e-05 1.407564e-06 3.920481e-05
N 3.143113e+00 1.784591e+00 -3.337962e+00 1.192750e-05 5.727887e-06 1.610853e-05
N 6.302650e+00 -3.742399e+00 1.775382e+00 9.464950e-05 -9.027360e-06 1.865061e-04
N 6.303036e+00 -3.746519e+00 6.924748e+00 1.737264e-04 -5.198711e-05 -2.062151e-05
N 6.301171e+00 -3.689680e+00 -3.322792e+00 4.178087e-05 4.251372e-06 -2.318197e-06
N 4.681226e+00 -9.191031e-01 1.772063e+00 6.202401e-06 3.098421e-04 1.654819e-04
N 4.672721e+00 -9.217393e-01 6.871959e+00 3.169796e-05 -6.969650e-05 -2.669102e-04
N 4.765725e+00 -9.319217e-01 -3.276274e+00 6.635061e-05 -4.656784e-05 -5.721240e-05
N -3.189303e+00 1.737468e+00 1.860147e+00 -3.112833e-05 6.391562e-05 -4.220181e-05
N -3.186032e+00 1.784734e+00 6.885017e+00 2.009396e-05 4.601124e-05 -4.713575e-05
N -3.228013e+00 1.760704e+00 -3.374721e+00 -5.047422e-05 -4.908158e-05 1.267759e-04
N -6.479631e-02 -3.668886e+00 1.843738e+00 1.422860e-04 5.805467e-05 -7.902150e-05
N -3.044261e-02 -3.739290e+00 6.876749e+00 6.585082e-05 -3.102537e-06 4.263208e-05
N -6.344186e-02 -3.721643e+00 -3.356896e+00 -9.146246e-06 3.718203e-05 1.248542e-05
N -1.563114e+00 -9.244886e-01 1.785569e+00 6.685931e-05 -5.254978e-05 1.390618e-04
N -1.599808e+00 -8.973275e-01 6.859721e+00 2.617589e-05 -7.585436e-05 2.926807e-05
N -1.651783e+00 -9.765855e-01 -3.292861e+00 -1.410797e-04 -4.008683e-05 3.160206e-05
