108
Energy=-2.359227e+06 Lattice="9.476278e+00 0.000000e+00 0.000000e+00 -4.738139e+00 8.206697e+00 0.000000e+00 9.377101e-16 1.624162e-15 1.531397e+01" Stress="-8.098231e-02 6.889237e-03 -2.044772e-04 6.885691e-03 -7.279421e-02 -2.978296e-04 -2.147881e-04 -3.037118e-04 -7.813434e-02" Properties=species:S:1:pos:R:3:forces:R:3 Config_type=AlGaN_super3_42_1_0.xyz
Al 1.564294e+00 9.031460e-01 2.504900e+00 -1.680794e-03 -1.471381e-02 -1.315795e-02
Al 1.564294e+00 9.031460e-01 7.521855e+00 -1.743262e-03 -1.461183e-02 -5.181583e-03
Ga 1.564294e+00 9.031460e-01 -2.775158e+00 -1.998184e-03 -1.837828e-02 -5.250306e-03
Al 2.938992e-08 3.612582e+00 2.504900e+00 -2.856366e-03 -1.596809e-03 -1.205496e-02
Al 2.938992e-08 3.612582e+00 7.521855e+00 -3.179015e-03 -1.807553e-03 -2.925506e-03
Ga 2.938992e-08 3.612582e+00 -2.775158e+00 -3.108362e-03 -1.177828e-03 -1.909316e-03
Ga 3.173845e+00 -1.884678e+00 2.504900e+00 -3.815963e-03 1.455923e-03 -1.390610e-02
Ga 3.173845e+00 -1.884678e+00 7.521855e+00 -3.598775e-03 1.498143e-03 -3.932328e-03
Ga 3.173845e+00 -1.884678e+00 -2.775158e+00 -3.196347e-03 1.729132e-03 -2.753318e-03
Ga -4.783396e+00 9.031460e-01 2.504900e+00 8.432604e-05 -1.696971e-02 -1.427008e-02
Ga -4.783396e+00 9.031460e-01 7.521855e+00 3.732750e-04 -1.726468e-02 -4.915941e-03
Ga -4.783396e+00 9.031460e-01 -2.775158e+00 9.769636e-04 -1.694867e-02 -4.959572e-03
Al -6.347690e+00 3.612582e+00 2.504900e+00 -5.366574e-04 2.149601e-04 -1.066632e-02
Ga -6.347690e+00 3.612582e+00 7.521855e+00 -7.511054e-04 -3.382374e-04 -1.281902e-03
Ga -6.347690e+00 3.612582e+00 -2.775158e+00 5.738978e-05 1.593173e-04 -9.804526e-04
Ga -3.173845e+00 -1.884678e+00 2.504900e+00 -4.112675e-04 2.455773e-03 -1.250061e-02
Ga -3.173845e+00 -1.884678e+00 7.521855e+00 -5.634010e-04 3.143229e-03 -2.309726e-03
Ga -3.173845e+00 -1.884678e+00 -2.775158e+00 -3.820181e-04 3.410463e-03 -2.752811e-03
Ga -1.654808e+00 9.031460e-01 2.504900e+00 1.699443e-02 -9.083710e-03 -1.689393e-02
Ga -1.654808e+00 9.031460e-01 7.521855e+00 1.699856e-02 -9.025457e-03 -8.437063e-03
Ga -1.654808e+00 9.031460e-01 -2.775158e+00 1.606428e-02 -9.262689e-03 -7.851571e-03
Ga -3.219102e+00 3.612582e+00 2.504900e+00 1.532839e-02 8.340077e-03 -1.429229e-02
Ga -3.219102e+00 3.612582e+00 7.521855e+00 1.579579e-02 8.175978e-03 -5.241514e-03
Al -3.219102e+00 3.612582e+00 -2.775158e+00 1.226403e-02 5.432432e-03 -2.859088e-03
Ga -4.525702e-02 -1.884678e+00 2.504900e+00 1.553286e-02 1.077609e-02 -1.541648e-02
Ga -4.525702e-02 -1.884678e+00 7.521855e+00 1.539856e-02 1.133695e-02 -6.129512e-03
Ga -4.525702e-02 -1.884678e+00 -2.775158e+00 1.503275e-02 1.083290e-02 -4.857325e-03
Ga 1.469567e-08 1.806291e+00 5.013378e+00 -1.516981e-02 -1.114486e-02 -6.825073e-03
Ga 1.469567e-08 1.806291e+00 -5.283635e+00 -1.485840e-02 -1.093069e-02 -7.274529e-03
Al 1.469567e-08 1.806291e+00 -2.666800e-01 -1.148315e-02 -8.086888e-03 3.554052e-02
Ga 3.173845e+00 -3.690969e+00 5.013378e+00 -1.547424e-02 -8.114179e-03 -5.579545e-03
Ga 3.173845e+00 -3.690969e+00 -5.283635e+00 -1.473863e-02 -8.014883e-03 -5.380889e-03
Al 3.173845e+00 -3.690969e+00 -2.666800e-01 -1.178298e-02 -5.599022e-03 3.590952e-02
Ga 1.609551e+00 -9.815320e-01 5.013378e+00 -1.653834e-02 9.275067e-03 -9.212896e-03
Ga 1.609551e+00 -9.815320e-01 -5.283635e+00 -1.648695e-02 9.561016e-03 -9.021875e-03
Al 1.609551e+00 -9.815320e-01 -2.666800e-01 -1.384719e-02 8.330276e-03 3.436087e-02
Ga 3.128588e+00 1.806291e+00 5.013378e+00 2.705082e-04 -3.284151e-03 -3.484932e-03
Ga 3.128588e+00 1.806291e+00 -5.283635e+00 1.279437e-04 -3.100007e-03 -3.140290e-03
Ga 3.128588e+00 1.806291e+00 -2.666800e-01 -5.636577e-04 -3.001269e-03 4.875122e-02
Ga 6.302433e+00 -3.690969e+00 5.013378e+00 1.954985e-04 -3.360311e-04 -2.614015e-03
Al 6.302433e+00 -3.690969e+00 -5.283635e+00 8.203221e-05 -2.440793e-04 -2.706498e-03
Al 6.302433e+00 -3.690969e+00 -2.666800e-01 -8.905107e-05 -9.913731e-04 3.844437e-02
Ga 4.738139e+00 -9.815320e-01 5.013378e+00 -8.520862e-04 1.726910e-02 -5.032030e-03
Ga 4.738139e+00 -9.815320e-01 -5.283635e+00 -4.649494e-04 1.707508e-02 -5.204593e-03
Ga 4.738139e+00 -9.815320e-01 -2.666800e-01 -1.236638e-03 1.653398e-02 4.655414e-02
Ga -3.219102e+00 1.806291e+00 5.013378e+00 3.478199e-03 -1.839832e-03 -4.108669e-03
Ga -3.219102e+00 1.806291e+00 -5.283635e+00 3.364203e-03 -2.214993e-03 -3.596565e-03
Ga -3.219102e+00 1.806291e+00 -2.666800e-01 3.546430e-03 -1.560830e-03 4.754322e-02
Ga -4.525703e-02 -3.690969e+00 5.013378e+00 3.187371e-03 1.329932e-03 -3.808827e-03
Ga -4.525703e-02 -3.690969e+00 -5.283635e+00 2.532145e-03 1.324034e-03 -2.461134e-03
Al -4.525703e-02 -3.690969e+00 -2.666800e-01 2.854666e-03 9.099788e-04 3.701599e-02
Ga -1.609551e+00 -9.815320e-01 5.013378e+00 2.240557e-03 1.879910e-02 -6.443383e-03
Ga -1.609551e+00 -9.815320e-01 -5.283635e+00 1.824101e-03 1.850752e-02 -6.238918e-03
Ga -1.609551e+00 -9.815320e-01 -2.666800e-01 2.394759e-03 1.820737e-02 4.550486e-02
N 1.564294e+00 9.031460e-01 4.418497e+00 -1.276881e-03 -1.775593e-02 -1.607512e-02
N 1.564294e+00 9.031460e-01 -5.878516e+00 -1.300126e-03 -1.795303e-02 -1.720999e-02
N 1.564294e+00 9.031460e-01 -8.615610e-01 -1.900802e-02 -2.482856e-02 2.171639e-02
N 2.938992e-08 3.612582e+00 4.418497e+00 -2.389361e-03 7.465354e-05 -2.038371e-02
N 2.938992e-08 3.612582e+00 -5.878516e+00 1.647464e-02 1.117182e-02 -1.336055e-02
N 2.938992e-08 3.612582e+00 -8.615610e-01 -1.795422e-03 2.309739e-04 2.677293e-02
N 3.173845e+00 -1.884678e+00 4.418497e+00 -2.840526e-03 1.870798e-03 2.447829e-03
N 3.173845e+00 -1.884678e+00 -5.878516e+00 -3.133878e-03 1.849387e-03 1.814504e-03
N 3.173845e+00 -1.884678e+00 -8.615610e-01 -2.095222e-02 -8.981596e-03 1.937916e-02
N -4.783396e+00 9.031460e-01 4.418497e+00 5.284698e-04 -1.786182e-02 6.912133e-03
N -4.783396e+00 9.031460e-01 -5.878516e+00 4.489855e-04 -1.783342e-02 6.405943e-03
N -4.783396e+00 9.031460e-01 -8.615610e-01 4.400939e-04 -1.772153e-02 9.990457e-03
N -6.347690e+00 3.612582e+00 4.418497e+00 -6.216438e-04 2.521945e-04 -2.015080e-02
N -6.347690e+00 3.612582e+00 -5.878516e+00 -1.917120e-02 1.144202e-02 1.022428e-02
N -6.347690e+00 3.612582e+00 -8.615610e-01 -3.415968e-04 2.222264e-02 2.012725e-02
N -3.173845e+00 -1.884678e+00 4.418497e+00 -1.253267e-03 2.342112e-03 2.686650e-03
N -3.173845e+00 -1.884678e+00 -5.878516e+00 -1.197787e-03 -1.948275e-02 9.717012e-03
N -3.173845e+00 -1.884678e+00 -8.615610e-01 -1.155575e-03 -1.915438e-02 1.278890e-02
N -1.654808e+00 9.031460e-01 4.418497e+00 1.662559e-02 -9.665386e-03 1.094733e-02
N -1.654808e+00 9.031460e-01 -5.878516e+00 1.664638e-02 -9.716008e-03 1.042481e-02
N -1.654808e+00 9.031460e-01 -8.615610e-01 3.180018e-02 -1.473434e-03 1.866439e-02
N -3.219102e+00 3.612582e+00 4.418497e+00 1.568507e-02 8.459183e-03 7.033777e-03
N -3.219102e+00 3.612582e+00 -5.878516e+00 1.561208e-02 8.723329e-03 6.917629e-03
N -3.219102e+00 3.612582e+00 -8.615610e-01 1.183969e-02 2.756703e-02 -1.401630e-03
N -4.525702e-02 -1.884678e+00 4.418497e+00 1.481726e-02 1.039306e-02 6.752006e-03
N -4.525702e-02 -1.884678e+00 -5.878516e+00 1.502549e-02 1.024025e-02 5.964368e-03
N -4.525702e-02 -1.884678e+00 -8.615610e-01 2.983206e-02 -3.228605e-03 2.163886e-02
N 1.469567e-08 1.806291e+00 1.910020e+00 3.884799e-03 6.391734e-04 -3.595241e-02
N 1.469567e-08 1.806291e+00 6.926975e+00 3.837558e-03 8.824372e-04 2.120342e-02
N 1.469567e-08 1.806291e+00 -3.370038e+00 -1.486619e-02 -1.037724e-02 6.080350e-03
N 3.173845e+00 -3.690969e+00 1.910020e+00 3.204527e-03 -1.960042e-02 -4.296389e-02
N 3.173845e+00 -3.690969e+00 6.926975e+00 3.230528e-03 -1.932411e-02 1.402183e-02
N 3.173845e+00 -3.690969e+00 -3.370038e+00 -3.135178e-02 -1.713735e-02 1.273824e-02
N 1.609551e+00 -9.815320e-01 1.910020e+00 -1.719032e-02 2.764361e-02 -4.040294e-02
N 1.609551e+00 -9.815320e-01 6.926975e+00 -1.682817e-02 2.715647e-02 1.603609e-02
N 1.609551e+00 -9.815320e-01 -3.370038e+00 -1.677674e-02 9.738034e-03 1.044964e-02
N 3.128588e+00 1.806291e+00 1.910020e+00 -1.740257e-02 8.779913e-03 -2.853649e-02
N 3.128588e+00 1.806291e+00 6.926975e+00 -1.733896e-02 -1.277317e-02 9.600434e-03
N 3.128588e+00 1.806291e+00 -3.370038e+00 1.017342e-03 -2.292834e-03 1.900690e-03
N 6.302433e+00 -3.690969e+00 1.910020e+00 6.156838e-04 -2.213429e-02 -3.963522e-02
N 6.302433e+00 -3.690969e+00 6.926975e+00 -1.832439e-02 -1.096913e-02 1.014875e-02
N 6.302433e+00 -3.690969e+00 -3.370038e+00 5.426397e-04 -5.876759e-04 -2.075044e-02
N 4.738139e+00 -9.815320e-01 1.910020e+00 -1.409477e-04 1.837719e-02 -3.944605e-02
N 4.738139e+00 -9.815320e-01 6.926975e+00 -2.174154e-04 1.784016e-02 6.162031e-03
N 4.738139e+00 -9.815320e-01 -3.370038e+00 -7.371554e-04 1.782453e-02 6.411043e-03
N -3.219102e+00 1.806291e+00 1.910020e+00 3.238956e-03 -2.220735e-03 -4.478011e-02
N -3.219102e+00 1.806291e+00 6.926975e+00 2.822229e-03 -1.972283e-03 1.680171e-03
N -3.219102e+00 1.806291e+00 -3.370038e+00 2.853763e-03 1.995993e-02 9.113236e-03
N -4.525703e-02 -3.690969e+00 1.910020e+00 -1.651844e-02 -1.092602e-02 -4.765492e-02
N -4.525703e-02 -3.690969e+00 6.926975e+00 2.215798e-03 -3.202136e-05 2.166759e-03
N -4.525703e-02 -3.690969e+00 -3.370038e+00 2.122669e-02 -1.084275e-02 9.865911e-03
N -1.609551e+00 -9.815320e-01 1.910020e+00 1.246781e-03 1.865426e-02 -4.003085e-02
N -1.609551e+00 -9.815320e-01 6.926975e+00 1.076896e-03 1.793547e-02 6.036370e-03
N -1.609551e+00 -9.815320e-01 -3.370038e+00 1.747979e-03 1.813436e-02 5.991029e-03
