108
Energy=-940194.436109 Lattice="9.457430 0.000000 0.000000 -4.729702 8.185785 0.000000 -0.002953 -0.000212 15.219345" Stress="0.000003 -0.000001 -0.000000 -0.000001 -0.000001 -0.000000 -0.000000 -0.000000 0.000006" Properties=species:S:1:pos:R:3:forces:R:3
Al 1.558780 0.876632 2.391394 0.000021 0.000033 0.000054
Al 1.557912 0.869280 7.474180 0.000019 0.000038 -0.000027
Al 1.558847 0.880810 -2.709334 -0.000002 0.000227 -0.000004
Al -0.019470 3.599856 2.373014 0.000062 -0.000034 -0.000017
Al -0.029717 3.599398 7.489189 -0.000025 -0.000054 -0.000004
Al -0.015562 3.592492 -2.701085 -0.000026 -0.000021 -0.000071
Al 3.135447 -1.859452 2.425814 0.000063 -0.000017 0.000099
Al 3.131040 -1.856810 7.457090 -0.000040 0.000029 -0.000022
Al 3.134247 -1.851963 -2.720475 0.000050 -0.000055 -0.000006
Al -4.762883 0.868182 2.397395 -0.000073 -0.000037 -0.000002
Al -4.762609 0.866151 7.474560 0.000006 0.000010 0.000049
Al -4.759607 0.876683 -2.711553 -0.000114 -0.000080 -0.000035
Al -6.339288 3.587985 2.401828 -0.000177 -0.000141 -0.000002
Al -6.325579 3.591442 7.470581 0.000012 0.000016 0.000032
Al -6.342457 3.581684 -2.707735 0.000091 0.000015 0.000001
Al -3.175111 -1.861132 2.407112 -0.000230 0.000064 -0.000172
Al -3.178641 -1.850854 7.472057 0.000033 0.000042 0.000014
Ga -3.182876 -1.864055 -2.711979 -0.000022 -0.000001 0.000015
Al -1.593687 0.866254 2.390994 -0.000052 0.000145 0.000065
Al -1.597989 0.865397 7.484635 0.000021 0.000039 -0.000026
Al -1.595316 0.883153 -2.709125 0.000078 0.000093 -0.000124
Ga -3.165608 3.600569 2.398838 0.000098 -0.000092 -0.000027
Al -3.175963 3.606568 7.474096 0.000010 -0.000024 0.000040
Ga -3.166336 3.589590 -2.701957 0.000012 -0.000015 0.000025
Al -0.027016 -1.849831 2.436575 0.000100 0.000065 0.000124
Al -0.023340 -1.855687 7.457689 0.000011 -0.000057 -0.000043
Ga -0.014690 -1.848127 -2.724309 -0.000044 -0.000062 0.000008
Ga -0.018608 1.775250 4.940001 0.000016 0.000031 0.000068
Al -0.020799 1.779166 -5.228348 0.000014 0.000112 0.000043
Al -0.022337 1.793362 -0.161329 0.000134 -0.000004 -0.000121
Al 3.129184 -3.663175 4.954066 0.000165 0.000035 -0.000007
Al 3.136476 -3.673703 -5.240561 -0.000018 0.000085 0.000039
Al 3.150715 -3.681562 -0.156882 -0.000043 0.000122 -0.000056
Al 1.558289 -0.952578 4.935659 -0.000078 0.000070 -0.000008
Al 1.562376 -0.944976 -5.249006 -0.000070 0.000060 -0.000009
Ga 1.567666 -0.939961 -0.130838 -0.000056 0.000082 -0.000088
Al 3.131220 1.771319 4.939303 -0.000085 -0.000013 0.000012
Al 3.130224 1.779529 -5.228415 0.000031 0.000018 0.000039
Al 3.125218 1.787007 -0.161008 0.000019 -0.000011 0.000006
Ga 6.282282 -3.673330 4.941585 -0.000015 -0.000033 -0.000007
Al 6.284352 -3.683844 -5.246567 0.000038 0.000001 -0.000028
Al 6.275958 -3.701549 -0.139080 0.000019 -0.000041 -0.000078
Al 4.697451 -0.947516 4.933931 -0.000102 0.000089 0.000059
Al 4.701417 -0.944778 -5.239787 -0.000050 -0.000026 0.000038
Ga 4.697182 -0.944321 -0.138878 -0.000049 -0.000030 -0.000088
Ga -3.186527 1.773142 4.955065 0.000030 -0.000033 0.000008
Al -3.176005 1.775180 -5.246186 0.000002 0.000027 -0.000021
Al -3.172108 1.773544 -0.150996 -0.000011 0.000068 0.000003
Al -0.026495 -3.670045 4.947515 -0.000023 0.000094 0.000059
Al -0.025571 -3.680678 -5.252234 0.000020 -0.000022 0.000084
Ga -0.034894 -3.693854 -0.133374 -0.000024 0.000011 -0.000177
Al -1.598903 -0.953211 4.940052 0.000142 0.000006 0.000117
Al -1.597694 -0.942665 -5.250381 -0.000061 -0.000024 0.000101
Ga -1.601252 -0.933828 -0.126615 -0.000058 -0.000031 -0.000157
N 1.594468 0.850512 4.309262 0.000073 0.000036 -0.000019
N 1.556999 0.873943 -5.830767 0.000038 0.000030 0.000001
N 1.553141 0.916077 -0.782343 -0.000085 -0.000084 0.000096
N -0.068692 3.622874 4.285351 0.000059 0.000035 0.000147
N -0.024912 3.596269 -5.825213 -0.000033 -0.000017 -0.000008
N -0.019329 3.599071 -0.768537 -0.000004 0.000011 0.000017
N 3.129683 -1.862737 4.345677 0.000008 -0.000004 0.000014
N 3.133079 -1.858145 -5.847691 0.000002 -0.000002 -0.000010
N 3.128919 -1.901910 -0.809550 -0.000008 -0.000184 0.000184
N -4.795538 0.850070 4.312448 0.000129 -0.000028 -0.000013
N -4.758219 0.870254 -5.833486 0.000061 0.000044 -0.000028
N -4.753000 0.918923 -0.785975 0.000072 -0.000037 0.000034
N -6.290811 3.570267 4.319167 -0.000035 0.000012 0.000121
N -6.326157 3.591835 -5.839972 -0.000044 -0.000003 -0.000004
N -6.373040 3.575429 -0.786368 -0.000007 0.000109 0.000020
N -3.177271 -1.812187 4.321965 -0.000001 -0.000164 -0.000074
N -3.176871 -1.855529 -5.829924 -0.000024 0.000034 0.000011
N -3.174728 -1.908658 -0.738243 0.000009 0.000021 -0.000026
N -1.601019 0.828371 4.297833 -0.000005 0.000079 -0.000026
N -1.594137 0.872925 -5.829961 0.000095 -0.000056 -0.000012
N -1.597055 0.918404 -0.785210 -0.000152 -0.000047 0.000169
N -3.172930 3.645980 4.375291 -0.000029 -0.000097 -0.000090
N -3.171462 3.602970 -5.828669 0.000008 -0.000062 -0.000024
N -3.133479 3.576333 -0.718810 -0.000019 -0.000002 -0.000055
N -0.024216 -1.856464 4.355447 0.000022 -0.000113 0.000029
N -0.018890 -1.855851 -5.841284 0.000011 -0.000070 0.000024
N -0.019707 -1.856347 -0.764493 0.000028 -0.000141 0.000000
N -0.021235 1.777592 1.772353 0.000001 -0.000022 0.000062
N -0.023194 1.780336 6.917357 0.000030 0.000017 -0.000006
N -0.021078 1.780784 -3.304408 -0.000000 0.000044 -0.000026
N 3.174743 -3.645061 1.758742 -0.000127 0.000151 -0.000182
N 3.134171 -3.678714 6.870677 0.000033 0.000055 -0.000005
N 3.176116 -3.654947 -3.327025 -0.000005 0.000033 -0.000008
N 1.556668 -0.952736 1.855133 -0.000037 -0.000020 0.000007
N 1.554041 -0.945704 6.859501 -0.000093 0.000066 0.000032
N 1.600020 -0.918287 -3.336290 -0.000057 -0.000152 -0.000032
N 3.129824 1.779807 1.767945 0.000001 0.000028 0.000068
N 3.127096 1.777666 6.858602 -0.000003 0.000017 -0.000019
N 3.129732 1.779162 -3.310952 -0.000024 -0.000029 -0.000014
N 6.286650 -3.680797 1.789894 0.000006 0.000005 0.000077
N 6.279384 -3.678930 6.920802 -0.000036 0.000002 -0.000081
N 6.282527 -3.728827 -3.334401 -0.000038 0.000022 0.000048
N 4.700889 -0.950000 1.843585 0.000120 -0.000153 0.000176
N 4.706101 -0.946873 6.857587 -0.000045 -0.000012 -0.000043
N 4.666257 -0.920665 -3.327450 0.000106 0.000060 -0.000066
N -3.177910 1.727089 1.770156 0.000078 0.000068 -0.000013
N -3.178021 1.776841 6.930717 0.000024 -0.000051 -0.000041
N -3.176424 1.731007 -3.332066 0.000042 0.000053 0.000026
N -0.068130 -3.651512 1.837731 0.000125 0.000028 0.000029
N -0.026669 -3.677745 6.868655 -0.000004 0.000001 0.000003
N -0.064274 -3.706570 -3.342391 0.000037 0.000024 -0.000080
N -1.595786 -0.950858 1.848725 -0.000028 -0.000132 -0.000021
N -1.602245 -0.946593 6.863791 -0.000010 0.000009 0.000009
N -1.601044 -0.897607 -3.347073 -0.000032 -0.000180 -0.000152
