108
Energy=-1.443725e+06 Lattice="9.516997e+00 0.000000e+00 0.000000e+00 -4.762351e+00 8.239037e+00 0.000000e+00 -5.594118e-03 6.086890e-03 1.536526e+01" Stress="1.520875e-04 -1.677175e-04 -3.339323e-04 -1.644444e-04 -3.591764e-04 2.021601e-04 -3.326847e-04 2.094340e-04 2.454167e-04" Properties=species:S:1:pos:R:3:forces:R:3 Config_type=AlGaN_super3_22_0_24.xyz
Al 1.563067e+00 8.834328e-01 2.435232e+00 -1.778388e-04 -1.949957e-04 5.230092e-05
Al 1.550217e+00 8.740828e-01 7.510172e+00 -8.980657e-05 -4.945547e-05 1.764330e-04
Al 1.567691e+00 8.778068e-01 -2.712118e+00 -6.470545e-05 5.532931e-06 7.037388e-06
Al -2.666611e-02 3.616323e+00 2.427250e+00 -9.713429e-05 1.268226e-05 2.382326e-05
Al -4.133766e-02 3.604708e+00 7.511944e+00 7.219639e-06 1.301043e-05 6.927956e-05
Al -3.130276e-03 3.616688e+00 -2.693251e+00 3.302854e-05 6.135617e-05 1.325455e-04
Al 3.151830e+00 -1.867362e+00 2.428078e+00 -6.669075e-05 -9.042083e-05 -2.002832e-04
Ga 3.129155e+00 -1.864433e+00 7.545695e+00 -2.347227e-06 -1.678232e-05 5.168601e-05
Ga 3.157506e+00 -1.853444e+00 -2.729404e+00 9.291159e-05 -8.861415e-06 7.697685e-05
Ga -4.797716e+00 8.751382e-01 2.416540e+00 1.908406e-05 -1.399351e-05 9.748700e-05
Al -4.779133e+00 8.909039e-01 7.533876e+00 -6.007119e-05 -1.330440e-04 2.481948e-04
Al -4.785882e+00 8.695853e-01 -2.712362e+00 4.996635e-04 -1.804905e-04 4.729917e-04
Ga -6.382987e+00 3.608978e+00 2.394436e+00 -4.750218e-05 -7.388371e-06 1.020653e-04
Ga -6.367358e+00 3.611833e+00 7.550901e+00 -7.510789e-05 1.506955e-05 8.905640e-05
Al -6.367839e+00 3.623867e+00 -2.702679e+00 1.383641e-05 5.255629e-04 6.767244e-05
Ga -3.196222e+00 -1.866671e+00 2.390869e+00 -4.908949e-06 2.962214e-06 9.144942e-05
Ga -3.185955e+00 -1.853713e+00 7.554715e+00 -9.436865e-05 -4.826265e-05 1.434061e-04
Al -3.187783e+00 -1.868032e+00 -2.706259e+00 7.305298e-05 -1.049846e-05 -2.623595e-06
Al -1.596547e+00 8.730364e-01 2.439711e+00 -1.888812e-04 2.123773e-04 6.622567e-06
Al -1.610463e+00 8.838923e-01 7.524981e+00 6.866609e-05 -3.632481e-05 1.029577e-04
Ga -1.605943e+00 8.638369e-01 -2.729588e+00 -1.078886e-05 6.121828e-06 -1.321150e-05
Ga -3.182829e+00 3.625038e+00 2.434049e+00 -1.045878e-04 -2.302335e-05 -1.080564e-05
Al -3.193491e+00 3.611736e+00 7.535302e+00 8.543833e-05 9.214114e-05 -4.771367e-05
Ga -3.214036e+00 3.617999e+00 -2.720497e+00 9.174201e-05 -8.355202e-05 2.621008e-05
Ga -2.209109e-02 -1.850893e+00 2.418822e+00 -8.848759e-05 -5.899151e-05 1.185245e-04
Al -1.869174e-02 -1.847529e+00 7.543863e+00 -2.274007e-05 -1.577385e-04 1.507086e-05
Al -3.162220e-02 -1.870836e+00 -2.725403e+00 -5.188858e-04 -1.541642e-04 3.958516e-04
Al -2.993488e-02 1.784001e+00 4.968861e+00 1.205781e-05 -8.169058e-06 4.529914e-05
Ga -2.483844e-02 1.774951e+00 -5.286815e+00 1.001502e-04 8.375105e-05 8.623707e-05
Ga -9.545777e-03 1.788900e+00 -1.259061e-01 -7.764018e-05 1.724556e-05 -5.774808e-05
Al 3.149348e+00 -3.706003e+00 4.981132e+00 2.071643e-05 -8.632229e-05 1.997391e-04
Ga 3.144983e+00 -3.708990e+00 -5.277744e+00 6.315119e-05 -5.476648e-05 4.874978e-05
Ga 3.165900e+00 -3.694002e+00 -1.357714e-01 -1.504704e-04 1.358818e-04 -1.495159e-04
Al 1.558612e+00 -9.415432e-01 4.973125e+00 -6.062754e-05 4.468865e-05 1.553677e-04
Al 1.547420e+00 -9.558973e-01 -5.272685e+00 1.873998e-05 1.736115e-04 -3.095268e-05
Ga 1.562919e+00 -9.495619e-01 -1.444308e-01 -1.401380e-04 8.686213e-06 1.283196e-05
Al 3.139017e+00 1.778627e+00 4.993767e+00 -2.398885e-05 -7.588260e-06 -2.865301e-05
Ga 3.163226e+00 1.769371e+00 -5.257994e+00 -1.554946e-05 1.403230e-05 1.275189e-05
Al 3.148764e+00 1.793399e+00 -1.805308e-01 1.489655e-04 -5.814717e-05 -1.452104e-04
Ga 6.311573e+00 -3.708908e+00 4.977826e+00 -1.951567e-05 4.089657e-05 -8.704926e-05
Ga 6.324114e+00 -3.693538e+00 -5.239723e+00 3.510070e-05 9.851854e-05 2.522991e-04
Al 6.333575e+00 -3.696001e+00 -1.762016e-01 8.472173e-05 5.549406e-05 2.762928e-05
Ga 4.726006e+00 -9.453939e-01 4.980150e+00 -6.854497e-05 -3.950599e-05 4.930242e-06
Al 4.749746e+00 -9.367370e-01 -5.264215e+00 1.646465e-04 -2.673056e-05 -2.867933e-05
Al 4.746367e+00 -9.517154e-01 -1.578667e-01 -1.452745e-05 6.774385e-05 1.996831e-05
Al -3.185103e+00 1.788298e+00 4.995590e+00 -3.226088e-06 -1.496272e-04 -5.636932e-05
Al -3.203237e+00 1.777636e+00 -5.297121e+00 -8.689540e-05 -1.890590e-04 5.004535e-04
Ga -3.207883e+00 1.776688e+00 -1.440250e-01 8.967241e-05 -4.092532e-05 4.651102e-06
Ga -1.292949e-02 -3.693956e+00 5.004852e+00 3.030687e-05 8.993169e-05 2.536022e-05
Al -1.146274e-02 -3.687526e+00 -5.277443e+00 -1.101719e-04 -8.013892e-05 9.822366e-05
Al -4.284668e-02 -3.694681e+00 -1.679684e-01 5.554835e-05 -1.734854e-05 -7.182282e-05
Al -1.596984e+00 -9.309471e-01 4.995095e+00 -7.444470e-05 -1.132162e-05 -1.743026e-04
Al -1.598892e+00 -9.591897e-01 -5.271569e+00 -2.140149e-04 -4.404064e-05 3.337564e-05
Al -1.613840e+00 -9.687386e-01 -1.665854e-01 1.595647e-05 8.753057e-05 -9.763827e-05
N 1.565086e+00 8.821894e-01 4.366039e+00 4.869092e-05 -6.383783e-05 -5.027059e-05
N 1.568093e+00 8.259558e-01 -5.937764e+00 -2.930046e-05 -1.470427e-04 -1.226579e-04
N 1.597176e+00 8.954593e-01 -8.063634e-01 5.618657e-05 -1.775891e-05 9.992774e-06
N -6.893333e-02 3.598203e+00 4.346895e+00 2.679921e-05 9.259530e-05 -9.923781e-05
N -1.930332e-02 3.618253e+00 -5.949404e+00 2.415843e-05 -1.024837e-05 -1.616466e-04
N 1.517755e-02 3.637076e+00 -7.885988e-01 -3.258666e-05 -5.419311e-05 1.325229e-05
N 3.105492e+00 -1.893604e+00 4.353739e+00 8.713328e-05 6.712458e-05 -8.535404e-05
N 3.149912e+00 -1.820622e+00 -5.835648e+00 -1.640556e-04 -5.528002e-05 -3.992847e-05
N 3.189957e+00 -1.843151e+00 -7.610563e-01 3.699589e-05 3.342979e-05 -3.307273e-05
N -4.785061e+00 9.312274e-01 4.394311e+00 1.614874e-04 5.973866e-05 2.519346e-05
N -4.743049e+00 8.516679e-01 -5.916420e+00 -1.616265e-05 1.492077e-04 -2.647126e-04
N -4.819240e+00 8.495657e-01 -7.907569e-01 -8.078967e-05 4.715505e-05 -2.029097e-05
N -6.366839e+00 3.573913e+00 4.375302e+00 1.126715e-04 -4.156746e-05 1.523487e-05
N -6.330670e+00 3.638160e+00 -5.848414e+00 4.204892e-05 -5.755221e-05 -5.967656e-05
N -6.365718e+00 3.622564e+00 -7.729018e-01 -1.860112e-05 -6.697678e-06 9.436469e-06
N -3.149065e+00 -1.841338e+00 4.369792e+00 9.301169e-05 7.566062e-05 3.759522e-05
N -3.189927e+00 -1.826078e+00 -5.839346e+00 6.214373e-05 -1.038870e-05 -1.413486e-04
N -3.194253e+00 -1.865130e+00 -7.706571e-01 -9.000806e-06 4.030800e-06 -4.143508e-06
N -1.613134e+00 8.746976e-01 4.370582e+00 8.247558e-05 -6.821010e-05 -3.867488e-05
N -1.648574e+00 8.459558e-01 -5.911831e+00 1.016268e-04 1.004856e-04 -2.555897e-04
N -1.604751e+00 8.315654e-01 -7.604500e-01 3.313993e-05 -1.365379e-04 -1.595955e-05
N -3.161433e+00 3.598304e+00 4.409390e+00 4.920510e-05 6.047866e-05 -5.709817e-05
N -3.237348e+00 3.592937e+00 -5.905493e+00 -2.478382e-05 1.381101e-04 -1.609378e-04
N -3.236847e+00 3.645623e+00 -7.465897e-01 -4.150953e-05 -9.674843e-05 -8.574933e-06
N -2.874266e-02 -1.820539e+00 4.393809e+00 8.559544e-05 1.529316e-06 -4.486472e-05
N -1.962708e-02 -1.866243e+00 -5.892871e+00 -6.036400e-06 -1.255569e-04 7.228766e-05
N -6.009688e-02 -1.890192e+00 -7.961767e-01 5.222314e-05 -4.468920e-05 -9.014532e-05
N -2.143435e-02 1.789020e+00 1.867697e+00 1.117248e-04 -5.762983e-05 -5.169831e-05
N -2.892435e-02 1.788979e+00 6.903080e+00 -1.431965e-05 1.291280e-05 -5.102227e-05
N 2.181805e-02 1.815455e+00 -3.308621e+00 6.106234e-05 6.247737e-05 2.324981e-05
N 3.196554e+00 -3.674834e+00 1.841415e+00 -6.514543e-05 -4.721691e-05 -5.323491e-06
N 3.146291e+00 -3.741607e+00 6.906377e+00 -7.010472e-05 -2.491267e-06 -1.574273e-04
N 3.197195e+00 -3.733374e+00 -3.309266e+00 1.295009e-05 7.518764e-05 -3.305795e-05
N 1.606129e+00 -9.245232e-01 1.838448e+00 -6.764872e-05 5.843641e-05 -3.929499e-05
N 1.519566e+00 -9.295578e-01 6.891979e+00 9.310016e-05 8.301983e-06 -1.536077e-04
N 1.514690e+00 -9.282707e-01 -3.349735e+00 1.904371e-04 1.950815e-04 -5.402244e-05
N 3.101325e+00 1.762624e+00 1.738578e+00 6.103807e-05 4.110283e-05 -2.337859e-05
N 3.144131e+00 1.743935e+00 6.909503e+00 1.460409e-04 4.459634e-05 -8.559876e-05
N 3.152587e+00 1.789127e+00 -3.272023e+00 -2.457796e-04 -1.814412e-04 -1.470725e-04
N 6.277379e+00 -3.726564e+00 1.748407e+00 1.915991e-05 4.513782e-05 -2.011321e-05
N 6.280651e+00 -3.719741e+00 6.943423e+00 5.890954e-05 2.406517e-05 -2.049622e-04
N 6.325195e+00 -3.700860e+00 -3.256043e+00 4.011633e-05 -5.290267e-05 -6.791822e-06
N 4.692577e+00 -9.747718e-01 1.761385e+00 -4.537508e-05 3.441681e-06 5.678196e-05
N 4.730044e+00 -9.080518e-01 6.943363e+00 1.297631e-05 6.339947e-05 -1.111456e-04
N 4.786565e+00 -9.270981e-01 -3.346997e+00 -1.159115e-04 4.377530e-05 -1.533958e-06
N -3.153427e+00 1.764187e+00 1.825895e+00 2.932416e-05 -7.902112e-05 5.148188e-05
N -3.196106e+00 1.791321e+00 6.923074e+00 8.052924e-06 -2.901064e-05 1.458669e-05
N -3.238622e+00 1.763526e+00 -3.376755e+00 -2.232590e-05 7.603301e-05 -2.578680e-04
N -2.033343e-02 -3.696368e+00 1.746914e+00 -6.673865e-05 8.526986e-05 -9.160226e-05
N 1.851455e-02 -3.668781e+00 6.976285e+00 -2.136147e-05 4.485910e-05 1.925339e-07
N -6.190484e-02 -3.674309e+00 -3.353779e+00 -1.739521e-05 -1.036809e-04 -7.937926e-06
N -1.605457e+00 -9.023187e-01 1.748462e+00 7.641734e-06 -9.285098e-05 -9.796137e-05
N -1.567634e+00 -9.260428e-01 6.910469e+00 3.386078e-05 3.247515e-05 1.599823e-04
N -1.606276e+00 -1.006329e+00 -3.353780e+00 8.317533e-05 5.330496e-05 -2.659323e-05
