108
Energy=-1764153.183019 Lattice="9.558936 0.000000 0.000000 -4.786013 8.274727 0.000000 -0.002802 -0.002650 15.460434" Stress="0.000004 -0.000002 -0.000000 -0.000002 0.000001 -0.000001 -0.000000 -0.000001 0.000004" Properties=species:S:1:pos:R:3:forces:R:3
Al 1.575931 0.877548 2.433653 0.000430 0.000300 -0.000219
Al 1.578261 0.888412 7.567508 -0.000421 0.000026 0.000090
Al 1.564751 0.885772 -2.729223 0.000294 0.000038 0.000657
Al -0.025478 3.630830 2.449908 -0.000014 0.000228 0.000149
Al -0.007187 3.632378 7.576013 -0.000053 0.000351 0.000157
Al -0.022607 3.622797 -2.749460 -0.000048 -0.000009 0.000658
Al 3.145854 -1.881775 2.429158 0.000084 -0.000056 0.000395
Al 3.160891 -1.874591 7.582881 -0.000007 -0.000146 0.000374
Ga 3.155358 -1.886637 -2.724158 0.000106 -0.000008 0.000394
Ga -4.819650 0.901011 2.450707 0.000167 -0.000063 0.000040
Ga -4.831124 0.888576 7.570650 0.000631 -0.000054 0.000315
Ga -4.826770 0.887145 -2.730023 0.000222 -0.000120 0.000296
Al -6.409060 3.623335 2.449977 0.000263 -0.000591 0.000112
Al -6.418997 3.626809 7.566883 0.000317 0.000127 -0.000451
Ga -6.406344 3.626455 -2.737563 -0.000021 -0.000056 0.000365
Ga -3.211604 -1.896927 2.456396 0.000088 0.000066 0.000010
Ga -3.221617 -1.906973 7.587514 -0.000022 -0.000045 -0.000022
Ga -3.209046 -1.893730 -2.744480 -0.000123 0.000044 0.000126
Al -1.610759 0.900202 2.444688 0.000053 -0.000055 -0.000115
Ga -1.605669 0.900540 7.588572 0.000230 -0.000159 0.000387
Ga -1.596072 0.897112 -2.733234 0.000495 -0.000269 -0.000232
Al -3.207015 3.636962 2.461666 -0.000043 0.000010 0.000147
Ga -3.217348 3.645407 7.553323 0.000010 0.000003 0.000242
Al -3.207327 3.650594 -2.723006 0.000077 -0.000212 0.000248
Ga 0.004969 -1.876104 2.449680 0.000323 -0.000010 0.000218
Ga -0.001262 -1.883596 7.551303 0.000032 -0.000298 0.000202
Al -0.004359 -1.875760 -2.707758 0.000090 -0.000114 0.000338
Ga -0.006717 1.797223 4.989354 -0.000328 0.000284 0.000633
Al 0.009042 1.813093 -5.313217 -0.000352 0.000157 0.000139
Ga -0.000280 1.794269 -0.124990 0.000006 0.000180 0.000197
Ga 3.164109 -3.711109 4.999259 -0.000202 0.000143 0.000120
Ga 3.193683 -3.721813 -5.314510 -0.000146 0.000345 0.000261
Ga 3.166264 -3.723518 -0.127389 -0.000030 0.000298 -0.000173
Al 1.587609 -0.949648 5.007744 0.000260 -0.000361 0.000015
Ga 1.586378 -0.933435 -5.304422 -0.000487 0.000092 0.000592
Al 1.577802 -0.944099 -0.149658 -0.000478 0.000373 0.000292
Al 3.150427 1.815833 5.006419 0.000265 -0.000229 -0.000578
Al 3.138329 1.803198 -5.327136 0.000806 -0.000570 0.000027
Al 3.142334 1.791087 -0.132077 -0.000099 -0.000005 0.001104
Al 6.362806 -3.739905 5.013095 0.000831 0.000021 -0.000272
Al 6.347713 -3.737069 -5.321571 0.000046 0.000212 0.000065
Ga 6.350167 -3.738120 -0.133674 0.000367 -0.000009 0.000480
Ga 4.739296 -0.954758 5.008172 -0.000152 0.000078 -0.000072
Al 4.752086 -0.959628 -5.319120 -0.000125 0.000256 -0.000025
Ga 4.743792 -0.953810 -0.122101 -0.000253 0.000021 -0.000047
Al -3.220422 1.809999 4.991265 -0.000095 0.000132 0.000068
Ga -3.221766 1.799385 -5.293565 -0.000384 -0.000240 0.000260
Ga -3.220194 1.810714 -0.129518 -0.000024 -0.000140 -0.000249
Al -0.037101 -3.733303 4.989778 0.000454 -0.001188 0.000154
Ga -0.036060 -3.721766 -5.296640 0.000061 -0.000087 0.000324
Ga -0.016868 -3.721246 -0.133611 -0.000202 0.000093 -0.000062
Ga -1.609621 -0.957291 5.005676 -0.000568 0.000376 -0.000004
Ga -1.613435 -0.961017 -5.296734 -0.000531 0.000061 -0.000062
Ga -1.599165 -0.958866 -0.133470 -0.000248 -0.000081 -0.000101
N 1.617962 0.850860 4.356596 -0.000125 0.000280 0.000403
N 1.570789 0.926471 -5.970085 -0.000167 -0.000037 -0.000231
N 1.608986 0.860131 -0.791672 0.000538 -0.000131 -0.000881
N 0.016257 3.663618 4.357899 -0.000509 -0.000263 -0.000407
N 0.020542 3.612359 -5.961462 0.000092 -0.000178 -0.000106
N -0.026622 3.630398 -0.826970 -0.000166 -0.000070 0.000069
N 3.117911 -1.854435 4.340661 -0.000342 -0.000020 -0.000196
N 3.200732 -1.855651 -5.958993 -0.000043 0.000002 -0.000385
N 3.126346 -1.861507 -0.746309 -0.000121 -0.000022 -0.000175
N -4.814993 0.934404 4.430185 -0.000041 0.000124 0.000009
N -4.851451 0.863480 -5.901321 0.000341 -0.000041 -0.000307
N -4.853224 0.904785 -0.742247 0.000209 0.000262 -0.000322
N -6.407225 3.634873 4.379077 0.000223 -0.000257 -0.000571
N -6.437426 3.615485 -5.957827 -0.000188 0.000413 -0.000242
N -6.399546 3.585110 -0.756405 0.000154 -0.000125 -0.000577
N -3.211304 -1.931438 4.425116 0.000158 -0.000123 -0.000147
N -3.246172 -1.907788 -5.887687 -0.000113 -0.000101 -0.000004
N -3.210112 -1.883488 -0.764138 -0.000050 0.000174 0.000209
N -1.657904 0.908725 4.356190 0.000303 -0.000089 -0.000261
N -1.573941 0.914077 -5.893047 0.000632 -0.000152 -0.000018
N -1.613425 0.888418 -0.761978 0.000377 -0.000071 0.000279
N -3.254263 3.620117 4.380835 0.000032 -0.000081 -0.000311
N -3.215512 3.643629 -5.939073 0.000156 -0.000147 -0.000286
N -3.211023 3.642781 -0.814053 0.000107 -0.000118 0.000158
N 0.031067 -1.901214 4.434783 -0.000038 0.000696 -0.000419
N -0.010696 -1.876998 -5.940443 0.000362 -0.000252 -0.000355
N 0.024343 -1.856124 -0.783580 0.000471 -0.000260 0.000024
N -0.015581 1.798090 1.872168 -0.000532 0.000188 -0.000187
N 0.021240 1.821023 6.973718 -0.000154 0.000000 -0.000236
N 0.029253 1.821162 -3.381851 -0.000013 0.000217 -0.000411
N 3.166741 -3.725183 1.871622 -0.000103 -0.000016 0.000112
N 3.214698 -3.692352 6.988937 0.000097 0.000049 -0.000266
N 3.172112 -3.767764 -3.327132 0.000040 0.000102 -0.000303
N 1.612188 -0.929400 1.777891 -0.000225 -0.000072 -0.000403
N 1.623984 -0.928477 6.934160 -0.000029 0.000041 0.000117
N 1.534767 -0.930978 -3.318358 -0.000487 0.000335 -0.000457
N 3.113030 1.824546 1.794877 -0.000131 0.000045 -0.000491
N 3.111848 1.826752 6.927231 0.000034 0.000377 0.000476
N 3.111267 1.773684 -3.408591 -0.000256 0.000162 0.000231
N 6.351229 -3.772526 1.846618 -0.000230 -0.000018 -0.000660
N 6.352614 -3.772018 6.933201 -0.000074 -0.000132 0.000644
N 6.312476 -3.749537 -3.401365 -0.000031 -0.000136 -0.000386
N 4.717990 -0.979714 1.851356 -0.000221 0.000136 -0.000104
N 4.715016 -0.982993 6.978338 -0.000320 -0.000130 -0.000170
N 4.753462 -0.959227 -3.404477 -0.000311 0.000009 -0.000207
N -3.172303 1.827655 1.851922 0.000136 0.000256 0.000157
N -3.212047 1.795614 6.903004 0.000004 -0.000049 -0.000382
N -3.217303 1.847900 -3.322433 0.000020 0.000113 0.000171
N -0.020546 -3.768541 1.857748 -0.000090 0.000045 0.000029
N -0.072789 -3.748650 6.908455 -0.000491 -0.000181 0.000044
N 0.016555 -3.691390 -3.308989 0.000157 0.000175 -0.000162
N -1.609297 -0.914342 1.848363 -0.000146 0.000114 -0.000027
N -1.619402 -0.954088 6.971442 -0.000274 -0.000067 -0.000150
N -1.566284 -0.983844 -3.321779 -0.000175 -0.000116 0.000106
