108
Energy=-894419.012575 Lattice="9.451220 0.000000 0.000000 -4.730741 8.182217 0.000000 -0.005023 -0.003537 15.207236" Stress="0.000004 -0.000001 -0.000001 -0.000001 0.000001 -0.000001 -0.000001 -0.000001 0.000008" Properties=species:S:1:pos:R:3:forces:R:3
Al 1.562592 0.881516 2.384579 0.000050 0.000504 0.000123
Al 1.563525 0.870229 7.455255 -0.000050 -0.000474 -0.000428
Al 1.552711 0.883441 -2.676948 0.000063 -0.000004 -0.000134
Al -0.019037 3.602448 2.374626 -0.000232 0.000120 -0.000580
Al -0.027359 3.605312 7.453683 -0.000221 -0.000124 0.000084
Al -0.033223 3.587101 -2.672312 0.000071 0.000123 -0.000018
Al 3.149557 -1.858937 2.405527 -0.000023 0.000318 0.000020
Al 3.137083 -1.861158 7.450204 0.000209 -0.000013 -0.000183
Al 3.139707 -1.858117 -2.699571 0.000173 0.000060 -0.000152
Al -4.755896 0.863624 2.384279 0.000045 0.000085 -0.000198
Al -4.758075 0.865169 7.439752 0.000206 -0.000121 -0.000093
Al -4.750160 0.872379 -2.672573 0.000476 -0.000068 -0.000122
Al -6.340024 3.586651 2.389785 -0.000228 -0.000072 -0.000144
Al -6.332787 3.587175 7.429556 0.000078 0.000079 -0.000103
Al -6.318567 3.585542 -2.659702 -0.000061 0.000319 0.000070
Al -3.182433 -1.859738 2.381130 -0.000210 -0.000057 -0.000309
Al -3.189630 -1.863645 7.441800 -0.000651 -0.000113 0.000118
Ga -3.184781 -1.849937 -2.660812 0.000300 0.000270 0.000256
Al -1.606595 0.870110 2.376430 0.000297 0.000803 0.000627
Ga -1.615923 0.876160 7.470650 0.000531 0.000023 0.000300
Al -1.597266 0.889548 -2.686578 0.000072 -0.000407 -0.000171
Ga -3.169302 3.589314 2.387054 0.000609 0.000222 -0.000203
Al -3.179216 3.593044 7.453067 0.000336 -0.000253 0.000013
Al -3.170189 3.592726 -2.683935 0.000234 0.000149 0.000120
Ga -0.030772 -1.852961 2.404587 0.000485 -0.000068 -0.000202
Ga -0.021067 -1.866859 7.458099 0.000738 0.000238 -0.000061
Ga -0.015457 -1.857701 -2.688801 0.000188 0.000108 -0.000129
Ga -0.021703 1.779035 4.908836 -0.000559 0.000010 0.000019
Al -0.028456 1.777289 -5.209369 -0.000012 0.000010 0.000073
Al -0.029788 1.786578 -0.145511 0.000070 -0.000120 0.000118
Al 3.130286 -3.669213 4.932448 -0.000459 -0.000027 0.000070
Al 3.123866 -3.676983 -5.223747 -0.000234 0.000397 0.000135
Al 3.139700 -3.676864 -0.161074 -0.000363 0.000174 -0.000260
Al 1.567791 -0.951890 4.920164 0.000270 0.000032 0.000089
Al 1.563455 -0.949121 -5.215795 0.000247 0.000189 -0.000113
Ga 1.572358 -0.946544 -0.144880 -0.000732 0.000490 0.000706
Al 3.132595 1.775808 4.917405 0.000880 0.000483 0.000482
Ga 3.134050 1.773144 -5.216040 0.000284 0.000023 0.000403
Al 3.133751 1.788217 -0.149003 -0.000122 -0.000089 0.000098
Al 6.279599 -3.668923 4.913667 -0.000313 -0.000380 -0.000510
Ga 6.279455 -3.671810 -5.222049 0.000130 0.000196 0.000379
Al 6.281951 -3.681991 -0.139039 0.000214 -0.000209 0.000529
Al 4.704147 -0.950583 4.913904 -0.000269 0.000199 -0.000137
Al 4.704458 -0.943243 -5.234019 -0.000242 -0.000037 -0.000141
Al 4.705308 -0.944173 -0.130764 -0.000075 0.000099 0.000678
Al -3.189660 1.775985 4.918752 0.000331 -0.000686 -0.000187
Al -3.173947 1.784204 -5.205368 -0.000127 0.000116 0.000172
Al -3.174066 1.777013 -0.163522 -0.000179 0.000062 0.000076
Al -0.026008 -3.686126 4.929652 -0.000219 -0.000255 0.000226
Al -0.007023 -3.682900 -5.219640 0.000189 0.000755 0.000063
Al -0.026172 -3.688418 -0.150883 0.000194 -0.000091 0.000500
Al -1.615128 -0.953344 4.911975 0.000260 -0.000685 -0.000135
Al -1.599928 -0.939861 -5.218143 -0.000045 0.000439 0.001405
Al -1.606353 -0.934221 -0.134169 -0.000355 -0.000049 -0.000100
N 1.597619 0.850202 4.296307 -0.001012 -0.001083 -0.001143
N 1.513699 0.847679 -5.838209 -0.000235 0.000218 0.000054
N 1.549737 0.921225 -0.763602 0.000121 0.000150 -0.000035
N -0.032366 3.645036 4.288005 0.000953 0.000963 0.000710
N -0.065524 3.575899 -5.839475 -0.000105 -0.000288 -0.000285
N -0.024360 3.595612 -0.751109 0.000155 -0.000123 0.000250
N 3.133249 -1.864317 4.322223 0.000021 -0.000174 -0.000150
N 3.132130 -1.859051 -5.831520 0.000143 -0.000139 0.000096
N 3.179303 -1.878330 -0.786799 0.000281 -0.000352 0.000244
N -4.753595 0.868111 4.308286 0.000418 -0.000101 -0.000055
N -4.705188 0.851169 -5.852083 0.000511 -0.000072 0.000090
N -4.749364 0.866137 -0.751517 -0.000025 -0.000139 0.000210
N -6.330482 3.593858 4.315023 -0.000084 0.000134 0.000148
N -6.284086 3.619542 -5.871732 -0.000041 0.000113 -0.000227
N -6.324830 3.599106 -0.747469 -0.000342 -0.000035 0.000096
N -3.177882 -1.861219 4.303393 0.000065 0.000081 0.000064
N -3.170944 -1.810643 -5.849767 -0.000046 0.000136 -0.000155
N -3.174546 -1.854958 -0.684441 0.000228 0.000056 -0.000086
N -1.643734 0.846818 4.291580 -0.000464 0.000658 0.000180
N -1.602297 0.877292 -5.762808 0.000038 -0.000411 -0.000243
N -1.596527 0.875028 -0.761651 0.000409 -0.000289 0.000238
N -3.175171 3.597296 4.364375 0.000653 0.000206 -0.000124
N -3.172430 3.595496 -5.826939 0.000024 -0.000157 -0.000142
N -3.173305 3.601796 -0.757693 0.000133 -0.000327 0.000170
N -0.022627 -1.862016 4.382300 -0.000307 0.000997 0.000056
N -0.017884 -1.854458 -5.763026 -0.000340 -0.001200 -0.000245
N -0.060811 -1.875607 -0.714860 -0.000111 -0.000380 0.000471
N -0.024501 1.777532 1.784403 -0.000246 0.000106 -0.000173
N 0.012365 1.798269 6.878234 0.000260 0.000241 0.000255
N -0.019683 1.782919 -3.287603 0.000045 0.000032 0.000235
N 3.169258 -3.647652 1.753562 0.000344 -0.000476 0.000044
N 3.128191 -3.678670 6.853504 -0.000102 0.000137 0.000079
N 3.132667 -3.678246 -3.294830 -0.000134 0.000083 0.000021
N 1.601967 -0.928001 1.828130 -0.000177 -0.000284 -0.000736
N 1.597085 -0.929320 6.835303 -0.000337 0.000771 -0.000067
N 1.601911 -0.918374 -3.300988 -0.000183 0.000096 0.000504
N 3.129507 1.780844 1.774591 0.000191 -0.000176 -0.000080
N 3.123662 1.773392 6.840646 -0.000225 -0.000126 -0.000133
N 3.131303 1.781299 -3.237332 -0.000278 -0.000293 0.000408
N 6.283504 -3.679763 1.783618 -0.000155 0.000112 -0.000442
N 6.274236 -3.677167 6.840818 -0.000167 -0.000282 -0.000251
N 6.283116 -3.722132 -3.246207 -0.000051 -0.000512 0.000118
N 4.699422 -0.947194 1.790243 -0.000195 -0.000050 -0.000428
N 4.700658 -0.950911 6.836904 -0.000388 -0.000104 -0.000112
N 4.669379 -0.920039 -3.319519 -0.000632 0.000361 -0.000055
N -3.178852 1.731661 1.752268 -0.000114 -0.000126 -0.000307
N -3.219739 1.798491 6.829124 -0.000092 0.000449 -0.000396
N -3.179081 1.782311 -3.280336 -0.000179 -0.000131 0.000246
N -0.062638 -3.702117 1.756459 -0.000118 -0.000117 -0.000499
N -0.022456 -3.726492 6.835015 0.000005 -0.000277 -0.000043
N -0.019488 -3.727862 -3.303749 -0.000234 -0.000688 -0.000120
N -1.638187 -0.921858 1.774486 -0.000228 -0.000730 -0.000364
N -1.643908 -0.971515 6.818538 0.000251 0.000580 -0.000548
N -1.603306 -0.900358 -3.312841 -0.000150 0.000271 -0.000483
