108
Energy=-1535275.837764 Lattice="9.520106 0.000000 0.000000 -4.762310 8.242979 0.000000 0.001113 -0.002413 15.376034" Stress="-0.000014 -0.000001 0.000000 -0.000001 -0.000016 -0.000000 0.000000 -0.000000 -0.000017" Properties=species:S:1:pos:R:3:forces:R:3
Al 1.556819 0.871973 2.427408 0.000082 -0.000021 0.000129
Al 1.562834 0.867328 7.545394 0.000132 -0.000022 0.000112
Al 1.564904 0.873130 -2.728266 0.000152 -0.000021 0.000211
Al -0.026344 3.624864 2.410633 0.000001 -0.000598 0.000649
Al -0.025392 3.622880 7.549612 -0.000030 0.000029 -0.000180
Ga -0.013948 3.620570 -2.718300 0.000003 0.000051 0.000195
Al 3.145242 -1.880961 2.446766 -0.000326 0.001317 -0.000322
Ga 3.158289 -1.870405 7.522936 -0.000190 0.000192 0.000134
Al 3.150535 -1.862713 -2.731082 -0.000113 0.000161 0.000300
Ga -4.788311 0.874450 2.427302 0.000156 0.000116 -0.000192
Al -4.770734 0.870097 7.537759 0.000153 0.000142 -0.000114
Ga -4.791374 0.876037 -2.716874 0.000294 0.000090 0.000045
Al -6.372653 3.626676 2.403861 0.000026 -0.000095 0.000184
Ga -6.373403 3.622787 7.559418 -0.000101 0.000088 0.000165
Al -6.365017 3.631157 -2.718616 0.000044 0.000298 -0.000263
Ga -3.197037 -1.877038 2.395161 0.000036 0.000092 0.000202
Al -3.214470 -1.873682 7.547004 -0.000162 0.000026 -0.000008
Ga -3.207627 -1.882190 -2.689665 -0.000046 0.000067 0.000413
Al -1.601777 0.882567 2.427493 0.000033 -0.000117 0.000121
Ga -1.621409 0.897630 7.548501 0.000340 -0.000189 -0.000382
Ga -1.605343 0.893197 -2.722679 0.000171 -0.000188 0.000214
Al -3.192488 3.638454 2.426482 -0.000068 -0.001773 -0.000442
Al -3.192313 3.609941 7.533275 0.000251 0.000184 -0.000302
Al -3.211606 3.633786 -2.716084 -0.000465 -0.000494 0.001294
Al -0.016089 -1.872337 2.393112 0.000301 0.000242 0.000714
Ga -0.003834 -1.871131 7.555232 0.000235 -0.000082 0.000199
Ga -0.002135 -1.885971 -2.703002 0.000035 -0.000193 0.000309
Ga -0.025095 1.795596 4.970841 -0.000370 0.000518 -0.000112
Al -0.014914 1.793124 -5.289578 0.000456 0.000105 -0.000348
Ga -0.017514 1.787127 -0.116905 -0.000267 0.000024 0.000180
Al 3.144001 -3.703296 4.970122 0.002066 -0.000670 -0.000262
Ga 3.143729 -3.708467 -5.278561 -0.000244 0.000111 0.000014
Ga 3.150195 -3.685454 -0.140653 -0.000429 0.000033 0.000022
Al 1.574317 -0.958821 4.947933 -0.000368 -0.000975 0.001433
Al 1.571212 -0.949301 -5.261744 -0.000230 0.000080 0.000137
Ga 1.576607 -0.960690 -0.134235 -0.000360 -0.000166 0.000258
Ga 3.153004 1.774393 4.991930 0.000047 0.000161 0.000295
Ga 3.145028 1.786351 -5.278553 0.000225 0.000013 0.000070
Ga 3.143180 1.808502 -0.151057 -0.000059 -0.000481 -0.000059
Ga 6.306073 -3.699142 4.979703 -0.000164 -0.000065 -0.000002
Al 6.319775 -3.698277 -5.282342 0.000515 0.000409 0.000067
Al 6.341464 -3.696020 -0.136164 -0.000040 0.000146 0.000155
Al 4.729166 -0.957422 4.989227 0.000349 -0.000047 0.000622
Al 4.741142 -0.955916 -5.290395 -0.000023 0.000219 -0.000278
Al 4.737307 -0.969392 -0.140572 -0.000294 -0.000087 0.000073
Al -3.197453 1.798746 4.973024 0.000171 -0.000143 0.000810
Al -3.202894 1.803727 -5.282758 -0.001540 0.000087 0.000360
Ga -3.197141 1.798476 -0.131004 0.000125 -0.000134 -0.000123
Ga -0.002362 -3.704037 4.958096 -0.000184 0.000191 0.000341
Al -0.014325 -3.712157 -5.263773 0.000499 -0.000156 -0.000533
Al -0.037612 -3.709540 -0.134500 0.001438 0.002698 -0.000066
Ga -1.610247 -0.951000 4.976737 -0.000133 -0.000045 0.000202
Ga -1.616652 -0.960740 -5.283170 -0.000123 -0.000192 0.000147
Al -1.611621 -0.962873 -0.129295 0.000055 -0.000045 -0.000087
N 1.565422 0.830669 4.330219 0.000038 0.000476 -0.000453
N 1.521164 0.842840 -5.914625 -0.000159 0.000110 0.000035
N 1.557464 0.873275 -0.820413 0.000170 0.000076 -0.000080
N -0.064094 3.649015 4.319023 -0.001030 0.000627 0.000611
N 0.013990 3.604301 -5.905648 -0.000337 -0.000458 0.000075
N 0.019892 3.646198 -0.740693 0.000192 0.000044 -0.000101
N 3.156673 -1.874643 4.376964 -0.000065 -0.000005 -0.000077
N 3.148416 -1.825378 -5.872822 -0.000001 0.000163 -0.000003
N 3.193930 -1.843936 -0.817035 0.000081 -0.000011 -0.000033
N -4.742075 0.847960 4.401626 -0.000119 0.000059 -0.000131
N -4.740627 0.852656 -5.912860 0.000765 -0.000095 0.000477
N -4.781996 0.828680 -0.741865 0.000038 -0.000017 -0.000062
N -6.374593 3.621536 4.315378 -0.000030 -0.000007 -0.000334
N -6.369627 3.673863 -5.848481 -0.000027 0.000102 -0.000045
N -6.368197 3.680359 -0.788607 -0.000807 -0.000482 -0.000644
N -3.238833 -1.846845 4.363892 -0.000315 0.000121 -0.000166
N -3.242147 -1.895725 -5.915485 -0.000173 -0.000077 0.000169
N -3.196009 -1.871223 -0.696606 -0.000083 -0.000115 -0.000016
N -1.652407 0.899241 4.338996 0.000311 -0.000138 -0.000177
N -1.616216 0.931282 -5.853002 0.000650 -0.000380 -0.000090
N -1.609140 0.834977 -0.747981 0.000370 -0.000231 -0.000071
N -3.153852 3.600201 4.340037 -0.000335 0.000145 -0.000549
N -3.238653 3.600176 -5.925263 -0.000332 0.000340 0.000397
N -3.242556 3.653093 -0.792931 -0.000095 -0.000155 -0.001032
N 0.013605 -1.849500 4.311084 0.000443 0.000359 -0.000089
N 0.028583 -1.896849 -5.843218 -0.000038 -0.000125 0.000079
N -0.057140 -1.895208 -0.716934 0.000002 -0.001201 0.000296
N -0.020392 1.790382 1.864214 -0.000002 0.000118 -0.000296
N 0.021309 1.815398 6.952190 -0.000016 0.000280 -0.000036
N 0.022059 1.770647 -3.378453 -0.000136 0.000238 -0.000128
N 3.149844 -3.695971 1.849186 -0.000566 0.000155 -0.000388
N 3.153850 -3.756673 6.902634 -0.000396 -0.000082 0.000304
N 3.108382 -3.683904 -3.295506 0.000355 0.000194 -0.000131
N 1.574186 -0.955718 1.850646 0.000761 -0.000708 0.000176
N 1.566295 -0.910612 6.867857 -0.000408 0.000142 -0.001354
N 1.607240 -0.930971 -3.344123 -0.000154 0.000118 -0.000032
N 3.104807 1.814394 1.828857 -0.000131 0.000017 -0.000011
N 3.149766 1.742982 6.975603 0.000048 -0.000025 -0.000250
N 3.108672 1.818409 -3.296700 -0.000053 0.000065 0.000149
N 6.326613 -3.754606 1.778199 0.000246 -0.000086 -0.000353
N 6.282327 -3.682783 6.956501 0.000084 0.000003 -0.000093
N 6.365192 -3.719515 -3.368591 0.000217 -0.000252 0.000056
N 4.683324 -0.982940 1.766660 -0.000384 -0.000208 0.000208
N 4.779679 -0.932843 6.905855 0.000012 -0.000100 -0.000702
N 4.706022 -0.979472 -3.376870 -0.000163 -0.000035 -0.000188
N -3.156975 1.820367 1.839834 0.000112 0.000948 0.000398
N -3.238629 1.818151 6.896010 -0.000218 -0.000184 -0.000741
N -3.202599 1.846290 -3.364715 0.000189 0.000093 -0.000702
N -0.021343 -3.709340 1.798354 0.000206 -0.000104 -0.000101
N 0.019449 -3.726107 6.928137 0.000091 -0.000150 -0.000326
N -0.018764 -3.750426 -3.349653 -0.000237 -0.000275 0.000374
N -1.566926 -0.925313 1.788884 -0.000198 -0.000176 -0.000289
N -1.645023 -0.979414 6.957240 -0.000259 -0.000016 -0.000145
N -1.610598 -0.961595 -3.320145 -0.000177 0.000012 -0.000087
