108
Energy=-9.401903e+05 Lattice="9.476278e+00 0.000000e+00 0.000000e+00 -4.738139e+00 8.206697e+00 0.000000e+00 9.377101e-16 1.624162e-15 1.531397e+01" Stress="-2.402238e-03 5.468372e-03 -9.028462e-05 5.457544e-03 3.369407e-03 -4.394835e-04 -8.513304e-05 -4.334475e-04 1.122551e-02" Properties=species:S:1:pos:R:3:forces:R:3 Config_type=AlGaN_super3_11_2_0.xyz
Al 1.564294e+00 9.031460e-01 2.504900e+00 -1.239847e-03 -1.388809e-02 -1.255331e-02
Al 1.564294e+00 9.031460e-01 7.521855e+00 -1.153742e-03 -1.422827e-02 -5.305454e-03
Al 1.564294e+00 9.031460e-01 -2.775158e+00 -1.249804e-03 -1.447338e-02 -6.642876e-03
Al 2.938992e-08 3.612582e+00 2.504900e+00 -2.526001e-03 -1.567013e-03 -1.141495e-02
Al 2.938992e-08 3.612582e+00 7.521855e+00 -2.957663e-03 -1.121710e-03 -3.128235e-03
Al 2.938992e-08 3.612582e+00 -2.775158e+00 -2.900569e-03 -1.763763e-03 -4.768683e-03
Al 3.173845e+00 -1.884678e+00 2.504900e+00 -3.055761e-03 1.521023e-03 -1.217842e-02
Al 3.173845e+00 -1.884678e+00 7.521855e+00 -2.988552e-03 1.637625e-03 -5.208809e-03
Al 3.173845e+00 -1.884678e+00 -2.775158e+00 -3.406428e-03 2.045983e-03 -6.592933e-03
Al -4.783396e+00 9.031460e-01 2.504900e+00 1.006101e-03 -1.298682e-02 -1.119427e-02
Al -4.783396e+00 9.031460e-01 7.521855e+00 1.398488e-03 -1.292220e-02 -4.236095e-03
Al -4.783396e+00 9.031460e-01 -2.775158e+00 1.058379e-03 -1.313081e-02 -5.498540e-03
Al -6.347690e+00 3.612582e+00 2.504900e+00 -7.830674e-04 -3.754109e-04 -9.869341e-03
Al -6.347690e+00 3.612582e+00 7.521855e+00 -1.070897e-04 5.617297e-05 -2.503768e-03
Al -6.347690e+00 3.612582e+00 -2.775158e+00 -3.703689e-04 -5.442672e-04 -3.919397e-03
Al -3.173845e+00 -1.884678e+00 2.504900e+00 -3.925060e-04 2.600541e-03 -1.114239e-02
Al -3.173845e+00 -1.884678e+00 7.521855e+00 -3.404057e-04 3.089100e-03 -3.479954e-03
Ga -3.173845e+00 -1.884678e+00 -2.775158e+00 -8.002084e-04 3.288531e-03 -4.608904e-03
Al -1.654808e+00 9.031460e-01 2.504900e+00 1.407304e-02 -7.722613e-03 -1.265172e-02
Al -1.654808e+00 9.031460e-01 7.521855e+00 1.363381e-02 -7.707216e-03 -5.721255e-03
Al -1.654808e+00 9.031460e-01 -2.775158e+00 1.395450e-02 -7.740777e-03 -7.449821e-03
Ga -3.219102e+00 3.612582e+00 2.504900e+00 1.518842e-02 8.020094e-03 -1.305413e-02
Al -3.219102e+00 3.612582e+00 7.521855e+00 1.196308e-02 5.310666e-03 -3.932904e-03
Ga -3.219102e+00 3.612582e+00 -2.775158e+00 1.518133e-02 7.575620e-03 -6.436552e-03
Al -4.525702e-02 -1.884678e+00 2.504900e+00 1.190725e-02 8.382035e-03 -1.201167e-02
Al -4.525702e-02 -1.884678e+00 7.521855e+00 1.168165e-02 8.123101e-03 -5.682947e-03
Ga -4.525702e-02 -1.884678e+00 -2.775158e+00 1.525080e-02 1.122470e-02 -8.358343e-03
Ga 1.469567e-08 1.806291e+00 5.013378e+00 -1.474057e-02 -1.092437e-02 -7.134224e-03
Al 1.469567e-08 1.806291e+00 -5.283635e+00 -1.174618e-02 -8.222515e-03 -6.194902e-03
Al 1.469567e-08 1.806291e+00 -2.666800e-01 -1.188518e-02 -8.656853e-03 3.351616e-02
Al 3.173845e+00 -3.690969e+00 5.013378e+00 -1.228176e-02 -5.074252e-03 -4.598946e-03
Al 3.173845e+00 -3.690969e+00 -5.283635e+00 -1.217446e-02 -5.399804e-03 -5.572715e-03
Al 3.173845e+00 -3.690969e+00 -2.666800e-01 -1.189026e-02 -5.537834e-03 3.509586e-02
Al 1.609551e+00 -9.815320e-01 5.013378e+00 -1.360958e-02 7.728990e-03 -6.645170e-03
Al 1.609551e+00 -9.815320e-01 -5.283635e+00 -1.372933e-02 7.762969e-03 -7.248338e-03
Ga 1.609551e+00 -9.815320e-01 -2.666800e-01 -1.596739e-02 9.660943e-03 4.138201e-02
Al 3.128588e+00 1.806291e+00 5.013378e+00 4.613132e-04 -3.057246e-03 -4.523584e-03
Al 3.128588e+00 1.806291e+00 -5.283635e+00 3.677812e-04 -3.126790e-03 -4.682602e-03
Al 3.128588e+00 1.806291e+00 -2.666800e-01 2.960509e-04 -3.669489e-03 3.527521e-02
Ga 6.302433e+00 -3.690969e+00 5.013378e+00 4.052391e-04 1.041515e-04 -2.609704e-03
Al 6.302433e+00 -3.690969e+00 -5.283635e+00 1.467993e-04 1.937691e-05 -3.744905e-03
Al 6.302433e+00 -3.690969e+00 -2.666800e-01 8.967723e-06 -5.893672e-04 3.741783e-02
Al 4.738139e+00 -9.815320e-01 5.013378e+00 -1.650051e-03 1.305065e-02 -4.743105e-03
Al 4.738139e+00 -9.815320e-01 -5.283635e+00 -1.300512e-03 1.301975e-02 -5.497351e-03
Ga 4.738139e+00 -9.815320e-01 -2.666800e-01 -8.015435e-04 1.725803e-02 4.498281e-02
Ga -3.219102e+00 1.806291e+00 5.013378e+00 2.762406e-03 -1.664066e-03 -3.981673e-03
Al -3.219102e+00 1.806291e+00 -5.283635e+00 3.046157e-03 -1.646387e-03 -5.887201e-03
Al -3.219102e+00 1.806291e+00 -2.666800e-01 3.066041e-03 -2.674968e-03 3.507574e-02
Al -4.525703e-02 -3.690969e+00 5.013378e+00 2.719954e-03 1.457668e-03 -3.679806e-03
Al -4.525703e-02 -3.690969e+00 -5.283635e+00 3.090749e-03 1.374012e-03 -5.113923e-03
Ga -4.525703e-02 -3.690969e+00 -2.666800e-01 2.814271e-03 6.622258e-04 4.827246e-02
Al -1.609551e+00 -9.815320e-01 5.013378e+00 1.442984e-03 1.411161e-02 -5.891083e-03
Al -1.609551e+00 -9.815320e-01 -5.283635e+00 1.312651e-03 1.418277e-02 -6.912509e-03
Ga -1.609551e+00 -9.815320e-01 -2.666800e-01 1.824617e-03 1.892941e-02 4.457738e-02
N 1.564294e+00 9.031460e-01 4.418497e+00 1.826309e-02 -2.463181e-02 -1.631671e-03
N 1.564294e+00 9.031460e-01 -5.878516e+00 -6.369477e-04 -1.350743e-02 5.904830e-03
N 1.564294e+00 9.031460e-01 -8.615610e-01 -1.217982e-03 3.759934e-03 1.364578e-03
N 2.938992e-08 3.612582e+00 4.418497e+00 -2.150134e-02 1.085726e-02 -1.197208e-02
N 2.938992e-08 3.612582e+00 -5.878516e+00 -1.943613e-03 -5.427296e-05 3.274261e-03
N 2.938992e-08 3.612582e+00 -8.615610e-01 -1.832818e-03 5.268114e-04 4.431781e-03
N 3.173845e+00 -1.884678e+00 4.418497e+00 -2.367871e-03 1.588681e-03 3.039287e-03
N 3.173845e+00 -1.884678e+00 -5.878516e+00 -2.454654e-03 1.475860e-03 2.708966e-03
N 3.173845e+00 -1.884678e+00 -8.615610e-01 -2.923269e-03 -1.985317e-02 -1.004707e-02
N -4.783396e+00 9.031460e-01 4.418497e+00 -1.812041e-02 -2.476334e-02 -1.542412e-03
N -4.783396e+00 9.031460e-01 -5.878516e+00 7.550556e-04 -1.343072e-02 6.357226e-03
N -4.783396e+00 9.031460e-01 -8.615610e-01 4.694057e-04 4.171929e-03 1.529275e-03
N -6.347690e+00 3.612582e+00 4.418497e+00 1.886586e-02 -1.095146e-02 -3.635903e-03
N -6.347690e+00 3.612582e+00 -5.878516e+00 -5.977346e-04 1.584074e-04 3.513293e-03
N -6.347690e+00 3.612582e+00 -8.615610e-01 -1.926465e-02 -9.924790e-03 -2.403051e-03
N -3.173845e+00 -1.884678e+00 4.418497e+00 -1.159707e-03 2.432135e-02 -4.407466e-03
N -3.173845e+00 -1.884678e+00 -5.878516e+00 -1.093655e-03 1.643372e-03 2.802283e-03
N -3.173845e+00 -1.884678e+00 -8.615610e-01 -8.821881e-04 -1.959266e-02 1.419567e-02
N -1.654808e+00 9.031460e-01 4.418497e+00 1.674330e-02 -2.743173e-02 -5.066914e-03
N -1.654808e+00 9.031460e-01 -5.878516e+00 1.356199e-02 -7.802706e-03 8.702760e-03
N -1.654808e+00 9.031460e-01 -8.615610e-01 1.320766e-02 9.468603e-03 3.611578e-03
N -3.219102e+00 3.612582e+00 4.418497e+00 1.238417e-02 2.802273e-02 2.219394e-02
N -3.219102e+00 3.612582e+00 -5.878516e+00 1.204782e-02 5.904368e-03 5.262402e-03
N -3.219102e+00 3.612582e+00 -8.615610e-01 3.074148e-02 -4.253241e-03 2.357415e-02
N -4.525702e-02 -1.884678e+00 4.418497e+00 1.140527e-02 7.392550e-03 6.014191e-03
N -4.525702e-02 -1.884678e+00 -5.878516e+00 1.141733e-02 7.349244e-03 4.629585e-03
N -4.525702e-02 -1.884678e+00 -8.615610e-01 1.486265e-02 9.976654e-03 1.037353e-02
N 1.469567e-08 1.806291e+00 1.910020e+00 -1.179105e-02 -7.530484e-03 -2.976183e-02
N 1.469567e-08 1.806291e+00 6.926975e+00 -1.166282e-02 -7.393737e-03 2.899673e-02
N 1.469567e-08 1.806291e+00 -3.370038e+00 -1.150505e-02 -7.326129e-03 6.004724e-03
N 3.173845e+00 -3.690969e+00 1.910020e+00 3.476982e-03 2.754455e-03 -3.469439e-02
N 3.173845e+00 -3.690969e+00 6.926975e+00 -1.186783e-02 -6.099900e-03 5.808389e-03
N 3.173845e+00 -3.690969e+00 -3.370038e+00 3.737811e-03 2.669061e-03 3.633645e-04
N 1.609551e+00 -9.815320e-01 1.910020e+00 -1.412028e-02 7.880875e-03 -1.401800e-02
N 1.609551e+00 -9.815320e-01 6.926975e+00 -1.362109e-02 7.841652e-03 8.236233e-03
N 1.609551e+00 -9.815320e-01 -3.370038e+00 2.115803e-03 1.644122e-02 1.751030e-03
N 3.128588e+00 1.806291e+00 1.910020e+00 1.272133e-03 -1.795001e-03 -3.145144e-02
N 3.128588e+00 1.806291e+00 6.926975e+00 8.469030e-04 -1.584569e-03 2.813930e-03
N 3.128588e+00 1.806291e+00 -3.370038e+00 1.231078e-03 -1.577178e-03 3.390493e-03
N 6.302433e+00 -3.690969e+00 1.910020e+00 6.041370e-04 -2.430858e-05 -3.157096e-02
N 6.302433e+00 -3.690969e+00 6.926975e+00 4.693801e-04 -4.174036e-04 2.717210e-02
N 6.302433e+00 -3.690969e+00 -3.370038e+00 6.155819e-04 -2.242262e-02 -4.111569e-03
N 4.738139e+00 -9.815320e-01 1.910020e+00 -8.786272e-04 1.377865e-02 -1.677380e-02
N 4.738139e+00 -9.815320e-01 6.926975e+00 -7.991767e-04 1.330561e-02 5.627953e-03
N 4.738139e+00 -9.815320e-01 -3.370038e+00 -1.975738e-02 2.447775e-02 -2.527959e-03
N -3.219102e+00 1.806291e+00 1.910020e+00 2.894645e-03 -2.354918e-02 -4.046600e-02
N -3.219102e+00 1.806291e+00 6.926975e+00 2.725454e-03 -1.459451e-03 2.640798e-02
N -3.219102e+00 1.806291e+00 -3.370038e+00 2.549959e-03 -2.355457e-02 -4.981723e-03
N -4.525703e-02 -3.690969e+00 1.910020e+00 -1.665180e-02 1.133351e-02 -2.777866e-02
N -4.525703e-02 -3.690969e+00 6.926975e+00 1.938766e-03 -3.938766e-05 2.938976e-03
N -4.525703e-02 -3.690969e+00 -3.370038e+00 -1.672804e-02 -1.097693e-02 -1.265630e-02
N -1.609551e+00 -9.815320e-01 1.910020e+00 8.026696e-04 1.391420e-02 -1.747489e-02
N -1.609551e+00 -9.815320e-01 6.926975e+00 6.471161e-04 1.362059e-02 5.244364e-03
N -1.609551e+00 -9.815320e-01 -3.370038e+00 7.124596e-04 3.553140e-02 -1.065378e-02
