108
Energy=-1214847.343756 Lattice="9.485078 0.000000 0.000000 -4.747231 8.209765 0.000000 0.002621 -0.000712 15.306303" Stress="-0.000006 -0.000005 0.000002 -0.000005 -0.000012 -0.000000 0.000002 -0.000000 0.000007" Properties=species:S:1:pos:R:3:forces:R:3
Al 1.542346 0.830222 2.378511 0.005432 0.014687 0.003947
Al 1.579412 0.881442 7.541582 -0.010668 -0.000353 -0.001097
Al 1.553508 0.877110 -2.724169 0.000191 -0.000051 -0.003057
Al 0.003203 3.593338 2.415038 -0.007196 0.003807 0.002476
Al -0.029959 3.607813 7.492751 -0.000051 -0.000101 -0.000907
Al -0.024342 3.596781 -2.709740 0.000404 -0.001411 0.000965
Al 3.162266 -1.859719 2.412592 -0.008570 -0.003710 0.001161
Al 3.159964 -1.867203 7.521201 -0.000339 -0.000744 -0.000286
Ga 3.142611 -1.864478 -2.730067 -0.000445 0.000430 0.001146
Al -4.773462 0.872390 2.450257 -0.001248 0.001522 -0.001749
Al -4.771692 0.865455 7.521432 0.000312 0.000225 -0.000764
Al -4.773460 0.880075 -2.741579 0.000088 0.000162 0.000355
Al -6.364978 3.613202 2.409414 0.002664 -0.004434 0.001140
Ga -6.350320 3.604662 7.515688 0.000477 0.001239 0.000806
Al -6.346472 3.602672 -2.716015 0.000099 -0.000608 0.000303
Ga -3.193548 -1.872868 2.409690 0.000681 0.000223 0.000311
Al -3.203402 -1.862600 7.514717 -0.000362 -0.000634 0.000407
Ga -3.169035 -1.859758 -2.703498 0.000098 0.000365 0.001227
Al -1.610564 0.884365 2.435356 0.000930 -0.000052 -0.000671
Ga -1.612395 0.895613 7.521672 0.002275 -0.000005 0.000695
Al -1.601769 0.875156 -2.740507 0.000905 -0.000109 0.000327
Ga -3.182845 3.610975 2.412557 0.000498 0.000804 0.000128
Al -3.178039 3.612243 7.511477 -0.001093 0.001055 -0.001017
Ga -3.185832 3.610630 -2.714155 -0.000059 -0.000299 0.001432
Ga -0.019597 -1.857682 2.389910 0.000348 -0.001429 0.000495
Ga -0.008689 -1.867070 7.530482 -0.000118 0.000017 0.001296
Al -0.021879 -1.848736 -2.718107 0.000164 -0.000202 0.001099
Al -0.023253 1.791206 4.954634 0.000648 0.002018 -0.004989
Al -0.026955 1.785122 -5.245178 0.000104 -0.000363 0.001754
Ga -0.029407 1.779236 -0.156651 -0.000512 0.000597 0.002078
Al 3.155631 -3.694482 4.967843 0.000806 0.000137 -0.000256
Al 3.141033 -3.696513 -5.284710 -0.000116 0.000685 0.000433
Al 3.150794 -3.684767 -0.143347 0.000099 -0.000055 0.001757
Ga 1.578247 -0.952459 4.971575 0.000435 0.000438 0.000378
Al 1.566432 -0.946830 -5.259794 -0.000929 -0.000353 0.001297
Al 1.556956 -0.970703 -0.175051 -0.000774 0.000533 0.001167
Ga 3.127554 1.785293 4.956290 -0.000092 0.000063 -0.002274
Al 3.139128 1.773038 -5.244705 0.000192 0.001171 0.000511
Ga 3.134397 1.790777 -0.150095 0.000148 0.000181 0.002814
Al 6.295509 -3.692638 4.971016 -0.001025 -0.000694 -0.000050
Ga 6.293474 -3.691699 -5.254693 0.000208 0.000209 0.001149
Al 6.307379 -3.696755 -0.161751 0.000064 -0.000360 -0.000006
Al 4.722792 -0.956074 4.982436 -0.000895 -0.000434 -0.000700
Al 4.722885 -0.941774 -5.273131 -0.000504 -0.000369 -0.000610
Ga 4.715525 -0.954291 -0.133076 -0.000302 -0.000158 -0.000534
Al -3.191379 1.795914 4.975740 0.000487 0.000284 -0.000577
Al -3.201514 1.793234 -5.258106 0.002234 -0.001229 -0.000233
Ga -3.187800 1.780155 -0.149004 0.000247 0.000010 -0.000175
Al -0.016006 -3.696015 4.964696 -0.000174 -0.000880 0.000085
Al -0.009102 -3.681444 -5.239660 -0.000445 -0.000077 0.000468
Al -0.032084 -3.671519 -0.171692 -0.000056 -0.000265 0.000334
Ga -1.614567 -0.945904 4.973004 -0.000020 0.000104 -0.000225
Al -1.600555 -0.941154 -5.250394 0.000251 -0.002341 0.001110
Al -1.586944 -0.949543 -0.162122 -0.000187 -0.000064 0.000252
N 1.513744 0.885715 4.282681 -0.000501 -0.001328 0.005458
N 1.553672 0.880476 -5.845619 0.000028 0.000094 -0.001319
N 1.556606 0.821854 -0.818184 0.000218 0.000623 0.004366
N -0.015895 3.609518 4.348597 -0.000959 0.000199 -0.000029
N -0.062596 3.578263 -5.899869 -0.000568 -0.000819 -0.000979
N -0.027669 3.649844 -0.788969 -0.000043 0.000334 0.000615
N 3.188491 -1.890447 4.338759 -0.000768 -0.000173 -0.000387
N 3.147016 -1.865913 -5.862678 -0.000479 0.000170 -0.000571
N 3.107817 -1.893231 -0.751399 -0.000210 0.000141 -0.000203
N -4.728566 0.848945 4.360806 0.001058 -0.000303 -0.000022
N -4.771369 0.875619 -5.865798 0.000069 0.000491 -0.000777
N -4.773272 0.870987 -0.836303 0.000881 -0.000139 0.000288
N -6.349791 3.661141 4.338636 -0.000127 0.000606 -0.000622
N -6.304847 3.588822 -5.823176 0.000377 -0.000735 0.000646
N -6.347460 3.649364 -0.797266 -0.000236 0.000483 -0.000059
N -3.225316 -1.892469 4.387984 0.000366 0.000795 -0.001324
N -3.181168 -1.819676 -5.875895 -0.000304 0.000063 -0.000641
N -3.142092 -1.883503 -0.720888 -0.000312 -0.000247 0.000415
N -1.611145 0.926395 4.353409 -0.000755 -0.000958 -0.000577
N -1.607776 0.873862 -5.805913 -0.000494 0.004494 -0.000131
N -1.611083 0.831580 -0.824562 0.000483 -0.000455 0.000145
N -3.181283 3.617371 4.401040 -0.000110 -0.000605 -0.000602
N -3.191757 3.614783 -5.866944 -0.000138 -0.000570 -0.000575
N -3.183682 3.659614 -0.729563 0.000036 -0.000371 -0.000217
N -0.019091 -1.904325 4.366121 0.000131 -0.000234 -0.001553
N -0.020188 -1.860638 -5.803489 0.000519 -0.000749 -0.000260
N -0.021369 -1.858233 -0.779131 -0.000021 -0.000476 -0.000615
N -0.030925 1.782758 1.856937 0.000130 -0.003072 -0.008297
N 0.015549 1.807430 6.860355 0.004223 -0.002823 0.005953
N -0.020787 1.788826 -3.320797 -0.000307 0.000580 -0.000159
N 3.189271 -3.664529 1.781445 0.003512 -0.002015 0.001051
N 3.144491 -3.687234 6.901550 -0.000514 0.000805 -0.000135
N 3.188744 -3.718838 -3.375753 -0.000532 0.000660 -0.000172
N 1.599527 -0.934506 1.753877 0.002904 -0.006643 -0.000965
N 1.609973 -0.920987 6.951376 0.000768 -0.000610 -0.000556
N 1.526988 -0.928778 -3.344231 -0.000546 0.000253 -0.000265
N 3.142245 1.785886 1.856843 -0.003578 -0.002543 -0.002769
N 3.125261 1.735875 6.933682 0.005601 0.000928 -0.001528
N 3.134386 1.785178 -3.324578 0.000081 0.000175 -0.000170
N 6.304536 -3.744842 1.766991 -0.000644 0.001977 -0.001687
N 6.263677 -3.665955 6.892127 -0.000192 0.000092 -0.000425
N 6.298376 -3.737225 -3.283910 0.000236 0.000990 -0.000334
N 4.671355 -0.921710 1.846506 0.005455 0.002267 -0.004245
N 4.720287 -0.947832 6.909632 -0.000501 0.000064 -0.000683
N 4.729634 -0.908505 -3.369979 -0.000391 -0.000335 0.001399
N -3.194777 1.734224 1.832408 0.000461 -0.000133 0.000498
N -3.235523 1.811555 6.895222 -0.000165 -0.000172 -0.000314
N -3.191071 1.747246 -3.345473 0.000013 0.000090 -0.000303
N -0.068601 -3.714674 1.747330 0.000394 0.000927 -0.000452
N 0.015520 -3.709018 6.869844 0.001552 -0.000701 -0.000008
N -0.057546 -3.658952 -3.326721 -0.000099 -0.000318 0.000297
N -1.605972 -0.894740 1.762253 -0.000669 0.000156 -0.000515
N -1.641625 -0.969994 6.936422 0.000129 0.000282 -0.001084
N -1.560665 -0.928406 -3.340387 -0.000773 -0.000387 0.000271
