108
Energy=-2.221908e+06 Lattice="9.618438e+00 0.000000e+00 0.000000e+00 -4.812275e+00 8.321655e+00 0.000000e+00 -3.630945e-02 -2.012484e-02 1.558589e+01" Stress="1.438071e-04 -1.679338e-04 -1.102367e-03 -1.639862e-04 -2.092963e-04 -7.164969e-04 -1.105217e-03 -7.102025e-04 3.191574e-06" Properties=species:S:1:pos:R:3:forces:R:3 Config_type=AlGaN_super3_39_1_8.xyz
Al 1.543577e+00 8.891438e-01 2.470580e+00 3.872961e-04 -3.585087e-04 9.353041e-05
Al 1.548751e+00 8.847249e-01 7.622405e+00 3.056612e-04 7.436459e-05 3.348891e-06
Ga 1.604036e+00 8.936921e-01 -2.744020e+00 3.878474e-04 -5.619487e-04 -2.597039e-04
Al -3.814288e-02 3.638178e+00 2.456039e+00 2.387996e-04 -1.217439e-04 -1.439923e-04
Al -4.800639e-02 3.628894e+00 7.639079e+00 2.597796e-04 -2.682872e-04 3.950496e-04
Ga -1.400258e-02 3.675826e+00 -2.745553e+00 1.218624e-04 -2.535889e-04 3.680402e-04
Ga 3.159164e+00 -1.901314e+00 2.463391e+00 -3.890896e-05 -2.111938e-04 2.604932e-04
Ga 3.173788e+00 -1.893798e+00 7.631959e+00 2.517582e-04 -6.521697e-05 2.134144e-04
Al 3.201122e+00 -1.898426e+00 -2.747490e+00 1.832305e-04 -2.688537e-04 6.323128e-04
Ga -4.867466e+00 8.845172e-01 2.480646e+00 3.287065e-04 -4.201535e-04 -2.392161e-04
Al -4.851287e+00 8.699985e-01 7.615782e+00 4.276449e-04 1.724326e-04 -1.470339e-04
Ga -4.830735e+00 8.961421e-01 -2.744986e+00 4.970654e-04 -4.569969e-04 -3.472275e-04
Al -6.471189e+00 3.650278e+00 2.466060e+00 7.576235e-05 -1.553635e-04 -1.297331e-04
Ga -6.467040e+00 3.633578e+00 7.633527e+00 8.649584e-05 1.209527e-04 -6.526425e-05
Al -6.422217e+00 3.660823e+00 -2.746740e+00 1.296537e-04 -1.043999e-04 4.325192e-05
Ga -3.248584e+00 -1.909553e+00 2.472508e+00 8.754939e-05 -2.630499e-04 -3.588617e-04
Ga -3.259203e+00 -1.890354e+00 7.629423e+00 2.966663e-04 -2.025359e-04 -1.680084e-04
Ga -3.211810e+00 -1.889855e+00 -2.743224e+00 1.731405e-04 -1.464004e-04 -3.679075e-04
Ga -1.634010e+00 8.910721e-01 2.491863e+00 5.788758e-04 -5.471764e-04 -2.407240e-04
Al -1.642701e+00 8.927215e-01 7.604852e+00 3.432397e-04 -1.652149e-04 -2.619658e-04
Ga -1.609992e+00 8.955945e-01 -2.742970e+00 5.320217e-04 -6.729528e-04 7.952356e-06
Ga -3.251380e+00 3.660275e+00 2.455035e+00 4.010148e-04 -1.206307e-04 6.329503e-04
Ga -3.239811e+00 3.634662e+00 7.639913e+00 2.356542e-04 -2.483329e-04 3.879334e-05
Ga -3.207058e+00 3.681123e+00 -2.747538e+00 5.310202e-04 -3.092703e-04 -1.726033e-04
Al -4.381872e-02 -1.894513e+00 2.458325e+00 5.397491e-05 -5.130806e-04 -1.541367e-04
Ga -3.971328e-02 -1.882682e+00 7.644665e+00 3.480533e-04 -4.303567e-04 7.356013e-05
Ga -7.096431e-04 -1.884057e+00 -2.740021e+00 3.904958e-04 -3.884888e-04 -4.557262e-04
Al -4.646313e-02 1.807954e+00 5.055651e+00 -3.771991e-05 1.735789e-04 1.160843e-04
Ga -1.377789e-02 1.823612e+00 -5.384238e+00 -3.680042e-04 2.419250e-04 4.921205e-04
Ga -3.119076e-03 1.822466e+00 -1.176404e-01 -2.047755e-03 3.017693e-04 -2.242287e-04
Ga 3.180819e+00 -3.766127e+00 5.046925e+00 -3.501280e-04 3.086913e-04 1.808792e-04
Al 3.209499e+00 -3.728728e+00 -5.357831e+00 5.817586e-05 1.397989e-04 2.312200e-04
Al 3.205187e+00 -3.731797e+00 -1.359855e-01 -1.815134e-04 4.353632e-04 1.238086e-04
Ga 1.562231e+00 -9.610834e-01 5.038963e+00 -8.888655e-04 3.255908e-04 6.052582e-05
Ga 1.613066e+00 -9.602023e-01 -5.346229e+00 -5.867744e-04 7.023830e-04 -3.676803e-04
Ga 1.615924e+00 -9.711390e-01 -1.272513e-01 -2.262627e-03 2.129885e-04 1.972563e-04
Ga 3.158060e+00 1.789076e+00 5.048775e+00 -1.498323e-04 2.089448e-04 2.018483e-05
Ga 3.197080e+00 1.813044e+00 -5.367696e+00 -3.711774e-05 -2.092026e-05 2.591317e-04
Ga 3.199885e+00 1.822145e+00 -1.190847e-01 -1.893456e-03 -2.303358e-04 6.049150e-04
Ga 6.351766e+00 -3.759761e+00 5.040858e+00 2.126388e-04 1.661283e-04 -3.819328e-05
Ga 6.393628e+00 -3.736968e+00 -5.348400e+00 3.183353e-05 9.141122e-05 -2.744198e-05
Ga 6.408731e+00 -3.744381e+00 -1.292684e-01 -1.924853e-03 -3.483516e-04 7.724261e-04
Al 4.770607e+00 -9.611103e-01 5.062195e+00 -1.989791e-04 -9.088855e-05 1.091253e-05
Ga 4.793846e+00 -9.587224e-01 -5.344766e+00 -2.374773e-04 3.961621e-04 -1.309819e-04
Ga 4.798649e+00 -9.735089e-01 -1.505324e-01 -2.155239e-03 6.280414e-05 -5.612196e-04
Al -3.248642e+00 1.791776e+00 5.071002e+00 -2.491694e-04 -2.169185e-05 -2.670094e-04
Ga -3.210469e+00 1.818293e+00 -5.375387e+00 -2.118117e-04 1.297413e-04 2.804091e-04
Ga -3.203676e+00 1.821355e+00 -1.361927e-01 -2.173513e-03 -1.336063e-04 -8.027768e-04
Ga -4.076197e-02 -3.751112e+00 5.030012e+00 -3.215313e-04 3.267460e-04 6.921139e-05
Ga 2.200718e-04 -3.732813e+00 -5.332687e+00 -2.726349e-05 7.666615e-05 -1.764791e-04
Ga -2.470108e-03 -3.736867e+00 -1.346881e-01 -2.016196e-03 -1.716534e-04 7.088459e-04
Ga -1.646515e+00 -9.582986e-01 5.051108e+00 -3.715447e-04 6.236934e-05 -2.527481e-04
Ga -1.608663e+00 -9.428043e-01 -5.364082e+00 -5.152581e-04 3.880950e-04 -3.738899e-04
Ga -1.598067e+00 -9.569405e-01 -1.126107e-01 -2.501180e-03 -1.301786e-04 -7.818625e-04
N 1.509606e+00 9.050813e-01 4.391321e+00 3.292295e-04 -2.774103e-05 -2.612895e-05
N 1.591653e+00 8.919569e-01 -6.042849e+00 3.889041e-04 -4.144547e-04 -3.848181e-06
N 1.597912e+00 8.896173e-01 -7.656529e-01 3.977250e-04 -3.105686e-04 2.068165e-04
N -4.727591e-02 3.595954e+00 4.374034e+00 -1.720111e-04 -8.411602e-05 -1.998317e-04
N -5.023692e-02 3.691426e+00 -6.021070e+00 -1.212464e-04 -2.281907e-05 -3.354209e-04
N -5.006508e-02 3.687855e+00 -7.567565e-01 -1.107479e-04 -1.351261e-04 -8.300612e-04
N 3.207586e+00 -1.877626e+00 4.444934e+00 5.288493e-04 -2.417128e-04 -7.519502e-05
N 3.203931e+00 -1.926840e+00 -5.975838e+00 1.734307e-04 -4.932901e-04 2.840661e-05
N 3.199309e+00 -1.939644e+00 -8.113675e-01 2.130517e-04 -6.023780e-04 -3.268298e-04
N -4.811683e+00 8.544371e-01 4.464139e+00 5.388265e-04 2.217682e-04 1.697615e-05
N -4.817980e+00 8.898502e-01 -6.045816e+00 3.172464e-04 -2.775192e-04 -6.864090e-05
N -4.819248e+00 8.934383e-01 -7.694822e-01 4.003545e-04 -1.343447e-04 2.152892e-04
N -6.461630e+00 3.646532e+00 4.377333e+00 1.713953e-05 -1.359118e-04 -2.478689e-05
N -6.420300e+00 3.670998e+00 -5.984667e+00 -2.600708e-05 3.510697e-05 3.045370e-05
N -6.418950e+00 3.660532e+00 -8.246739e-01 -1.918548e-05 -4.401014e-05 5.974680e-04
N -3.291847e+00 -1.874149e+00 4.450843e+00 9.614127e-05 -5.902977e-05 7.611439e-05
N -3.216964e+00 -1.878950e+00 -5.980881e+00 1.147001e-04 -3.071186e-04 1.772373e-04
N -3.201683e+00 -1.886916e+00 -7.649700e-01 2.871852e-04 -2.094788e-04 4.127288e-04
N -1.647476e+00 9.340829e-01 4.474701e+00 3.155988e-04 -1.397052e-04 3.954456e-04
N -1.613625e+00 9.004592e-01 -6.062423e+00 6.869194e-04 -3.422645e-04 -1.791093e-04
N -1.604811e+00 8.914119e-01 -7.672902e-01 7.040840e-04 -2.675832e-04 7.353279e-05
N -3.247661e+00 3.598952e+00 4.438797e+00 4.115755e-04 -3.713101e-04 -1.078401e-04
N -3.172779e+00 3.696117e+00 -5.961956e+00 1.386340e-04 -3.220702e-04 -8.619670e-05
N -3.168779e+00 3.693983e+00 -7.561759e-01 -5.774169e-05 -4.368154e-04 5.329715e-04
N -4.360168e-02 -1.893376e+00 4.369918e+00 5.180353e-04 -3.972094e-04 -6.043839e-05
N -1.919312e-03 -1.878527e+00 -5.970741e+00 4.545584e-04 -5.582313e-04 2.885224e-04
N -1.848260e-03 -1.880247e+00 -7.658259e-01 5.719339e-04 -5.504399e-04 4.047764e-04
N -8.502195e-03 1.822815e+00 1.862915e+00 1.483302e-03 4.633075e-04 1.323212e-04
N -3.839443e-02 1.804086e+00 6.999591e+00 -2.424328e-04 3.894105e-04 -1.338754e-04
N -5.526150e-03 1.815526e+00 -3.398862e+00 -1.778694e-04 7.305991e-04 -1.916560e-04
N 3.212092e+00 -3.768886e+00 1.793734e+00 -3.093098e-04 2.627897e-04 2.037970e-04
N 3.211615e+00 -3.777439e+00 7.021256e+00 -1.909731e-04 4.167210e-04 -6.411229e-05
N 3.206832e+00 -3.687180e+00 -3.429090e+00 -4.404313e-04 4.643649e-04 -2.501576e-04
N 1.520711e+00 -9.484787e-01 1.870095e+00 1.489618e-03 9.485422e-04 -7.530170e-04
N 1.563312e+00 -9.267907e-01 7.018744e+00 -3.578121e-04 4.394506e-04 -1.734209e-04
N 1.645970e+00 -9.820599e-01 -3.360043e+00 -3.717038e-04 4.806448e-04 1.835513e-04
N 3.113348e+00 1.825316e+00 1.875791e+00 1.644313e-03 5.852953e-04 -7.129047e-04
N 3.159259e+00 1.748296e+00 7.034389e+00 -2.162992e-04 -2.627081e-04 4.928512e-05
N 3.197140e+00 1.860807e+00 -3.380588e+00 -2.119154e-04 4.913167e-04 -1.544076e-04
N 6.366301e+00 -3.797432e+00 1.866956e+00 2.011840e-03 5.696422e-04 -1.121648e-03
N 6.323529e+00 -3.777418e+00 7.022282e+00 -2.279166e-04 5.888496e-06 -9.656181e-05
N 6.445768e+00 -3.760097e+00 -3.363457e+00 -8.804740e-06 -4.506193e-05 7.164965e-06
N 4.761648e+00 -9.710885e-01 1.820160e+00 1.447199e-03 5.512274e-04 6.103014e-04
N 4.766783e+00 -9.280102e-01 6.974467e+00 -5.584160e-04 1.080199e-04 -1.683624e-05
N 4.761636e+00 -9.816094e-01 -3.356976e+00 -4.616372e-04 2.642803e-04 1.412364e-04
N -3.254159e+00 1.798160e+00 1.829872e+00 1.500649e-03 8.329417e-04 1.218594e-03
N -3.253359e+00 1.754480e+00 6.995136e+00 -4.062204e-04 -4.617243e-06 2.343307e-04
N -3.214579e+00 1.815985e+00 -3.391019e+00 -5.080507e-04 4.100851e-04 1.229511e-04
N -9.286618e-02 -3.724331e+00 1.864335e+00 1.872920e-03 5.145708e-04 -1.193410e-03
N -4.110830e-02 -3.746729e+00 7.004811e+00 -1.611654e-04 1.009079e-04 -6.388062e-05
N -4.577516e-02 -3.757033e+00 -3.352633e+00 -3.147140e-04 9.772269e-05 4.231042e-04
N -1.610858e+00 -9.880453e-01 1.865482e+00 1.506862e-03 6.327521e-04 7.564020e-04
N -1.641769e+00 -9.281174e-01 7.024702e+00 -5.322881e-04 2.909538e-04 1.614534e-04
N -1.606184e+00 -9.539728e-01 -3.388034e+00 -5.651260e-04 1.717913e-04 1.749726e-04
