108
Energy=-9.401912e+05 Lattice="9.476345e+00 0.000000e+00 0.000000e+00 -4.739704e+00 8.202114e+00 0.000000e+00 -5.005390e-03 -2.184418e-04 1.528964e+01" Stress="-7.280421e-04 5.106119e-03 -5.629054e-04 5.101118e-03 2.861223e-03 -7.307781e-04 -5.627633e-04 -7.273441e-04 1.012431e-02" Properties=species:S:1:pos:R:3:forces:R:3 Config_type=AlGaN_super3_11_0_1.xyz
Al 1.563575e+00 9.012027e-01 2.484831e+00 3.417918e-04 -1.285822e-02 -1.289106e-02
Al 1.560684e+00 8.979850e-01 7.504506e+00 -1.189320e-03 -1.252823e-02 -4.119960e-03
Al 1.565467e+00 8.981529e-01 -2.759058e+00 -8.860362e-04 -1.279208e-02 -3.873391e-03
Al -6.761750e-03 3.606911e+00 2.488357e+00 -3.239111e-03 -1.997037e-03 -9.266775e-03
Al -6.873500e-03 3.605976e+00 7.504214e+00 -2.901346e-03 -1.466060e-03 -3.182372e-03
Al -5.397431e-04 3.609538e+00 -2.759338e+00 -4.409675e-03 -2.361704e-03 -2.392942e-03
Al 3.170176e+00 -1.882850e+00 2.486651e+00 -3.010815e-03 1.228573e-03 -1.054728e-02
Al 3.167151e+00 -1.882453e+00 7.504590e+00 -2.365428e-03 7.390474e-04 -3.815151e-03
Al 3.171884e+00 -1.882032e+00 -2.760356e+00 -3.705884e-03 1.053976e-03 -2.855577e-03
Al -4.781267e+00 8.961980e-01 2.477680e+00 2.271876e-03 -1.217156e-02 -8.936567e-03
Al -4.786621e+00 8.995129e-01 7.504433e+00 1.799080e-03 -1.167465e-02 -3.456819e-03
Al -4.783665e+00 8.985176e-01 -2.753601e+00 1.158307e-03 -1.142022e-02 -2.863629e-03
Al -6.354711e+00 3.607870e+00 2.483766e+00 4.074019e-03 1.260812e-03 -1.416702e-02
Al -6.350226e+00 3.607550e+00 7.503290e+00 2.841073e-05 -2.122417e-05 -1.346509e-03
Ga -6.348585e+00 3.609319e+00 -2.748422e+00 2.736505e-04 -3.522515e-04 4.193770e-04
Al -3.177955e+00 -1.884033e+00 2.487148e+00 5.579130e-03 7.756239e-03 -1.230469e-02
Ga -3.176216e+00 -1.880041e+00 7.508038e+00 -1.331807e-03 2.101930e-03 -1.859255e-03
Ga -3.172746e+00 -1.882181e+00 -2.751306e+00 1.510118e-04 2.662303e-03 -1.376321e-03
Al -1.649256e+00 8.914823e-01 2.484554e+00 1.324311e-02 2.490782e-03 -1.027428e-02
Al -1.652921e+00 8.917082e-01 7.504548e+00 1.226367e-02 -2.745409e-03 -3.851273e-03
Ga -1.648648e+00 8.977264e-01 -2.755623e+00 1.439926e-02 -7.597614e-03 -6.414661e-03
Al -3.215560e+00 3.606072e+00 2.485044e+00 6.542777e-03 8.772485e-03 -1.394357e-02
Al -3.219036e+00 3.608557e+00 7.503127e+00 1.128253e-02 4.372604e-03 -3.498339e-03
Ga -3.217781e+00 3.613012e+00 -2.754372e+00 1.338560e-02 7.012601e-03 -3.568292e-03
Al -4.215247e-02 -1.859770e+00 2.462349e+00 1.182133e-02 6.758150e-03 -9.261954e-03
Ga -4.498503e-02 -1.877986e+00 7.506353e+00 1.417026e-02 8.352113e-03 -4.489537e-03
Al -4.215862e-02 -1.874553e+00 -2.770735e+00 1.268902e-02 5.943979e-03 5.096944e-03
Al -5.479415e-03 1.800549e+00 4.994591e+00 -1.088123e-02 -7.087788e-03 -5.418466e-03
Al 3.886352e-04 1.800827e+00 -5.273711e+00 -1.113387e-02 -7.442282e-03 -4.416515e-03
Al -3.087320e-03 1.800789e+00 -2.462624e-01 -1.064484e-02 -8.006441e-03 3.045224e-02
Al 3.168060e+00 -3.690702e+00 4.995428e+00 -1.026760e-02 -4.107166e-03 -4.591225e-03
Al 3.172939e+00 -3.690706e+00 -5.273998e+00 -1.091517e-02 -5.207870e-03 -3.258547e-03
Al 3.172822e+00 -3.691134e+00 -2.463818e-01 -1.168725e-02 -4.720777e-03 3.077429e-02
Al 1.603729e+00 -9.796233e-01 4.992234e+00 -1.222358e-02 7.205852e-03 -6.739803e-03
Al 1.608294e+00 -9.790183e-01 -5.271982e+00 -1.246689e-02 7.750326e-03 -4.965217e-03
Al 1.608627e+00 -9.783156e-01 -2.455900e-01 -1.434630e-02 6.902667e-03 2.836570e-02
Al 3.124925e+00 1.801996e+00 4.993041e+00 5.822403e-04 -3.821780e-03 -1.936734e-03
Al 3.130714e+00 1.802909e+00 -5.272194e+00 -9.807282e-05 -2.704363e-03 -1.935238e-03
Ga 3.127371e+00 1.797854e+00 -2.236528e-01 8.521108e-04 -2.321513e-03 3.480675e-02
Al 6.298627e+00 -3.690696e+00 4.994946e+00 -9.514620e-04 -1.992091e-04 -2.979906e-03
Al 6.304411e+00 -3.688969e+00 -5.279800e+00 4.297844e-05 -1.918040e-03 2.506650e-03
Al 6.299184e+00 -3.690421e+00 -2.394791e-01 1.072349e-03 -8.340652e-04 3.214428e-02
Al 4.731551e+00 -9.780376e-01 4.994884e+00 -2.010076e-03 1.224655e-02 -4.551868e-03
Ga 4.738492e+00 -9.784114e-01 -5.268038e+00 -9.701543e-04 1.545851e-02 -3.670323e-03
Al 4.737352e+00 -9.811975e-01 -2.444317e-01 -1.954268e-03 1.283095e-02 3.071036e-02
Al -3.220062e+00 1.802410e+00 4.992356e+00 2.251805e-03 -2.432837e-03 -4.410118e-03
Al -3.213388e+00 1.803614e+00 -5.278548e+00 2.932093e-03 -2.058758e-03 -1.699065e-03
Al -3.212319e+00 1.801491e+00 -2.434930e-01 1.733164e-03 -1.637365e-03 3.111887e-02
Al -4.501433e-02 -3.689317e+00 4.988457e+00 2.815404e-03 1.986055e-03 -1.714397e-03
Al -3.924803e-02 -3.689243e+00 -5.276163e+00 2.109259e-03 6.287867e-04 2.030927e-04
Ga -3.934220e-02 -3.689644e+00 -2.132912e-01 1.527043e-03 2.330294e-03 3.150764e-02
Ga -1.610650e+00 -9.763392e-01 4.993802e+00 1.860164e-03 1.601655e-02 -5.771440e-03
Al -1.603356e+00 -9.788977e-01 -5.268428e+00 5.311203e-04 1.418503e-02 -3.717491e-03
Ga -1.607546e+00 -9.765093e-01 -2.143518e-01 3.379562e-03 1.730683e-02 3.154556e-02
N 1.560303e+00 8.984305e-01 4.399476e+00 6.066347e-04 -1.138584e-02 4.708256e-03
N 1.565422e+00 8.982022e-01 -5.868385e+00 -3.706626e-05 -1.267391e-02 3.907692e-03
N 1.560722e+00 8.961975e-01 -8.396012e-01 -1.756210e-02 -2.217006e-02 -2.128187e-03
N -6.470410e-03 3.607803e+00 4.402154e+00 -1.567715e-03 2.915344e-04 3.666916e-03
N -1.276393e-03 3.607959e+00 -5.870164e+00 -1.562115e-03 6.595117e-04 1.644486e-03
N -2.980335e-03 3.607924e+00 -8.414678e-01 -1.562611e-03 1.536391e-04 4.126099e-03
N 3.167973e+00 -1.882603e+00 4.400630e+00 -2.055221e-03 6.991794e-04 3.054638e-03
N 3.170108e+00 -1.883993e+00 -5.868720e+00 -1.938280e-02 -8.476328e-03 -5.902712e-03
N 3.171783e+00 -1.883338e+00 -8.426852e-01 -1.677881e-03 1.061717e-03 3.825043e-03
N -4.787862e+00 8.997762e-01 4.396605e+00 7.819608e-04 -1.175263e-02 4.875647e-03
N -4.780703e+00 9.026911e-01 -5.869487e+00 4.563805e-04 4.065152e-03 -1.824857e-03
N -4.779479e+00 8.968588e-01 -8.356015e-01 1.866463e-02 -2.224100e-02 -1.429035e-03
N -6.351578e+00 3.608743e+00 4.398099e+00 1.030857e-03 2.518544e-05 4.892066e-04
N -6.345408e+00 3.609396e+00 -5.870394e+00 -2.377559e-04 7.255744e-04 1.719042e-03
N -6.349294e+00 3.609713e+00 -8.230035e-01 -1.815379e-02 1.017818e-02 8.866299e-03
N -3.180968e+00 -1.883215e+00 4.400774e+00 -1.661688e-02 -8.075131e-03 -5.974863e-03
N -3.167505e+00 -1.884197e+00 -5.860762e+00 1.618812e-02 -7.385284e-03 1.493480e-02
N -3.174080e+00 -1.883118e+00 -8.287273e-01 -1.750261e-02 -8.232505e-03 1.839037e-02
N -1.653644e+00 9.025532e-01 4.397653e+00 1.196052e-02 9.213137e-03 2.578055e-03
N -1.648031e+00 8.978488e-01 -5.868304e+00 1.229786e-02 -7.475906e-03 5.908234e-03
N -1.649180e+00 9.011134e-01 -8.330053e-01 1.229806e-02 9.695578e-03 2.145372e-02
N -3.219212e+00 3.609231e+00 4.399035e+00 9.237842e-03 6.323207e-03 3.953787e-03
N -3.213892e+00 3.610389e+00 -5.871028e+00 1.060950e-02 5.725844e-03 3.905482e-03
N -3.213289e+00 3.609334e+00 -8.311664e-01 2.877500e-02 -5.125431e-03 1.917005e-02
N -4.383666e-02 -1.881402e+00 4.389121e+00 2.676576e-02 -4.413719e-03 -4.773453e-03
N -3.926277e-02 -1.880325e+00 -5.863210e+00 1.065632e-02 6.382626e-03 2.500450e-02
N -4.125065e-02 -1.880859e+00 -8.204462e-01 2.810380e-02 1.806328e-02 -1.660350e-02
N -3.567784e-03 1.799502e+00 1.894781e+00 -8.933170e-03 -4.266369e-03 -2.620048e-02
N -5.840741e-03 1.797924e+00 6.910206e+00 -1.031209e-02 -6.694438e-03 4.271828e-03
N 2.860903e-03 1.802943e+00 -3.356240e+00 3.663829e-03 1.303513e-03 -1.654175e-03
N 3.170226e+00 -3.691345e+00 1.895059e+00 -1.159178e-02 -4.976263e-03 -2.572131e-02
N 3.167977e+00 -3.691169e+00 6.909871e+00 -1.112764e-02 -5.152512e-03 4.761238e-03
N 3.175308e+00 -3.688360e+00 -3.356413e+00 3.697634e-03 2.748940e-03 -1.328621e-03
N 1.611347e+00 -9.736297e-01 1.891319e+00 -1.154934e-02 7.642281e-03 -2.318018e-02
N 1.606077e+00 -9.775827e-01 6.908463e+00 1.454427e-03 1.538586e-02 5.866976e-04
N 1.608492e+00 -9.777605e-01 -3.357082e+00 -1.223559e-02 7.004054e-03 6.920704e-03
N 3.141873e+00 1.795291e+00 1.841331e+00 -3.263058e-03 1.381328e-03 -1.772504e-03
N 3.125637e+00 1.801826e+00 6.908972e+00 6.656837e-04 -1.328823e-03 1.467297e-03
N 3.130371e+00 1.799520e+00 -3.352396e+00 9.727399e-04 -2.143141e-02 -7.065578e-03
N 6.296402e+00 -3.691022e+00 1.897007e+00 1.906899e-03 1.405333e-03 -2.784920e-02
N 6.300066e+00 -3.692987e+00 6.909261e+00 8.562950e-04 -1.979244e-02 -4.974680e-03
N 6.295196e+00 -3.694055e+00 -3.345595e+00 -1.497750e-02 -8.652022e-03 -1.711195e-02
N 4.736530e+00 -9.813218e-01 1.894420e+00 -1.992119e-04 1.221958e-02 -2.617057e-02
N 4.730302e+00 -9.765763e-01 6.910594e+00 -1.767398e-02 2.204059e-02 -3.649928e-03
N 4.734225e+00 -9.759084e-01 -3.346644e+00 -1.739078e-02 2.205040e-02 1.790055e-02
N -3.212422e+00 1.797112e+00 1.893140e+00 4.037513e-04 1.410389e-03 -2.872770e-02
N -3.218648e+00 1.799636e+00 6.908950e+00 2.226664e-03 -1.200582e-03 1.614973e-03
N -3.220362e+00 1.800399e+00 -3.352527e+00 -1.420231e-02 -1.117637e-02 -1.493456e-02
N -5.760578e-02 -3.651762e+00 1.814132e+00 5.108174e-03 -1.092492e-02 8.016527e-03
N -4.538613e-02 -3.690827e+00 6.906320e+00 1.382107e-03 -1.933157e-02 -5.511385e-03
N -4.517255e-02 -3.678938e+00 -3.347242e+00 2.308478e-03 1.802478e-02 -1.728927e-02
N -1.580402e+00 -9.123367e-01 1.850812e+00 -1.124814e-02 -8.714084e-03 -2.753586e-03
N -1.610414e+00 -9.652768e-01 6.914137e+00 6.731743e-04 2.903888e-02 1.010081e-02
N -1.600555e+00 -9.828378e-01 -3.353287e+00 1.529609e-02 7.262795e-03 -1.060884e-02
