108
Energy=-1672601.990493 Lattice="9.512973 0.000000 0.000000 -4.770270 8.222311 0.000000 -0.013908 -0.005179 15.396891" Stress="-0.000077 0.000004 -0.000004 0.000004 -0.000089 -0.000003 -0.000004 -0.000003 -0.000045" Properties=species:S:1:pos:R:3:forces:R:3
Al 1.580630 0.862322 2.454539 -0.004365 0.003143 -0.001058
Al 1.571526 0.846400 7.496076 -0.001833 0.014464 0.017900
Al 1.551949 0.878107 -2.749503 0.002152 0.003016 0.003345
Al -0.010435 3.648294 2.432106 -0.006066 -0.015992 -0.012702
Al -0.028006 3.614502 7.570183 0.002097 -0.000927 0.003197
Ga -0.024718 3.604733 -2.736484 0.000503 -0.000799 0.004484
Al 3.167854 -1.890294 2.433351 0.004193 0.007484 -0.012135
Al 3.163896 -1.878248 7.543807 -0.001039 0.000533 0.003688
Ga 3.168425 -1.877168 -2.718238 -0.000418 -0.000950 0.005719
Al -4.793317 0.869071 2.426428 0.003076 -0.002552 -0.002482
Ga -4.817336 0.876854 7.546902 0.001033 0.000175 0.002360
Ga -4.785183 0.883456 -2.719322 -0.001233 0.000639 0.002279
Ga -6.394522 3.602084 2.442173 0.000367 0.001790 -0.000397
Al -6.397151 3.603013 7.536497 0.000677 -0.001029 0.001335
Al -6.377526 3.615289 -2.729318 0.000888 -0.001823 0.002460
Al -3.252666 -1.904234 2.449396 0.015691 0.009511 -0.015550
Al -3.199040 -1.877897 7.538042 0.001747 -0.000317 0.001974
Al -3.179768 -1.864911 -2.715032 0.001239 -0.001632 0.005920
Ga -1.638394 0.883122 2.444436 0.005962 -0.000117 -0.001205
Ga -1.624953 0.885686 7.542758 0.002141 -0.001642 0.001377
Al -1.619105 0.887305 -2.724643 0.003730 -0.000275 0.003287
Ga -3.196725 3.616278 2.428204 0.002748 -0.000711 0.000508
Ga -3.208707 3.628596 7.541752 -0.000028 -0.000878 0.001932
Al -3.193009 3.617261 -2.719974 -0.000183 0.000663 0.004151
Ga -0.012084 -1.846832 2.464256 -0.001892 0.001040 -0.002045
Ga -0.030812 -1.861038 7.528911 0.001550 -0.000466 0.001836
Ga -0.023006 -1.851877 -2.713073 0.001578 -0.001431 -0.000281
Ga -0.016848 1.773373 4.996202 -0.001320 0.000047 -0.001184
Al -0.022135 1.785348 -5.294705 0.003700 0.002034 0.001662
Ga -0.028652 1.782419 -0.138465 -0.000496 0.002669 0.002323
Ga 3.156495 -3.699372 4.981713 -0.000482 0.000177 0.002858
Al 3.160798 -3.706928 -5.302759 0.003609 0.003619 0.004486
Al 3.175234 -3.702416 -0.144443 -0.002376 0.000146 0.000874
Al 1.579806 -0.958574 4.993318 -0.003072 0.001156 -0.001050
Ga 1.591686 -0.945673 -5.296643 0.000292 0.004338 0.001420
Ga 1.592733 -0.956166 -0.107042 0.000011 0.001458 -0.008858
Al 3.163441 1.770729 4.975961 -0.011795 0.004503 0.006554
Al 3.124406 1.796845 -5.295750 -0.002385 -0.001123 0.003756
Ga 3.130840 1.786051 -0.142564 0.001435 -0.000332 -0.002362
Ga 6.332014 -3.694610 4.995779 -0.001232 -0.000412 0.005034
Ga 6.330056 -3.702817 -5.303742 -0.000688 0.000028 0.002864
Al 6.312315 -3.685055 -0.163961 0.000620 -0.000043 0.002280
Ga 4.737930 -0.942312 4.975081 -0.000505 -0.000404 0.002607
Ga 4.747477 -0.960048 -5.300052 -0.001698 0.000673 0.003295
Al 4.754982 -0.963577 -0.141304 -0.001039 0.000840 0.003418
Al -3.229693 1.791478 4.989928 0.002165 0.000188 0.000667
Ga -3.192543 1.809513 -5.272719 -0.002395 -0.001707 0.002897
Al -3.202153 1.792155 -0.165869 -0.001301 0.001268 0.002260
Al -0.028961 -3.696332 5.010788 0.000281 0.001889 -0.002085
Ga -0.011942 -3.701225 -5.280871 -0.002862 -0.000138 0.003058
Ga -0.013808 -3.699891 -0.156350 -0.000413 -0.001147 -0.002534
Al -1.611583 -0.949243 4.996085 0.000428 0.000099 -0.002208
Ga -1.600240 -0.936008 -5.280498 -0.002768 -0.000793 0.004307
Ga -1.621172 -0.946626 -0.134708 -0.003272 0.000051 0.000670
N 1.598339 0.843340 4.368946 0.002845 -0.000964 0.000474
N 1.555528 0.920271 -5.921389 0.002530 -0.000709 -0.010423
N 1.553275 0.869198 -0.832767 0.000396 -0.000965 -0.000685
N -0.025007 3.605843 4.298007 0.000703 0.003870 0.010622
N -0.061094 3.592775 -5.905601 -0.002150 -0.001335 -0.002110
N -0.027432 3.647941 -0.748630 0.000147 0.001525 -0.000905
N 3.118440 -1.849903 4.320726 0.000348 -0.001032 0.005270
N 3.163862 -1.910155 -5.935820 -0.000265 -0.003287 -0.004426
N 3.198424 -1.892245 -0.728992 0.002167 -0.001487 0.000642
N -4.808726 0.926919 4.366101 0.010962 -0.004419 -0.008471
N -4.825888 0.905994 -5.877881 0.000913 0.001026 -0.001087
N -4.760473 0.854223 -0.738056 0.003149 -0.001695 0.001089
N -6.344088 3.583906 4.425343 0.002666 0.002082 -0.004784
N -6.365157 3.573576 -5.940247 0.001270 -0.000841 -0.005156
N -6.410892 3.632611 -0.806480 -0.003061 0.001961 0.000924
N -3.151738 -1.844544 4.322386 -0.002302 -0.002449 0.008641
N -3.176086 -1.861081 -5.956983 0.001184 -0.000385 -0.004112
N -3.222638 -1.884560 -0.783410 -0.001568 -0.002104 -0.002165
N -1.667124 0.862349 4.421762 -0.000702 -0.000201 0.001038
N -1.584607 0.908594 -5.886570 0.001887 0.000072 -0.002967
N -1.655733 0.903409 -0.801048 0.000783 -0.000064 -0.000752
N -3.243051 3.603437 4.414547 -0.001772 -0.001450 -0.001946
N -3.163883 3.648854 -5.890609 0.000592 -0.000823 -0.004003
N -3.162226 3.604837 -0.785809 0.004219 -0.001500 -0.000302
N -0.021384 -1.856038 4.444346 0.001662 -0.002470 0.003670
N -0.014956 -1.855339 -5.899828 0.000735 -0.002108 -0.003256
N -0.014756 -1.852823 -0.760039 0.000955 0.000033 0.002495
N 0.022144 1.809055 1.858221 -0.000684 -0.002689 0.000056
N 0.010874 1.808863 6.973221 0.001527 -0.000268 -0.004394
N -0.025744 1.739488 -3.364834 -0.001981 -0.001218 -0.002350
N 3.211268 -3.692136 1.789899 -0.006090 0.004959 0.000219
N 3.196822 -3.682594 6.961962 0.001717 0.001892 -0.003555
N 3.127063 -3.721942 -3.378682 -0.002753 0.000716 -0.003905
N 1.627643 -0.930138 1.843864 -0.003107 -0.002768 0.007024
N 1.616151 -0.932075 6.923577 0.001024 -0.008226 -0.006846
N 1.586422 -0.915061 -3.329621 -0.001363 -0.000133 -0.000961
N 3.140881 1.738767 1.832971 -0.000092 0.000420 0.003092
N 3.098836 1.804064 6.899349 -0.001449 -0.000198 -0.003485
N 3.104338 1.811199 -3.364171 -0.000955 0.001414 -0.001563
N 6.270233 -3.695124 1.784388 0.009221 0.008223 -0.003535
N 6.312193 -3.696490 6.986407 -0.000670 -0.000073 -0.002024
N 6.365716 -3.669892 -3.323593 0.001406 0.001984 -0.000443
N 4.757702 -0.945261 1.805565 -0.009320 -0.004069 0.003167
N 4.738111 -0.997642 6.961967 -0.001547 -0.001130 -0.004692
N 4.787863 -0.978006 -3.328985 -0.000179 0.000363 -0.001698
N -3.240823 1.774809 1.773158 -0.003524 -0.000693 -0.003643
N -3.218209 1.791194 6.895729 -0.000986 -0.000342 -0.004224
N -3.163794 1.816335 -3.305790 0.000548 0.000921 0.001051
N -0.022112 -3.686224 1.807316 -0.001373 -0.000580 0.002504
N -0.064974 -3.714663 6.914041 -0.002560 -0.001096 -0.002339
N -0.015306 -3.731132 -3.306049 0.000217 -0.002542 0.002221
N -1.650702 -0.974384 1.841528 -0.004715 -0.005144 0.000423
N -1.649543 -0.970225 6.905711 -0.003895 -0.000760 -0.004703
N -1.639102 -0.924028 -3.304947 -0.003469 0.000753 0.000381
