108
Energy=-1443724.786812 Lattice="9.517165 0.000000 0.000000 -4.759326 8.240675 0.000000 0.000351 -0.003987 15.360398" Stress="0.000001 0.000000 0.000000 0.000000 -0.000000 -0.000000 0.000000 -0.000000 -0.000002" Properties=species:S:1:pos:R:3:forces:R:3
Al 1.580756 0.864481 2.426674 -0.000486 0.001851 0.000437
Al 1.566993 0.881910 7.536379 -0.000377 -0.000069 -0.001145
Al 1.560665 0.897239 -2.727040 -0.000094 -0.001038 -0.000546
Al -0.035611 3.624181 2.407248 -0.000023 -0.000167 0.000270
Al -0.016300 3.621291 7.574099 0.000626 -0.000626 0.000178
Al -0.018899 3.624474 -2.750798 -0.000206 0.000006 0.000075
Al 3.135733 -1.879587 2.402414 0.000108 -0.000538 0.001151
Al 3.158049 -1.872425 7.549651 -0.000448 -0.000029 0.000170
Ga 3.153523 -1.886908 -2.715154 0.000091 0.000028 0.000188
Al -4.796664 0.890075 2.416512 0.000949 0.000401 -0.001021
Ga -4.786727 0.875446 7.551689 0.000202 -0.000037 0.000114
Ga -4.790532 0.888927 -2.730904 0.000236 -0.000461 0.000526
Ga -6.369137 3.600963 2.407831 -0.000119 0.000124 -0.000059
Al -6.383656 3.612342 7.563273 0.000321 0.000373 0.000323
Al -6.372284 3.625781 -2.740282 -0.000097 0.000131 0.000504
Ga -3.195585 -1.875921 2.435221 -0.000078 0.000074 -0.000096
Al -3.197275 -1.880083 7.546679 -0.000073 -0.000042 0.000287
Al -3.193662 -1.886518 -2.740521 0.000003 0.000050 0.000191
Ga -1.616644 0.884586 2.420040 0.000316 -0.000139 -0.000222
Al -1.607135 0.881465 7.533179 -0.000072 -0.000239 0.001192
Ga -1.603930 0.891450 -2.717236 0.000648 -0.000529 0.000039
Al -3.185330 3.622202 2.402283 0.000166 -0.000239 0.000167
Ga -3.187886 3.617271 7.560356 0.000055 0.000011 0.000447
Al -3.191111 3.630633 -2.728875 -0.000246 -0.000265 0.000241
Al -0.005374 -1.863929 2.444387 -0.000254 -0.000029 0.000144
Ga -0.022560 -1.863413 7.532195 0.000480 -0.000125 0.000345
Al -0.023503 -1.881951 -2.733727 0.000129 -0.000098 -0.000130
Ga -0.015636 1.778516 4.988031 -0.000158 0.000092 0.000401
Al -0.017529 1.806304 -5.288107 -0.000241 0.000310 0.000500
Ga -0.013716 1.807044 -0.148153 -0.000638 0.000105 0.000084
Ga 3.145817 -3.705212 4.979145 0.000100 0.000375 0.000494
Al 3.156033 -3.710825 -5.269881 0.000366 0.000470 -0.000680
Al 3.146963 -3.722313 -0.151849 -0.000037 -0.000034 0.000064
Al 1.570058 -0.947474 4.971378 -0.000162 0.000156 0.000372
Ga 1.578741 -0.945012 -5.267277 -0.000244 0.000088 0.000493
Ga 1.564054 -0.948856 -0.142204 -0.000572 0.000292 -0.000005
Al 3.151538 1.780170 4.988510 0.000084 -0.000613 0.000390
Al 3.143434 1.804995 -5.271652 -0.000063 -0.000296 -0.000165
Al 3.150339 1.789257 -0.161424 0.000140 0.000029 0.000182
Ga 6.325111 -3.713328 5.014035 -0.000047 -0.000169 0.000353
Al 6.319563 -3.708177 -5.275442 -0.000110 0.000628 0.000015
Ga 6.311110 -3.711770 -0.182444 0.000101 0.000054 0.000184
Ga 4.726448 -0.940534 4.978132 -0.000283 0.000043 0.000001
Al 4.738397 -0.957323 -5.283578 -0.000099 -0.001200 0.000566
Ga 4.737411 -0.944906 -0.134659 -0.000133 0.000357 0.000214
Al -3.203698 1.791289 4.972632 -0.000515 -0.002035 -0.000094
Al -3.192702 1.803576 -5.262296 -0.000040 -0.000231 -0.001638
Al -3.209192 1.812125 -0.150605 -0.000029 -0.000047 0.000668
Ga -0.021035 -3.708913 4.967884 0.000034 0.000320 0.000344
Al -0.027073 -3.721739 -5.249029 0.000506 -0.000058 -0.000115
Ga -0.009424 -3.712423 -0.161614 0.000002 -0.000178 0.000534
Al -1.603834 -0.945541 5.001859 -0.000067 0.000002 0.000248
Ga -1.623507 -0.949062 -5.271651 -0.000264 0.000337 0.000062
Ga -1.607750 -0.957831 -0.163451 -0.000285 -0.000046 0.000693
N 1.609932 0.853522 4.351166 0.000356 0.000043 -0.000370
N 1.565597 0.924531 -5.912427 0.000945 0.000207 0.000523
N 1.600842 0.902223 -0.812567 0.000699 -0.000084 0.000346
N -0.021412 3.621028 4.315488 -0.000039 0.000040 -0.000584
N -0.022391 3.626263 -5.870058 0.000075 0.000042 -0.000225
N -0.070423 3.644748 -0.831670 -0.000073 0.000011 -0.000411
N 3.107393 -1.856131 4.321899 0.000015 0.000002 -0.000908
N 3.186856 -1.895744 -5.893829 0.000511 0.000330 -0.000107
N 3.151958 -1.921652 -0.738819 0.000171 -0.000318 0.000065
N -4.786315 0.928629 4.342163 0.000245 0.000518 0.000713
N -4.780539 0.882863 -5.824362 -0.000873 0.000438 -0.000024
N -4.782472 0.924229 -0.746697 0.000138 0.000105 -0.000526
N -6.374324 3.567146 4.376489 -0.000089 0.000217 -0.000259
N -6.366009 3.623751 -5.871087 -0.000000 0.000025 -0.000250
N -6.365278 3.575068 -0.814515 0.000036 -0.000125 -0.000362
N -3.152654 -1.854344 4.403413 0.000393 0.000202 -0.000005
N -3.234340 -1.893084 -5.901085 0.000081 -0.000720 0.000058
N -3.201906 -1.868824 -0.831180 -0.000009 0.000122 -0.000064
N -1.652238 0.854129 4.399688 0.000013 -0.000070 0.000154
N -1.610680 0.930011 -5.901236 -0.000323 -0.000326 -0.000529
N -1.652114 0.909545 -0.742377 0.000245 -0.000042 0.000129
N -3.190553 3.571691 4.320516 0.000279 0.000943 -0.000966
N -3.196373 3.624860 -5.825045 -0.000707 0.000522 -0.000036
N -3.152298 3.602017 -0.799932 0.000124 -0.000217 -0.000133
N -0.023433 -1.818962 4.370679 0.000181 -0.000066 -0.000326
N -0.020558 -1.917723 -5.859802 0.000198 -0.000394 0.000015
N -0.017805 -1.873428 -0.830084 0.000280 -0.000001 0.000250
N 0.024894 1.811089 1.835215 0.000534 -0.000266 0.000564
N -0.020526 1.794106 6.978553 0.000223 0.000498 -0.000125
N 0.018141 1.814523 -3.365388 0.000071 0.000016 0.000080
N 3.150187 -3.709889 1.783573 -0.000161 0.000252 -0.000150
N 3.195437 -3.683769 6.962308 -0.000232 0.000244 -0.000374
N 3.150365 -3.748730 -3.361155 0.000125 0.000052 0.000306
N 1.558105 -0.951657 1.848752 0.000067 -0.000975 -0.001074
N 1.612812 -0.931967 6.903214 0.000223 0.000122 -0.000105
N 1.531130 -0.926676 -3.294341 -0.000516 0.000761 0.000058
N 3.144479 1.739376 1.759549 -0.000505 -0.000469 0.000043
N 3.111128 1.814932 6.912273 -0.000291 -0.000235 -0.000709
N 3.103322 1.817577 -3.360297 0.000129 0.000331 -0.000545
N 6.280389 -3.726798 1.793083 -0.000072 -0.000102 -0.000236
N 6.320737 -3.711046 6.997818 -0.000156 0.000111 -0.000115
N 6.324237 -3.702604 -3.345362 0.000116 -0.000095 -0.000253
N 4.698033 -0.931066 1.848371 -0.000224 0.000133 -0.000094
N 4.735178 -1.000615 6.958053 -0.000229 0.000126 -0.000054
N 4.774445 -0.977595 -3.369130 -0.000123 0.000182 -0.000556
N -3.241517 1.817630 1.773332 -0.000741 -0.000114 -0.000102
N -3.161586 1.771004 6.886273 0.000199 0.000003 0.000047
N -3.195615 1.839837 -3.366778 0.000237 0.000469 0.001359
N 0.018151 -3.673562 1.833606 0.000287 0.000219 -0.000405
N -0.063351 -3.733467 6.940396 -0.000443 -0.000026 -0.000346
N -0.021527 -3.707326 -3.324747 -0.000108 0.000060 -0.000148
N -1.563735 -0.984272 1.812444 0.000065 0.000113 -0.000805
N -1.650175 -0.930662 6.923071 -0.000197 0.000105 -0.000452
N -1.609447 -0.994265 -3.299899 -0.000250 -0.000047 0.000089
