108
Energy=-711317.149861 Lattice="9.428708 0.000000 0.000000 -4.714642 8.164685 0.000000 -0.000087 0.000607 15.140462" Stress="0.000000 -0.000000 0.000000 -0.000000 -0.000001 0.000000 0.000000 0.000000 0.000002" Properties=species:S:1:pos:R:3:forces:R:3
Al 1.555478 0.874696 2.378288 -0.000045 0.000175 -0.000001
Al 1.550247 0.868301 7.423033 0.000011 0.000020 0.000010
Al 1.556790 0.870393 -2.683721 -0.000036 -0.000006 0.000074
Al -0.027303 3.587302 2.395216 -0.000042 -0.000049 -0.000002
Al -0.021337 3.590358 7.413424 -0.000003 0.000011 -0.000018
Al -0.014391 3.593370 -2.687596 -0.000011 -0.000028 0.000075
Al 3.124159 -1.854826 2.367508 -0.000144 0.000073 0.000024
Al 3.115295 -1.854816 7.437157 0.000026 0.000024 0.000015
Al 3.126278 -1.847929 -2.684979 -0.000028 -0.000010 0.000026
Al -4.740173 0.872675 2.370416 0.000003 0.000041 0.000014
Al -4.738939 0.874168 7.428599 -0.000007 0.000059 0.000049
Al -4.750073 0.861065 -2.677744 0.000123 0.000071 -0.000059
Al -6.315103 3.574228 2.407460 -0.000091 -0.000044 0.000011
Al -6.311109 3.588017 7.421126 0.000005 0.000007 -0.000013
Al -6.317303 3.584073 -2.705610 0.000063 0.000052 0.000216
Al -3.170259 -1.850111 2.383098 0.000029 0.000139 0.000196
Al -3.162536 -1.857817 7.435563 -0.000015 0.000012 -0.000005
Al -3.170108 -1.855561 -2.695419 0.000036 0.000033 0.000118
Al -1.597855 0.873244 2.379604 -0.000013 0.000170 -0.000004
Al -1.593518 0.870309 7.420735 0.000016 0.000013 0.000002
Ga -1.588297 0.862505 -2.674717 0.000059 -0.000028 0.000016
Al -3.154019 3.580062 2.394236 0.000057 -0.000043 0.000009
Al -3.164376 3.589728 7.420137 0.000005 0.000008 0.000003
Ga -3.163908 3.594938 -2.685547 0.000063 -0.000033 -0.000045
Ga -0.021792 -1.842473 2.402729 0.000070 0.000064 -0.000050
Al -0.019929 -1.851826 7.414519 -0.000000 -0.000015 -0.000022
Al -0.023482 -1.848604 -2.689819 -0.000005 -0.000040 0.000115
Al -0.022369 1.772560 4.901034 -0.000018 0.000057 -0.000006
Al -0.017651 1.778048 -5.216521 -0.000012 0.000019 0.000007
Al -0.019671 1.771999 -0.137015 -0.000171 -0.000193 0.000123
Al 3.115745 -3.672350 4.907501 -0.000038 -0.000026 -0.000008
Al 3.126349 -3.666221 -5.215266 -0.000017 -0.000003 -0.000021
Al 3.127447 -3.666195 -0.139771 0.000168 0.000032 0.000148
Al 1.549985 -0.940662 4.917912 -0.000017 -0.000007 0.000021
Al 1.548171 -0.945542 -5.201854 -0.000029 0.000018 -0.000015
Al 1.556437 -0.935986 -0.165147 -0.000057 0.000133 -0.000346
Al 3.114788 1.779180 4.908609 0.000038 0.000025 -0.000005
Al 3.120301 1.772568 -5.205228 0.000008 0.000016 -0.000007
Al 3.118203 1.762282 -0.152365 -0.000051 0.000007 0.000054
Al 6.266540 -3.673534 4.905171 0.000034 0.000025 -0.000004
Al 6.260958 -3.669586 -5.203201 0.000010 0.000007 -0.000018
Ga 6.255477 -3.669139 -0.148493 -0.000031 -0.000012 0.000241
Ga 4.689509 -0.945909 4.908156 -0.000002 0.000109 -0.000000
Al 4.690520 -0.943869 -5.203833 -0.000005 0.000015 -0.000022
Al 4.688230 -0.940456 -0.153243 0.000039 0.000045 0.000107
Al -3.161252 1.780804 4.903048 -0.000023 0.000006 -0.000007
Al -3.169181 1.772438 -5.221716 0.000015 0.000017 -0.000136
Al -3.167073 1.764670 -0.127030 0.000226 -0.000179 0.000125
Al -0.021476 -3.676240 4.916040 0.000012 -0.000180 0.000066
Al -0.025247 -3.663599 -5.218009 0.000009 0.000013 0.000002
Ga -0.021626 -3.668683 -0.140891 -0.000005 0.000005 0.000242
Al -1.593439 -0.939895 4.922112 0.000020 -0.000055 -0.000032
Al -1.591315 -0.949574 -5.216233 -0.000005 0.000013 -0.000026
Al -1.597803 -0.937589 -0.147833 0.000123 0.000412 -0.000111
N 1.550317 0.866970 4.301392 -0.000021 -0.000104 -0.000043
N 1.551001 0.866346 -5.803863 0.000003 -0.000055 0.000007
N 1.547060 0.872650 -0.759722 0.000048 0.000009 -0.000011
N -0.025802 3.589147 4.313483 -0.000034 -0.000020 -0.000029
N -0.020204 3.590246 -5.813439 -0.000016 -0.000012 0.000004
N -0.065041 3.562633 -0.771787 -0.000030 0.000051 -0.000017
N 3.076779 -1.876873 4.281307 -0.000012 0.000000 -0.000164
N 3.117521 -1.851583 -5.793682 -0.000010 -0.000001 0.000008
N 3.122977 -1.856905 -0.757343 0.000017 0.000032 0.000071
N -4.739253 0.917034 4.283863 0.000012 -0.000016 -0.000022
N -4.740936 0.869039 -5.804087 0.000006 -0.000048 -0.000016
N -4.736662 0.869073 -0.749911 0.000069 -0.000000 -0.000011
N -6.309209 3.585431 4.320330 -0.000006 -0.000044 -0.000048
N -6.311906 3.587351 -5.801813 0.000003 -0.000023 -0.000007
N -6.309571 3.541048 -0.797645 0.000014 -0.000028 -0.000231
N -3.122904 -1.873312 4.292586 0.000029 -0.000064 -0.000138
N -3.166296 -1.856463 -5.793450 -0.000009 0.000001 0.000011
N -3.166008 -1.806156 -0.777031 -0.000268 -0.000077 -0.000108
N -1.594382 0.866659 4.303765 0.000078 -0.000047 -0.000026
N -1.591429 0.868989 -5.805049 0.000054 -0.000046 -0.000018
N -1.593002 0.871545 -0.696775 -0.000061 0.000208 0.000173
N -3.162525 3.588925 4.312310 0.000033 -0.000052 -0.000024
N -3.164038 3.591348 -5.803887 0.000031 -0.000007 -0.000030
N -3.122203 3.563275 -0.715559 -0.000158 -0.000084 0.000016
N -0.021945 -1.850708 4.376799 -0.000090 0.000402 -0.000057
N -0.018358 -1.850734 -5.811069 0.000041 0.000014 0.000007
N -0.024024 -1.805362 -0.770365 0.000067 -0.000156 -0.000144
N -0.019254 1.777285 1.787621 -0.000032 0.000023 -0.000135
N -0.021266 1.773837 6.819843 -0.000016 -0.000058 0.000013
N 0.019918 1.798221 -3.304542 -0.000014 0.000007 -0.000024
N 3.124400 -3.669672 1.781254 -0.000078 0.000063 -0.000123
N 3.120296 -3.664461 6.824911 -0.000017 0.000032 0.000009
N 3.164729 -3.642486 -3.306410 -0.000004 0.000020 0.000004
N 1.587782 -0.919279 1.749241 0.000204 -0.000364 0.000334
N 1.555453 -0.943087 6.829831 -0.000037 0.000022 -0.000006
N 1.550578 -0.945010 -3.279056 -0.000019 0.000014 -0.000020
N 3.117863 1.778253 1.770251 0.000047 -0.000004 -0.000028
N 3.119296 1.774157 6.823709 0.000009 -0.000031 -0.000023
N 3.121140 1.769698 -3.288868 0.000032 -0.000011 -0.000022
N 6.263179 -3.670905 1.834364 0.000147 -0.000025 -0.000278
N 6.263859 -3.665884 6.822217 -0.000009 0.000013 0.000009
N 6.260343 -3.667189 -3.284832 -0.000003 -0.000007 0.000026
N 4.692379 -0.945949 1.774543 -0.000037 -0.000014 -0.000126
N 4.691028 -0.946751 6.881497 -0.000037 -0.000089 0.000034
N 4.689955 -0.943414 -3.283063 0.000013 0.000004 0.000018
N -3.166904 1.775019 1.788444 0.000030 0.000028 -0.000122
N -3.165983 1.774765 6.822848 0.000010 -0.000024 -0.000001
N -3.206755 1.748272 -3.319671 -0.000225 -0.000104 0.000278
N -0.025574 -3.713735 1.831284 -0.000004 -0.000096 -0.000250
N -0.022763 -3.672067 6.831843 0.000021 -0.000005 0.000020
N -0.061782 -3.642314 -3.304804 -0.000090 0.000041 0.000102
N -1.634096 -0.924472 1.762262 -0.000036 -0.000291 0.000027
N -1.599019 -0.943751 6.834922 0.000014 0.000019 0.000013
N -1.593720 -0.991376 -3.307711 -0.000013 0.000013 -0.000010
