108
Energy=-1.260623e+06 Lattice="9.492997e+00 0.000000e+00 0.000000e+00 -4.747999e+00 8.218829e+00 0.000000e+00 -2.439063e-03 5.249100e-03 1.530981e+01" Stress="-2.851691e-04 -7.950632e-05 -5.100009e-05 -7.716207e-05 -6.389936e-04 2.531389e-04 -6.464269e-05 2.633091e-04 -6.485718e-05" Properties=species:S:1:pos:R:3:forces:R:3 Config_type=AlGaN_super3_18_1_22.xyz
Al 1.562080e+00 8.748056e-01 2.417119e+00 -4.100347e-04 3.574074e-04 1.555389e-04
Al 1.558647e+00 8.851290e-01 7.514072e+00 -6.799077e-05 1.810974e-04 2.839850e-04
Al 1.552495e+00 8.691353e-01 -2.730337e+00 -1.842771e-04 -5.225823e-05 -1.462767e-04
Al -2.515723e-02 3.607102e+00 2.427386e+00 5.941405e-04 -5.465675e-05 2.646561e-04
Al -2.436712e-02 3.607711e+00 7.498054e+00 1.031068e-04 4.216523e-05 -1.340061e-04
Al -1.326298e-02 3.600105e+00 -2.717794e+00 7.483871e-05 -1.965133e-04 9.239434e-05
Al 3.138876e+00 -1.858373e+00 2.390594e+00 4.838231e-04 -8.094843e-04 4.204361e-04
Al 3.136423e+00 -1.864590e+00 7.530483e+00 3.013190e-05 4.082519e-04 -3.133104e-05
Ga 3.135994e+00 -1.853338e+00 -2.714608e+00 -5.864480e-05 1.509665e-04 2.320351e-04
Al -4.777233e+00 8.784389e-01 2.417330e+00 2.862074e-04 5.938428e-05 2.293318e-04
Al -4.787378e+00 8.823679e-01 7.501584e+00 1.949052e-04 -4.900858e-05 -7.230834e-05
Al -4.780672e+00 8.660552e-01 -2.703033e+00 -1.239583e-05 1.269657e-05 -1.393795e-04
Ga -6.360882e+00 3.597463e+00 2.434452e+00 -4.036548e-04 4.272012e-04 -2.839718e-04
Al -6.357111e+00 3.604719e+00 7.503784e+00 -2.376283e-05 -1.090265e-04 1.465026e-04
Ga -6.361022e+00 3.604449e+00 -2.726088e+00 9.334378e-05 5.538953e-05 3.605260e-05
Ga -3.198449e+00 -1.868914e+00 2.409726e+00 1.031323e-04 -5.796593e-05 2.332127e-04
Ga -3.188724e+00 -1.866835e+00 7.510156e+00 -2.018921e-04 -1.088604e-04 1.186047e-04
Ga -3.196609e+00 -1.872303e+00 -2.699574e+00 -1.571635e-04 1.385362e-04 1.237332e-04
Ga -1.602722e+00 8.914457e-01 2.407685e+00 1.770040e-05 -1.864402e-04 1.909048e-04
Al -1.591764e+00 8.827129e-01 7.484575e+00 8.620118e-06 1.914220e-04 2.626842e-04
Ga -1.589773e+00 8.856291e-01 -2.677828e+00 5.446524e-04 -1.491731e-05 2.214044e-04
Al -3.177361e+00 3.604650e+00 2.439830e+00 -3.233415e-04 1.534301e-06 2.267705e-04
Ga -3.186117e+00 3.625108e+00 7.496044e+00 3.404351e-05 -5.151493e-05 1.164883e-04
Ga -3.186144e+00 3.616777e+00 -2.718423e+00 1.122286e-04 -1.262069e-04 -5.135533e-05
Ga -5.417003e-03 -1.857349e+00 2.424193e+00 -3.015216e-04 6.245050e-05 1.827613e-04
Al -2.138169e-02 -1.858479e+00 7.502278e+00 6.909842e-04 -1.054845e-03 3.264796e-04
Al -6.081910e-03 -1.856837e+00 -2.703994e+00 7.600450e-05 1.766536e-04 -2.026737e-04
Al -1.987742e-02 1.798843e+00 4.968910e+00 -2.546472e-04 -9.402386e-05 -2.662631e-05
Al -8.537525e-03 1.798043e+00 -5.275418e+00 2.172744e-04 -5.053594e-06 1.709375e-04
Al -1.247677e-02 1.786906e+00 -1.447208e-01 1.839061e-04 -1.382830e-04 -3.977014e-04
Al 3.150492e+00 -3.698422e+00 4.944816e+00 -1.782153e-04 -1.413335e-04 -3.419613e-05
Al 3.162887e+00 -3.686911e+00 -5.265610e+00 -3.286007e-04 -1.518194e-04 -6.561541e-05
Ga 3.160579e+00 -3.703277e+00 -1.266442e-01 -6.065831e-06 2.186030e-04 -1.461718e-04
Ga 1.563114e+00 -9.466021e-01 4.980350e+00 -4.947671e-04 3.463591e-04 5.156454e-04
Al 1.562722e+00 -9.525482e-01 -5.280588e+00 -2.841828e-04 -5.264994e-05 1.859402e-05
Al 1.554153e+00 -9.368139e-01 -1.488520e-01 -6.370290e-04 1.711361e-04 -1.734466e-04
Al 3.138320e+00 1.796159e+00 4.972262e+00 -3.188024e-04 8.533015e-05 1.224629e-04
Al 3.133113e+00 1.779247e+00 -5.271214e+00 3.586579e-04 -1.896557e-04 -9.414696e-05
Ga 3.133468e+00 1.763084e+00 -1.489591e-01 -5.791100e-05 9.559229e-05 -3.503958e-04
Al 6.305238e+00 -3.709087e+00 4.979496e+00 -1.155172e-04 2.317486e-04 4.463535e-04
Al 6.297615e+00 -3.712034e+00 -5.278702e+00 5.440518e-05 2.662441e-04 5.834573e-05
Al 6.289852e+00 -3.694296e+00 -1.454919e-01 -3.284320e-05 -3.381695e-06 8.762890e-05
Ga 4.719753e+00 -9.463010e-01 4.962097e+00 -4.245905e-05 2.073953e-04 3.767942e-04
Al 4.707072e+00 -9.508089e-01 -5.269839e+00 -1.267966e-04 -5.645200e-05 1.239799e-04
Al 4.727487e+00 -9.450897e-01 -1.345377e-01 9.323180e-04 4.508277e-04 3.342847e-04
Al -3.189871e+00 1.793110e+00 4.965509e+00 1.074762e-04 -9.087631e-05 -2.243154e-04
Ga -3.194573e+00 1.781163e+00 -5.272601e+00 6.504813e-05 -9.453853e-05 3.229162e-04
Al -3.190857e+00 1.772793e+00 -1.318793e-01 -1.660699e-04 -1.088762e-04 2.305677e-06
Al -2.719102e-02 -3.698872e+00 4.972148e+00 -1.541628e-04 -1.111452e-04 2.349691e-04
Al -2.806419e-02 -3.683336e+00 -5.272632e+00 1.702533e-04 -2.528718e-04 -2.295261e-04
Ga -2.206569e-02 -3.681570e+00 -1.387719e-01 9.714721e-05 -1.178403e-05 5.799180e-04
Al -1.601516e+00 -9.471657e-01 4.985227e+00 7.139589e-05 4.785532e-04 2.016330e-04
Ga -1.587852e+00 -9.571577e-01 -5.259592e+00 -1.518509e-04 -2.125835e-05 4.567998e-04
Al -1.601213e+00 -9.494591e-01 -1.600366e-01 -3.046683e-04 -1.195063e-04 -2.965470e-04
N 1.556234e+00 9.222002e-01 4.337951e+00 3.374602e-04 4.569690e-05 2.306571e-05
N 1.557766e+00 8.766239e-01 -5.874775e+00 2.596288e-04 4.913979e-05 -2.204295e-04
N 1.514051e+00 8.481308e-01 -8.053849e-01 -9.383569e-05 1.996618e-04 2.703296e-04
N -1.846641e-02 3.610782e+00 4.350135e+00 1.365560e-04 4.282598e-05 -9.953110e-06
N -2.540886e-02 3.609502e+00 -5.893527e+00 -7.930215e-05 3.447178e-05 -2.843242e-05
N 1.724025e-02 3.584534e+00 -7.959602e-01 -4.298072e-05 6.832325e-05 1.613407e-04
N 3.137993e+00 -1.906387e+00 4.301166e+00 2.325205e-05 1.617443e-04 -3.179339e-04
N 3.141837e+00 -1.871216e+00 -5.860410e+00 -3.723964e-05 -9.421887e-05 -2.596190e-04
N 3.141775e+00 -1.820463e+00 -7.245875e-01 -1.012911e-04 -3.067353e-04 -1.558565e-04
N -4.772549e+00 9.270490e-01 4.334983e+00 2.392741e-04 -1.776854e-04 -3.247911e-04
N -4.814003e+00 8.507982e-01 -5.901367e+00 -4.929444e-04 5.928619e-04 5.607322e-05
N -4.728866e+00 8.463298e-01 -7.834290e-01 -5.719981e-05 9.707511e-05 1.697055e-05
N -6.356106e+00 3.613459e+00 4.411734e+00 3.310132e-05 4.236319e-05 1.548341e-04
N -6.349614e+00 3.606934e+00 -5.873455e+00 -2.204631e-04 -2.381429e-05 -2.895759e-05
N -6.393706e+00 3.631974e+00 -7.502975e-01 -2.012275e-04 1.370861e-04 9.301302e-05
N -3.143789e+00 -1.891203e+00 4.394505e+00 -1.170162e-04 -3.327974e-04 -1.673312e-04
N -3.226163e+00 -1.889468e+00 -5.828822e+00 2.842072e-04 -4.932000e-04 -2.181489e-04
N -3.192979e+00 -1.869613e+00 -7.072996e-01 -1.249296e-04 6.044939e-05 -7.912127e-05
N -1.603897e+00 8.778792e-01 4.399993e+00 1.316775e-04 -1.599661e-04 7.680330e-05
N -1.559103e+00 8.987215e-01 -5.912437e+00 -1.015804e-04 -5.428976e-05 -6.189287e-04
N -1.601812e+00 8.834221e-01 -6.916387e-01 2.563298e-04 -1.600520e-05 2.830973e-05
N -3.187515e+00 3.612992e+00 4.368864e+00 -2.620797e-05 -7.096666e-05 -7.733090e-05
N -3.183154e+00 3.662753e+00 -5.838459e+00 2.006250e-04 2.364121e-04 1.042358e-04
N -3.184182e+00 3.567046e+00 -7.476434e-01 6.711038e-05 -2.896166e-04 8.124876e-05
N -6.084692e-02 -1.882654e+00 4.395190e+00 1.485587e-04 -3.255892e-04 -1.749647e-04
N 1.855944e-02 -1.891761e+00 -5.900474e+00 1.292308e-04 4.378363e-04 -2.947696e-04
N -1.419411e-02 -1.819919e+00 -7.831704e-01 2.607743e-04 1.057993e-04 1.229636e-04
N 2.537296e-02 1.814421e+00 1.779328e+00 2.869634e-05 -5.823003e-06 -7.204469e-05
N -1.601734e-02 1.792483e+00 6.888995e+00 -5.271247e-05 7.779325e-05 -1.801141e-04
N 1.586283e-02 1.809764e+00 -3.352665e+00 -4.696889e-05 1.319517e-04 -1.364935e-04
N 3.146268e+00 -3.701176e+00 1.861265e+00 -3.515971e-04 6.037070e-04 -2.840094e-04
N 3.187126e+00 -3.658925e+00 6.866719e+00 1.742978e-04 -1.544684e-04 2.613007e-04
N 3.192659e+00 -3.714269e+00 -3.351317e+00 -1.299113e-04 2.221313e-04 -2.127131e-04
N 1.596612e+00 -9.204319e-01 1.774384e+00 -1.275982e-04 -6.731022e-06 -1.218121e-04
N 1.564706e+00 -9.452425e-01 6.960256e+00 2.864147e-04 -2.429119e-04 -1.717555e-04
N 1.518125e+00 -9.297264e-01 -3.358550e+00 -6.082271e-05 -2.443149e-04 1.425545e-04
N 3.136598e+00 1.736247e+00 1.826059e+00 6.265875e-04 -1.852018e-04 3.214525e-05
N 3.135399e+00 1.787212e+00 6.896010e+00 -5.402935e-06 2.278727e-05 -3.032042e-04
N 3.141309e+00 1.732758e+00 -3.344802e+00 3.129970e-04 2.999757e-05 1.165353e-04
N 6.260412e+00 -3.721604e+00 1.766526e+00 2.243367e-04 -1.078046e-04 1.808967e-04
N 6.303529e+00 -3.741945e+00 6.892206e+00 -8.154272e-05 -4.750064e-05 -7.453140e-04
N 6.263120e+00 -3.717628e+00 -3.369040e+00 3.246290e-05 -7.712415e-05 -9.226976e-05
N 4.686419e+00 -9.198440e-01 1.786332e+00 -4.980116e-04 -4.113621e-04 2.590939e-05
N 4.674765e+00 -9.261160e-01 6.931626e+00 -1.992109e-04 -2.473725e-04 -1.801050e-04
N 4.723771e+00 -9.047564e-01 -3.359372e+00 -1.924086e-04 -1.722698e-04 -1.161680e-04
N -3.234749e+00 1.811587e+00 1.790533e+00 1.372871e-04 3.028581e-04 -6.480640e-05
N -3.192629e+00 1.743317e+00 6.881510e+00 -2.727161e-04 -1.543115e-04 2.105140e-04
N -3.226616e+00 1.755124e+00 -3.305413e+00 -1.240079e-04 8.334709e-06 -7.684963e-05
N 1.966650e-02 -3.716929e+00 1.832946e+00 1.518218e-04 -4.737962e-05 -4.083195e-04
N -6.768648e-02 -3.668675e+00 6.884577e+00 1.068477e-04 5.453030e-04 -3.528565e-04
N -2.606786e-02 -3.639779e+00 -3.358406e+00 4.818406e-05 2.125783e-05 2.893819e-04
N -1.600202e+00 -9.528433e-01 1.745272e+00 -5.128973e-05 -7.812944e-05 -1.377522e-04
N -1.564709e+00 -9.260996e-01 6.894976e+00 -3.593877e-04 1.022253e-04 -7.127061e-04
N -1.562348e+00 -9.704743e-01 -3.287468e+00 -2.943892e-04 -1.542428e-04 7.988309e-05
