108
Energy=-5.282143e+05 Lattice="9.422436e+00 0.000000e+00 0.000000e+00 -4.735748e+00 8.155990e+00 0.000000e+00 2.783892e-03 -5.173126e-02 1.502490e+01" Stress="2.464389e-03 7.228031e-04 6.405017e-05 7.168579e-04 4.843441e-03 -3.053100e-03 6.422217e-05 -3.055860e-03 -1.619518e-02" Properties=species:S:1:pos:R:3:forces:R:3 Config_type=AlGaN_super3_2_2_3.xyz
Al 1.541004e+00 8.511223e-01 2.352072e+00 -1.920360e-04 -4.814930e-03 -1.603475e-03
Al 1.541081e+00 8.393923e-01 7.361719e+00 7.191000e-04 -4.826020e-03 -7.040710e-05
Al 1.541717e+00 8.891067e-01 -2.651765e+00 1.647125e-03 -4.721042e-03 -3.008391e-04
Al -2.907668e-02 3.559659e+00 2.355568e+00 -2.991507e-04 1.430181e-03 -2.671260e-03
Al -2.614276e-02 3.551194e+00 7.362211e+00 1.101688e-04 -1.032023e-03 7.795376e-04
Al -2.895574e-02 3.605828e+00 -2.647969e+00 3.556377e-05 -1.555997e-05 9.107660e-04
Al 3.136173e+00 -1.885194e+00 2.342184e+00 -9.019691e-04 -3.173311e-04 -1.926165e-03
Al 3.141510e+00 -1.891126e+00 7.361045e+00 7.484857e-05 1.067823e-04 1.021042e-03
Al 3.137055e+00 -1.838879e+00 -2.642384e+00 -5.233111e-05 -6.941202e-04 2.051223e-04
Al -4.749717e+00 8.493210e-01 2.354215e+00 1.329142e-03 -5.813919e-03 -3.547202e-03
Al -4.748690e+00 8.449372e-01 7.364786e+00 1.360418e-03 -4.794467e-03 -2.087822e-04
Al -4.751716e+00 8.996545e-01 -2.643438e+00 1.353716e-03 -4.407946e-03 -1.825494e-03
Al -6.345386e+00 3.538282e+00 2.379861e+00 1.479430e-02 1.602264e-02 -1.788323e-02
Al -6.316784e+00 3.557268e+00 7.362834e+00 1.423615e-04 3.946583e-05 9.753535e-04
Al -6.325959e+00 3.605903e+00 -2.650572e+00 1.279530e-03 3.916867e-04 4.433489e-04
Al -3.145809e+00 -1.880186e+00 2.345258e+00 1.109969e-03 3.780410e-04 -2.353191e-03
Al -3.154806e+00 -1.887720e+00 7.358904e+00 1.402307e-03 8.233911e-04 2.717600e-04
Al -3.153788e+00 -1.834128e+00 -2.632769e+00 -4.286718e-04 -9.994752e-04 -6.932095e-04
Al -1.620211e+00 8.610164e-01 2.354983e+00 7.099377e-03 -4.023987e-03 -2.640315e-03
Al -1.620081e+00 8.569659e-01 7.360273e+00 6.628405e-03 -5.063680e-03 -1.379543e-03
Al -1.625812e+00 9.027685e-01 -2.640432e+00 5.619931e-03 -2.567665e-03 -1.835422e-03
Al -3.164492e+00 3.541717e+00 2.383050e+00 -7.997549e-03 1.769890e-02 -1.966103e-02
Al -3.188459e+00 3.562171e+00 7.363583e+00 4.401457e-03 1.064754e-03 2.734560e-04
Al -3.184256e+00 3.611113e+00 -2.648995e+00 3.423366e-03 1.475253e-03 2.287078e-04
Al -1.743891e-02 -1.830607e+00 2.328608e+00 4.486757e-03 -2.940370e-03 -1.060333e-03
Al -1.614550e-02 -1.883856e+00 7.357305e+00 3.526158e-03 1.705693e-03 -2.253054e-04
Al -2.134387e-02 -1.821204e+00 -2.639683e+00 5.615136e-03 -7.225289e-04 9.898881e-04
Al -2.027320e-02 1.741336e+00 4.852914e+00 -4.732023e-03 -1.021255e-03 -8.736114e-04
Al -2.275979e-02 1.798059e+00 -5.155174e+00 -3.886584e-03 -1.711497e-03 4.932714e-04
Al -2.448981e-02 1.784950e+00 -1.745619e-01 -4.028134e-03 4.199515e-04 7.560458e-03
Al 3.146805e+00 -3.701288e+00 4.863469e+00 -1.932234e-03 1.746863e-03 -6.979856e-04
Al 3.143921e+00 -3.648875e+00 -5.153335e+00 -4.429578e-03 -8.432297e-04 -5.343877e-05
Al 3.149453e+00 -3.648619e+00 -1.253257e-01 -7.096787e-03 -3.497432e-03 -1.489842e-02
Al 1.578647e+00 -9.917699e-01 4.856708e+00 -5.900190e-03 3.801233e-03 -1.482275e-03
Al 1.581632e+00 -9.422054e-01 -5.154593e+00 -6.094404e-03 4.686350e-03 -1.245660e-04
Al 1.579541e+00 -9.334334e-01 -1.203557e-01 -7.282817e-03 2.823439e-04 -2.141633e-02
Al 3.105956e+00 1.743733e+00 4.863450e+00 -8.432593e-05 -3.566570e-03 9.592071e-04
Al 3.105304e+00 1.797020e+00 -5.158068e+00 -8.836446e-05 7.314857e-05 6.362574e-04
Al 3.100337e+00 1.793408e+00 -1.347576e-01 4.184648e-04 6.519988e-04 -1.208271e-02
Al 6.273356e+00 -3.696763e+00 4.862207e+00 -2.720101e-03 2.925927e-03 2.816215e-06
Al 6.267450e+00 -3.647650e+00 -5.155088e+00 1.103015e-03 3.877852e-05 1.320544e-03
Al 6.265296e+00 -3.645368e+00 -1.268555e-01 2.342786e-03 -2.227864e-03 -1.302701e-02
Al 4.706295e+00 -9.850308e-01 4.854379e+00 -1.281484e-03 3.876416e-03 -1.345716e-03
Al 4.698816e+00 -9.366279e-01 -5.151285e+00 -9.202796e-04 5.750740e-03 7.145802e-04
Al 4.702664e+00 -9.315351e-01 -1.309517e-01 -1.135881e-03 2.373577e-03 -1.220141e-02
Al -3.181630e+00 1.749720e+00 4.861923e+00 -2.635140e-04 -3.505440e-03 8.896424e-04
Al -3.187046e+00 1.809706e+00 -5.157873e+00 -1.159218e-03 -8.822621e-04 1.704599e-03
Al -3.181740e+00 1.800980e+00 -1.344817e-01 -7.583715e-04 9.815811e-04 -1.119328e-02
Al -1.538641e-02 -3.695932e+00 4.848202e+00 -2.031017e-04 4.080121e-03 2.107044e-03
Al -1.361427e-02 -3.642051e+00 -5.153513e+00 -1.391885e-03 -3.703140e-05 2.182185e-03
Ga -1.824238e-02 -3.638963e+00 -1.559384e-01 -5.011605e-05 -6.871852e-04 -4.347867e-02
Al -1.582357e+00 -9.809919e-01 4.856910e+00 -1.420172e-03 4.758704e-03 -3.073669e-04
Ga -1.585981e+00 -9.301777e-01 -5.151741e+00 -1.301364e-03 5.981555e-03 -1.927918e-04
Al -1.588705e+00 -9.218607e-01 -1.236163e-01 1.229175e-04 1.073438e-03 -1.916286e-02
N 1.543697e+00 8.392627e-01 4.264001e+00 1.594444e-03 -4.159723e-03 7.407811e-04
N 1.538163e+00 8.918234e-01 -5.751881e+00 8.326327e-04 -4.877981e-03 4.496086e-04
N 1.541942e+00 8.877593e-01 -7.389612e-01 1.048831e-03 -3.820925e-03 8.098923e-04
N -2.677297e-02 3.556807e+00 4.265932e+00 -9.870187e-06 -3.448120e-04 4.091916e-04
N -2.855703e-02 3.603756e+00 -5.750185e+00 -5.982879e-04 -1.058004e-04 -1.213611e-03
N -2.916152e-02 3.606176e+00 -7.324248e-01 9.313038e-05 -1.944110e-03 -1.245727e-03
N 3.138390e+00 -1.889865e+00 4.254750e+00 2.148758e-06 -1.128888e-03 3.450265e-04
N 3.139040e+00 -1.839180e+00 -5.750783e+00 1.377515e-06 -8.546172e-04 -1.559963e-03
N 3.137308e+00 -1.838139e+00 -7.294603e-01 6.139788e-04 -6.461600e-04 4.304987e-04
N -4.749995e+00 8.470011e-01 4.261398e+00 1.266611e-03 -3.079984e-03 1.274144e-03
N -4.751778e+00 8.962428e-01 -5.750990e+00 1.620855e-03 -4.818571e-03 5.430881e-04
N -4.752378e+00 8.999146e-01 -7.342052e-01 1.457195e-03 -5.144931e-03 2.983873e-03
N -6.327463e+00 3.548551e+00 4.273872e+00 4.997190e-03 1.834426e-03 -2.439758e-03
N -6.319160e+00 3.609454e+00 -5.751264e+00 7.954992e-05 1.969455e-04 -2.052344e-04
N -6.344290e+00 3.596064e+00 -7.459566e-01 -1.116310e-02 -8.135596e-03 -5.030381e-03
N -3.148042e+00 -1.884720e+00 4.256330e+00 8.952504e-05 -8.860286e-04 7.182629e-04
N -3.175927e+00 -1.846605e+00 -5.758874e+00 -8.573308e-03 -4.977674e-03 -4.701447e-03
N -3.154619e+00 -1.834071e+00 -7.250108e-01 -1.096613e-04 -4.686231e-04 1.046439e-03
N -1.622451e+00 8.496373e-01 4.265260e+00 5.499588e-03 -2.935214e-03 1.751721e-03
N -1.623078e+00 9.315951e-01 -5.758928e+00 5.857437e-03 4.918643e-03 -2.481636e-03
N -1.625700e+00 9.021740e-01 -7.334856e-01 5.707805e-03 -3.385055e-03 1.863183e-03
N -3.177773e+00 3.554048e+00 4.275031e+00 -1.575559e-04 2.970617e-03 -1.352564e-03
N -3.190950e+00 3.615299e+00 -5.750014e+00 5.156848e-03 1.245090e-03 -5.088299e-04
N -3.165348e+00 3.602440e+00 -7.458006e-01 1.588818e-02 -7.551017e-03 -5.291347e-03
N -2.025242e-02 -1.877703e+00 4.250672e+00 4.337910e-03 -6.681573e-04 -2.978417e-04
N -8.015134e-04 -1.842216e+00 -5.759748e+00 1.301159e-02 -3.881165e-03 -4.002472e-03
N -2.135830e-02 -1.800208e+00 -7.376988e-01 4.107382e-03 1.607328e-02 -8.453265e-03
N -2.313140e-02 1.756266e+00 1.785435e+00 -4.058005e-03 -2.053848e-03 -7.048950e-03
N -1.994966e-02 1.741897e+00 6.764071e+00 -4.133353e-03 -7.892109e-04 3.230887e-04
N -2.330101e-02 1.792534e+00 -3.239113e+00 -4.780403e-03 -1.161309e-03 5.002233e-04
N 3.143811e+00 -3.700167e+00 1.740380e+00 -2.541117e-03 7.183747e-04 1.855899e-02
N 3.146702e+00 -3.701595e+00 6.770204e+00 -5.138866e-03 -1.093972e-03 5.156244e-04
N 3.143928e+00 -3.649442e+00 -3.243480e+00 -3.677620e-03 -1.940314e-04 -5.045239e-04
N 1.581197e+00 -9.633257e-01 1.726213e+00 -2.121198e-03 6.088030e-03 2.353732e-02
N 1.579543e+00 -9.929193e-01 6.765107e+00 -5.398758e-03 3.947077e-03 1.035043e-03
N 1.576614e+00 -9.394890e-01 -3.243563e+00 -5.011333e-03 3.762346e-03 -2.640412e-04
N 3.103533e+00 1.746559e+00 1.745618e+00 3.589897e-03 4.145552e-03 1.251957e-02
N 3.107876e+00 1.745233e+00 6.770428e+00 3.267482e-04 5.785784e-04 -3.489363e-04
N 3.105440e+00 1.797905e+00 -3.247032e+00 1.710156e-04 -8.629899e-04 -7.972438e-04
N 6.271899e+00 -3.695508e+00 1.744123e+00 -7.305616e-05 2.211799e-03 1.588198e-02
N 6.273204e+00 -3.696862e+00 6.767824e+00 7.534454e-04 -3.514298e-04 -4.735381e-04
N 6.270959e+00 -3.643441e+00 -3.242904e+00 -6.604400e-04 1.179146e-03 -1.190588e-03
N 4.707569e+00 -9.835375e-01 1.745721e+00 -1.596289e-03 7.290823e-03 1.317787e-02
N 4.706074e+00 -9.858721e-01 6.763419e+00 -1.505859e-03 5.031069e-03 2.031438e-04
N 4.704527e+00 -9.337643e-01 -3.237711e+00 -9.633558e-04 4.743641e-03 4.172014e-04
N -3.179550e+00 1.750316e+00 1.748150e+00 -3.598350e-03 3.805830e-03 1.183908e-02
N -3.183058e+00 1.751970e+00 6.768035e+00 -8.282216e-04 6.298138e-04 -5.182724e-04
N -3.184905e+00 1.803717e+00 -3.244752e+00 -9.139593e-05 -1.220941e-03 -1.358096e-03
N 7.809914e-03 -3.570957e+00 1.637164e+00 -4.265478e-03 -3.494237e-02 9.844456e-02
N -1.523176e-02 -3.692210e+00 6.761196e+00 -2.088797e-04 -6.993536e-04 -1.494012e-03
N -1.808468e-02 -3.638146e+00 -3.238161e+00 -2.287128e-04 3.649202e-04 -1.457910e-03
N -1.584991e+00 -9.559693e-01 1.728045e+00 -4.691063e-03 6.709500e-03 2.131685e-02
N -1.582680e+00 -9.816969e-01 6.768636e+00 -1.469792e-03 4.817098e-03 2.696287e-04
N -1.586416e+00 -9.275802e-01 -3.212497e+00 -2.565658e-03 5.017200e-03 1.008836e-02
