108
Energy=-7.113171e+05 Lattice="9.428735e+00 0.000000e+00 0.000000e+00 -4.714675e+00 8.164681e+00 0.000000e+00 -1.770496e-05 7.328072e-04 1.514059e+01" Stress="6.025245e-05 -1.260734e-05 1.324994e-05 -7.450306e-06 -6.597984e-05 9.359073e-05 1.262359e-05 8.983160e-05 3.540798e-04" Properties=species:S:1:pos:R:3:forces:R:3 Config_type=AlGaN_super3_6_2_26.xyz
Al 1.555491e+00 8.748203e-01 2.378575e+00 -4.234799e-05 -1.484691e-04 -1.498370e-04
Al 1.550277e+00 8.684083e-01 7.423079e+00 9.830938e-06 7.030096e-06 8.027179e-06
Al 1.556810e+00 8.704164e-01 -2.683893e+00 -2.713860e-05 -2.560844e-05 4.591431e-05
Al -2.726286e-02 3.587389e+00 2.395594e+00 -3.188382e-05 2.893619e-06 -9.549960e-05
Al -2.130056e-02 3.590443e+00 7.413519e+00 -5.331692e-06 2.131210e-05 -2.402456e-05
Al -1.439464e-02 3.593344e+00 -2.687703e+00 -1.916527e-05 -5.957676e-06 7.315821e-05
Al 3.124199e+00 -1.854734e+00 2.367933e+00 6.237224e-05 -8.016251e-05 -5.313992e-05
Al 3.115396e+00 -1.854772e+00 7.437155e+00 -3.164470e-05 -7.465031e-06 5.313903e-05
Al 3.126307e+00 -1.847973e+00 -2.685175e+00 -1.073655e-05 -5.214576e-06 3.955472e-05
Al -4.740254e+00 8.727107e-01 2.370734e+00 1.758111e-05 1.837614e-05 -2.216323e-05
Al -4.738986e+00 8.742818e-01 7.428572e+00 -1.835190e-05 -2.594943e-06 3.946377e-05
Al -4.750006e+00 8.611342e-01 -2.678047e+00 3.503359e-05 1.125466e-06 9.052823e-06
Al -6.315247e+00 3.574272e+00 2.407723e+00 -1.275203e-04 -5.516416e-05 -1.298478e-06
Al -6.311132e+00 3.588112e+00 7.421217e+00 -1.127549e-05 -5.788683e-07 -1.931591e-05
Al -6.317328e+00 3.584101e+00 -2.705745e+00 1.995657e-05 3.480824e-05 1.095348e-04
Al -3.170096e+00 -1.850025e+00 2.383412e+00 3.951543e-05 1.823388e-04 8.099732e-05
Al -3.162491e+00 -1.857783e+00 7.435628e+00 -3.901998e-05 5.662938e-06 4.338005e-06
Al -3.170184e+00 -1.855674e+00 -2.695609e+00 1.558607e-05 6.745212e-05 1.558786e-04
Al -1.597959e+00 8.733547e-01 2.380000e+00 3.391415e-05 1.368455e-07 -1.347426e-04
Al -1.593559e+00 8.704072e-01 7.420800e+00 2.845090e-05 1.321131e-05 -1.233662e-05
Ga -1.588367e+00 8.625257e-01 -2.674580e+00 6.554137e-05 -6.215923e-05 -1.014053e-04
Al -3.154081e+00 3.580185e+00 2.394586e+00 1.085559e-04 -7.640419e-05 -6.844012e-05
Al -3.164434e+00 3.589819e+00 7.420205e+00 3.226744e-05 1.380006e-05 -1.463400e-05
Ga -3.164067e+00 3.594946e+00 -2.685561e+00 1.137948e-04 -3.629011e-05 -8.205942e-05
Ga -2.151204e-02 -1.843130e+00 2.402771e+00 1.270899e-04 1.287329e-04 -1.230737e-04
Al -1.992001e-02 -1.851786e+00 7.414586e+00 1.217866e-05 6.021484e-06 -2.566050e-05
Al -2.349886e-02 -1.848900e+00 -2.690215e+00 8.520120e-06 7.193870e-05 3.415797e-04
Al -2.236803e-02 1.772654e+00 4.901221e+00 -1.943645e-05 6.413111e-05 -2.749615e-05
Al -1.773755e-02 1.778043e+00 -5.216584e+00 -1.069742e-05 1.060767e-05 5.829280e-06
Al -1.987986e-02 1.771953e+00 -1.374606e-01 -3.076598e-05 -8.769693e-05 3.231027e-04
Al 3.115802e+00 -3.672262e+00 4.907663e+00 -3.590408e-05 2.685121e-06 -4.412146e-05
Al 3.126325e+00 -3.666275e+00 -5.215335e+00 -1.687845e-05 8.164192e-06 -1.613450e-05
Al 3.127514e+00 -3.666215e+00 -1.400285e-01 1.098301e-04 6.184243e-05 2.921108e-04
Al 1.550047e+00 -9.406335e-01 4.917962e+00 -5.073067e-05 4.494671e-06 -7.719108e-06
Al 1.548179e+00 -9.455935e-01 -5.201944e+00 -2.723324e-05 2.757240e-05 -3.286834e-05
Al 1.556561e+00 -9.359538e-01 -1.655218e-01 5.606312e-05 6.359139e-05 -1.739582e-04
Al 3.114782e+00 1.779255e+00 4.908715e+00 4.725266e-05 4.116548e-05 1.223882e-05
Al 3.120232e+00 1.772591e+00 -5.205335e+00 6.446458e-06 5.953089e-06 3.206220e-06
Al 3.118271e+00 1.762544e+00 -1.525706e-01 -3.570407e-05 -2.719780e-05 9.145723e-05
Al 6.266581e+00 -3.673439e+00 4.905325e+00 3.532137e-05 -1.512602e-05 -2.909470e-06
Al 6.260924e+00 -3.669627e+00 -5.203262e+00 4.991281e-06 1.408103e-05 -1.643817e-05
Ga 6.255456e+00 -3.669001e+00 -1.489161e-01 -3.101383e-05 4.742847e-05 4.270982e-04
Ga 4.689561e+00 -9.458980e-01 4.908420e+00 -2.170342e-05 1.542209e-04 -1.425401e-05
Al 4.690501e+00 -9.439130e-01 -5.203954e+00 -1.111919e-05 2.248980e-05 -1.756656e-05
Al 4.688325e+00 -9.405703e-01 -1.536188e-01 -4.344627e-05 1.137462e-04 2.570435e-04
Al -3.161299e+00 1.780890e+00 4.903187e+00 -2.189921e-06 3.238366e-05 4.036041e-06
Al -3.169341e+00 1.772454e+00 -5.221978e+00 2.458368e-05 2.244247e-06 1.378657e-05
Al -3.166794e+00 1.764539e+00 -1.273766e-01 3.709732e-05 -1.014848e-04 2.959579e-04
Al -2.147389e-02 -3.676265e+00 4.916218e+00 -1.207027e-05 -7.418785e-05 6.347055e-06
Al -2.532759e-02 -3.663640e+00 -5.218103e+00 6.655343e-06 1.596217e-05 2.101464e-05
Ga -2.175625e-02 -3.668990e+00 -1.411670e-01 1.171516e-05 4.241758e-05 4.306933e-04
Al -1.593538e+00 -9.398882e-01 4.922265e+00 -3.675799e-06 -1.584503e-05 -3.099382e-05
Al -1.591419e+00 -9.496043e-01 -5.216272e+00 -3.147822e-06 2.240032e-05 -3.144348e-05
Al -1.597078e+00 -9.370179e-01 -1.473495e-01 -1.620950e-04 1.156766e-04 -4.368850e-04
N 1.550327e+00 8.671210e-01 4.301580e+00 -2.074717e-05 -1.362115e-04 -4.840649e-05
N 1.550958e+00 8.663864e-01 -5.803950e+00 -1.319877e-05 -8.324631e-05 1.070503e-05
N 1.547106e+00 8.728032e-01 -7.600462e-01 1.540998e-05 -2.764968e-05 8.138666e-05
N -2.575400e-02 3.589260e+00 4.313704e+00 -4.874704e-05 -4.349860e-05 1.157875e-06
N -2.024894e-02 3.590214e+00 -5.813493e+00 -2.623179e-05 -1.585970e-05 -4.930925e-07
N -6.494404e-02 3.562696e+00 -7.718860e-01 -8.273755e-05 1.671552e-06 -3.689095e-05
N 3.077033e+00 -1.876598e+00 4.281365e+00 -9.035371e-05 -7.757567e-05 -4.665753e-05
N 3.117545e+00 -1.851639e+00 -5.793794e+00 -3.666868e-05 -5.188272e-06 8.256263e-06
N 3.123046e+00 -1.856963e+00 -7.577106e-01 1.748825e-05 3.847134e-05 7.498563e-05
N -4.739124e+00 9.172263e-01 4.284383e+00 -4.881980e-05 -7.089475e-05 -1.060624e-04
N -4.741060e+00 8.690648e-01 -5.804253e+00 1.453775e-05 -6.169672e-05 -5.356597e-06
N -4.736599e+00 8.691509e-01 -7.502600e-01 4.423743e-05 -8.977519e-07 6.342072e-05
N -6.309265e+00 3.585482e+00 4.320501e+00 -7.729613e-06 -3.843365e-05 -1.401262e-05
N -6.312018e+00 3.587337e+00 -5.801873e+00 1.639170e-05 -1.707974e-05 -9.779711e-06
N -6.309850e+00 3.541334e+00 -7.984648e-01 6.275961e-05 -1.169854e-04 7.875607e-06
N -3.123129e+00 -1.873318e+00 4.292976e+00 1.297084e-04 -3.526551e-06 -2.065401e-04
N -3.166355e+00 -1.856515e+00 -5.793528e+00 1.341176e-06 6.109187e-06 8.757361e-06
N -3.166567e+00 -1.806142e+00 -7.773690e-01 1.220621e-04 3.663725e-05 -2.279813e-05
N -1.594477e+00 8.667666e-01 4.304001e+00 8.573079e-05 -8.383107e-05 -3.343809e-05
N -1.591583e+00 8.690106e-01 -5.805141e+00 6.903972e-05 -5.796096e-05 -4.125813e-06
N -1.593022e+00 8.719664e-01 -6.969510e-01 2.760937e-07 5.844575e-05 2.027486e-04
N -3.162560e+00 3.588983e+00 4.312502e+00 5.063141e-05 -1.357772e-05 2.044221e-05
N -3.164174e+00 3.591334e+00 -5.803998e+00 4.027734e-05 -3.252009e-06 -1.170106e-05
N -3.122417e+00 3.563164e+00 -7.159233e-01 -6.793191e-05 -6.357952e-05 1.289589e-04
N -2.229336e-02 -1.850199e+00 4.376561e+00 3.688897e-05 2.110235e-04 7.198693e-05
N -1.845315e-02 -1.850792e+00 -5.811153e+00 5.373689e-05 2.704179e-05 2.344634e-05
N -2.360313e-02 -1.805588e+00 -7.697429e-01 -6.187921e-05 -9.343964e-05 -4.649142e-04
N -1.927333e-02 1.777409e+00 1.787921e+00 -2.306049e-05 -6.681626e-05 -2.678144e-04
N -2.123135e-02 1.773985e+00 6.819915e+00 -3.702230e-05 -9.178196e-05 3.613591e-05
N 1.988970e-02 1.798236e+00 -3.304599e+00 -3.781047e-05 -2.148582e-05 -2.379159e-05
N 3.124511e+00 -3.669589e+00 1.781610e+00 -9.074767e-05 -8.675718e-06 -2.356231e-04
N 3.120368e+00 -3.664398e+00 6.824970e+00 -4.476759e-05 1.437263e-05 3.298154e-05
N 3.164717e+00 -3.642526e+00 -3.306479e+00 -2.049698e-05 -8.883703e-06 -1.783129e-05
N 1.588720e+00 -9.209553e-01 1.749345e+00 -1.264532e-04 3.194818e-04 2.929702e-04
N 1.555547e+00 -9.430567e-01 6.829859e+00 -7.388788e-05 2.645896e-05 4.568560e-06
N 1.550614e+00 -9.450996e-01 -3.279189e+00 -5.803292e-05 3.096742e-05 -2.195575e-05
N 3.117822e+00 1.778323e+00 1.770461e+00 2.926660e-05 -1.529145e-05 -1.173187e-04
N 3.119288e+00 1.774292e+00 6.823766e+00 8.506869e-06 -4.446644e-05 -3.564702e-06
N 3.121130e+00 1.769742e+00 -3.288983e+00 3.508952e-05 -1.885310e-05 -5.351601e-05
N 6.263302e+00 -3.670513e+00 1.834705e+00 1.170597e-04 -1.651229e-04 -4.162711e-04
N 6.263918e+00 -3.665818e+00 6.822294e+00 -4.111833e-06 1.176526e-05 3.346480e-05
N 6.260341e+00 -3.667225e+00 -3.284945e+00 -2.796885e-06 -1.995532e-05 -3.519979e-06
N 4.692416e+00 -9.459533e-01 1.774807e+00 3.576124e-05 3.607453e-05 -2.033132e-04
N 4.690853e+00 -9.470375e-01 6.881636e+00 6.359605e-05 5.526416e-05 5.110441e-05
N 4.689941e+00 -9.434578e-01 -3.283237e+00 1.725141e-05 2.910054e-05 -2.099846e-05
N -3.167010e+00 1.775108e+00 1.788750e+00 8.436238e-05 -3.301465e-05 -2.434360e-04
N -3.166048e+00 1.774884e+00 6.822885e+00 3.004692e-05 -4.200396e-05 3.662499e-05
N -3.206940e+00 1.748221e+00 -3.319240e+00 -1.272532e-04 -6.775965e-05 2.299235e-05
N -2.577091e-02 -3.714245e+00 1.831784e+00 4.889263e-05 -9.190804e-05 -4.605923e-04
N -2.278734e-02 -3.672014e+00 6.831940e+00 3.368555e-05 1.306919e-05 2.046759e-05
N -6.181068e-02 -3.642367e+00 -3.304730e+00 -8.776646e-05 1.958842e-05 -4.107685e-06
N -1.633215e+00 -9.252735e-01 1.761385e+00 -2.546661e-04 6.033835e-05 4.718719e-04
N -1.599028e+00 -9.437202e-01 6.834982e+00 2.033527e-05 4.078073e-05 3.664430e-05
N -1.593795e+00 -9.914857e-01 -3.307747e+00 2.162984e-05 5.324975e-05 -3.265342e-06
