108
Energy=-1.764152e+06 Lattice="9.526530e+00 0.000000e+00 0.000000e+00 -4.780919e+00 8.252067e+00 0.000000e+00 -9.782433e-03 7.792649e-03 1.540914e+01" Stress="-1.340858e-02 -1.102832e-03 -5.004479e-04 -1.113937e-03 -1.143938e-02 5.660689e-04 -4.931296e-04 5.424098e-04 -9.393608e-03" Properties=species:S:1:pos:R:3:forces:R:3 Config_type=AlGaN_super3_29_1_4.xyz
Al 1.564994e+00 8.424793e-01 2.376819e+00 -3.533790e-03 1.249625e-02 4.972190e-03
Al 1.528178e+00 8.733579e-01 7.559180e+00 4.313162e-03 6.130848e-03 4.126309e-03
Al 1.563325e+00 8.624640e-01 -2.718568e+00 -1.674235e-03 8.241581e-03 8.636237e-03
Al -4.368394e-02 3.822235e+00 2.452244e+00 3.511631e-03 -5.726478e-02 -1.754777e-03
Al -5.500708e-02 3.618265e+00 7.489313e+00 1.329359e-02 -2.204618e-03 1.856402e-02
Al -2.175042e-02 3.616616e+00 -2.724592e+00 2.174469e-03 -4.678190e-03 7.453882e-03
Al 3.105942e+00 -1.914288e+00 2.370538e+00 -2.738203e-04 2.068294e-02 9.373207e-03
Ga 3.171493e+00 -1.871557e+00 7.550587e+00 -7.129858e-04 -8.580753e-04 2.577390e-03
Ga 3.174198e+00 -1.872265e+00 -2.694643e+00 1.197082e-03 -1.551020e-03 3.991620e-03
Al -4.810650e+00 8.734744e-01 2.443100e+00 -6.454410e-04 5.145618e-03 1.506997e-03
Ga -4.790751e+00 8.696859e-01 7.551932e+00 2.050751e-04 7.185124e-03 6.365340e-04
Al -4.801811e+00 8.564829e-01 -2.707429e+00 2.032413e-03 5.273505e-03 2.015172e-03
Ga -6.408795e+00 3.618057e+00 2.369776e+00 1.150148e-03 -3.777435e-03 6.316402e-03
Ga -6.410973e+00 3.636412e+00 7.558942e+00 -6.060505e-04 -5.444119e-04 1.235855e-03
Ga -6.390337e+00 3.616569e+00 -2.695865e+00 1.063936e-03 1.527206e-04 3.429931e-03
Ga -3.199215e+00 -1.889666e+00 2.436569e+00 2.982458e-03 6.328449e-03 9.638481e-04
Al -3.186954e+00 -1.853809e+00 7.541417e+00 4.024805e-03 -6.080449e-03 3.001025e-03
Al -3.193129e+00 -1.871639e+00 -2.725445e+00 2.791165e-03 -1.383362e-03 2.835131e-03
Ga -1.614295e+00 8.633475e-01 2.470103e+00 7.092185e-03 7.250518e-03 -6.318271e-03
Al -1.607655e+00 8.740429e-01 7.552931e+00 -2.987754e-03 1.336384e-03 2.882825e-03
Ga -1.612682e+00 8.726899e-01 -2.741527e+00 2.963886e-03 1.112087e-03 2.271778e-04
Ga -3.189359e+00 3.641336e+00 2.402937e+00 -4.470242e-03 -8.216482e-03 5.155790e-03
Ga -3.187115e+00 3.633503e+00 7.545518e+00 -2.935865e-03 -2.499769e-03 2.153937e-03
Ga -3.202210e+00 3.634388e+00 -2.700757e+00 -2.242917e-03 -2.777579e-03 4.391435e-03
Al -7.315618e-03 -1.850466e+00 2.395279e+00 -4.007289e-03 -2.932794e-03 6.079150e-03
Ga -3.528548e-02 -1.834128e+00 7.565187e+00 -2.579486e-04 -4.450247e-03 2.774457e-03
Ga -1.555229e-02 -1.857793e+00 -2.726345e+00 -2.912883e-03 -4.035499e-03 6.308968e-03
Ga -3.937299e-02 1.797763e+00 4.993275e+00 3.629556e-03 1.032454e-03 -3.595962e-03
Al -2.518443e-02 1.765519e+00 -5.319065e+00 2.837398e-04 7.165699e-03 5.794206e-03
Ga -1.195409e-02 1.786922e+00 -1.269679e-01 2.260731e-03 6.928500e-03 4.484852e-03
Al 3.175609e+00 -3.710805e+00 4.991139e+00 -1.900933e-03 5.227612e-03 2.921427e-03
Ga 3.172657e+00 -3.740032e+00 -5.288462e+00 5.582138e-03 1.829894e-03 2.670441e-03
Al 3.159183e+00 -3.706765e+00 -1.309008e-01 8.052021e-03 -1.732402e-03 -2.188483e-02
Ga 1.573072e+00 -9.584303e-01 4.966048e+00 1.865996e-03 -1.099943e-03 4.798667e-03
Ga 1.558394e+00 -9.538056e-01 -5.283799e+00 1.852152e-03 -2.018358e-04 2.092522e-03
Al 1.559849e+00 -9.621486e-01 -1.271996e-01 2.232429e-03 3.447265e-03 -1.531527e-02
Ga 3.135641e+00 1.793526e+00 4.976492e+00 3.335603e-05 3.335266e-04 2.237416e-03
Ga 3.136005e+00 1.781321e+00 -5.278131e+00 -2.401052e-03 2.274304e-03 3.369192e-03
Al 3.146158e+00 1.767996e+00 -1.385851e-01 -3.109647e-03 3.676118e-03 -8.342287e-03
Al 6.326360e+00 -3.685768e+00 5.007862e+00 1.522725e-03 -1.850785e-03 3.932059e-03
Ga 6.338945e+00 -3.706781e+00 -5.295914e+00 -4.061952e-03 -7.142642e-04 1.763506e-03
Al 6.329914e+00 -3.711739e+00 -1.552222e-01 -2.140895e-03 -2.987359e-03 -1.692574e-02
Ga 4.774604e+00 -9.592311e-01 4.996403e+00 -4.362810e-03 6.473439e-04 -5.495116e-03
Ga 4.778126e+00 -9.532122e-01 -5.275296e+00 -1.257335e-03 -6.528887e-03 3.745312e-03
Ga 4.746534e+00 -9.597271e-01 -1.220311e-01 -2.482387e-03 -2.658483e-04 2.526171e-03
Al -3.189180e+00 1.795087e+00 4.999355e+00 -5.050694e-03 2.005242e-03 4.393248e-04
Ga -3.192794e+00 1.787377e+00 -5.290372e+00 1.217095e-03 1.691364e-03 3.194221e-03
Ga -3.216287e+00 1.801092e+00 -1.406477e-01 -1.096494e-03 -2.076804e-04 -3.939028e-03
Ga -1.298830e-02 -3.685888e+00 4.973238e+00 -1.570674e-03 -5.470579e-04 -4.863990e-04
Al -1.346446e-02 -3.695619e+00 -5.288655e+00 -8.813133e-04 -9.142487e-05 2.559324e-03
Al -3.763785e-03 -3.688954e+00 -1.027775e-01 -4.329499e-03 -1.936166e-03 -1.940372e-02
Al -1.604013e+00 -9.408090e-01 5.005330e+00 2.492764e-04 -4.913159e-03 9.005526e-04
Al -1.595900e+00 -9.520386e-01 -5.308573e+00 -3.802718e-03 -1.429236e-03 5.238619e-03
Ga -1.592226e+00 -9.651100e-01 -1.412951e-01 -2.148332e-03 -1.766349e-03 -2.602743e-03
N 1.553057e+00 8.631899e-01 4.301268e+00 1.176957e-03 4.245304e-03 -3.065095e-03
N 1.513928e+00 8.843199e-01 -5.941833e+00 4.820322e-03 6.235334e-04 -2.148363e-03
N 1.591320e+00 8.368205e-01 -7.763967e-01 3.073859e-03 1.833406e-03 -3.226199e-03
N -3.380757e-02 3.699660e+00 4.376713e+00 2.696677e-03 6.644472e-04 -6.693221e-03
N -2.551229e-02 3.559087e+00 -5.965256e+00 2.682504e-04 3.043626e-03 -4.051180e-03
N -3.393542e-02 3.660862e+00 -7.862759e-01 -1.341083e-03 1.183316e-03 -2.843429e-03
N 3.171697e+00 -1.922873e+00 4.346658e+00 -4.978011e-03 -2.716225e-03 -1.103604e-02
N 3.168883e+00 -1.881182e+00 -5.892156e+00 3.917480e-04 -2.591879e-04 -6.932033e-04
N 3.113332e+00 -1.897443e+00 -7.034360e-01 1.906674e-03 3.228613e-04 -5.146672e-04
N -4.753794e+00 9.072955e-01 4.355532e+00 2.261845e-03 2.439616e-03 1.167856e-04
N -4.791418e+00 8.661818e-01 -5.900772e+00 6.378641e-04 4.846583e-03 -3.112240e-03
N -4.834351e+00 8.877813e-01 -8.018952e-01 2.341519e-03 5.887927e-04 2.692837e-03
N -6.436371e+00 3.659051e+00 4.382020e+00 7.925001e-04 3.350415e-04 -8.223159e-03
N -6.340470e+00 3.647760e+00 -5.874392e+00 6.260562e-04 -1.898355e-03 -2.938687e-03
N -6.375728e+00 3.623802e+00 -6.859466e-01 1.868730e-03 -1.684687e-04 -1.486374e-03
N -3.136948e+00 -1.897938e+00 4.418649e+00 9.154866e-04 2.210509e-04 -3.606236e-03
N -3.141659e+00 -1.848726e+00 -5.951615e+00 2.747533e-04 -1.233230e-03 -2.056095e-03
N -3.186704e+00 -1.914973e+00 -8.082130e-01 -8.234763e-04 2.013204e-04 4.807728e-03
N -1.660994e+00 8.523451e-01 4.431184e+00 7.981959e-04 1.876452e-03 -2.983730e-04
N -1.571188e+00 8.471998e-01 -5.923035e+00 -2.385563e-03 1.574171e-04 -3.377889e-03
N -1.611718e+00 8.767353e-01 -7.818217e-01 -1.927678e-03 3.673571e-04 2.689662e-03
N -3.151158e+00 3.621698e+00 4.408615e+00 -2.391270e-03 -3.398059e-03 -6.568959e-03
N -3.239282e+00 3.656659e+00 -5.887895e+00 -2.742261e-03 -3.420859e-03 -4.335642e-03
N -3.203361e+00 3.690451e+00 -7.055488e-01 -3.314813e-03 -3.758829e-03 -2.474596e-03
N -5.113417e-02 -1.825632e+00 4.336456e+00 -2.191706e-03 -3.759921e-03 -7.308650e-03
N -5.672116e-02 -1.884264e+00 -5.864362e+00 8.542091e-04 -4.188931e-03 -3.310661e-03
N 2.814232e-02 -1.884157e+00 -7.292561e-01 -2.669065e-03 -5.776869e-03 -5.534606e-03
N 1.611025e-02 1.800661e+00 1.867707e+00 -5.663926e-03 2.056805e-02 7.322198e-04
N -3.664144e-02 1.777607e+00 6.994355e+00 7.403015e-04 5.015741e-03 -1.018063e-02
N 1.957526e-02 1.798765e+00 -3.372500e+00 1.207051e-03 3.374115e-03 -1.779975e-03
N 3.200051e+00 -3.690989e+00 1.721351e+00 -6.779414e-03 8.135185e-03 2.193831e-02
N 3.213454e+00 -3.730084e+00 6.900264e+00 -7.530111e-03 5.098931e-03 -5.293266e-03
N 3.208617e+00 -3.745863e+00 -3.312945e+00 7.267705e-05 4.694834e-03 -2.158434e-03
N 1.510302e+00 -9.307672e-01 1.735327e+00 1.672925e-02 -1.553257e-02 2.253872e-02
N 1.569281e+00 -9.017549e-01 6.958369e+00 1.650228e-03 -4.683249e-03 -5.743393e-03
N 1.579926e+00 -9.095594e-01 -3.312643e+00 1.796833e-03 -4.284862e-03 -3.582690e-03
N 3.148106e+00 1.728018e+00 1.760149e+00 1.365327e-03 2.146723e-03 8.024624e-03
N 3.090802e+00 1.764966e+00 6.958236e+00 5.893967e-04 1.436377e-03 -2.810249e-03
N 3.144799e+00 1.730007e+00 -3.294491e+00 -3.804515e-05 3.387520e-03 -1.863739e-03
N 6.275017e+00 -3.734006e+00 1.709872e+00 7.771822e-03 1.324448e-02 1.538906e-02
N 6.283687e+00 -3.671524e+00 6.923958e+00 1.443047e-04 -7.943092e-04 -1.474721e-03
N 6.293074e+00 -3.684959e+00 -3.305306e+00 1.749879e-03 1.877827e-04 -2.185277e-03
N 4.676234e+00 -9.220413e-01 1.924671e+00 3.611393e-03 -1.247702e-02 -1.889473e-02
N 4.794922e+00 -9.668250e-01 6.962864e+00 -3.859990e-03 -3.275279e-03 -6.357103e-03
N 4.797835e+00 -9.294199e-01 -3.289828e+00 -2.702864e-03 -4.769649e-03 -3.061747e-03
N -3.242808e+00 1.749450e+00 1.823139e+00 -2.067741e-03 5.418014e-03 3.977239e-03
N -3.160070e+00 1.772667e+00 6.913388e+00 -9.098870e-04 1.383204e-03 -7.753719e-04
N -3.245289e+00 1.768943e+00 -3.317305e+00 -2.289504e-03 1.684726e-03 1.771871e-04
N -1.449138e-02 -3.656171e+00 1.755174e+00 6.187873e-04 9.952079e-04 1.864240e-02
N -1.555753e-02 -3.690437e+00 6.937774e+00 -6.579599e-04 2.164233e-04 -1.754850e-03
N -7.871995e-03 -3.704436e+00 -3.382045e+00 -2.407051e-03 -7.908321e-04 7.048447e-04
N -1.566273e+00 -9.754633e-01 1.824720e+00 -8.620834e-03 -4.623114e-03 3.937858e-04
N -1.638822e+00 -9.145032e-01 6.924388e+00 -2.476541e-03 -3.364872e-03 -2.857273e-03
N -1.640022e+00 -9.766489e-01 -3.386264e+00 -2.703361e-03 -2.830983e-03 -1.361543e-03
