108
Energy=-1.947255e+06 Lattice="9.578232e+00 0.000000e+00 0.000000e+00 -4.788723e+00 8.294228e+00 0.000000e+00 -2.550255e-03 -2.246033e-03 1.550991e+01" Stress="-2.332468e-05 1.353822e-05 7.115213e-06 8.915471e-06 4.474590e-06 -6.040973e-06 -3.433887e-06 -1.186585e-05 -1.753035e-05" Properties=species:S:1:pos:R:3:forces:R:3 Config_type=AlGaN_super3_33_1_20.xyz
Al 1.571617e+00 8.762938e-01 2.454109e+00 7.505434e-06 -1.876607e-06 -1.743998e-07
Al 1.582245e+00 8.815246e-01 7.605445e+00 1.108792e-07 -1.115514e-05 -5.728417e-07
Al 1.577967e+00 8.784487e-01 -2.744955e+00 -2.685144e-06 1.873690e-05 1.736796e-05
Al -3.291333e-02 3.654919e+00 2.429537e+00 1.046216e-06 -2.215805e-06 -2.752102e-06
Al -3.119904e-02 3.644234e+00 7.619632e+00 -7.250813e-06 8.207380e-06 -2.693076e-05
Ga -2.799146e-02 3.650100e+00 -2.734985e+00 -6.941538e-06 1.339328e-06 2.829170e-06
Al 3.172074e+00 -1.889927e+00 2.452782e+00 3.517595e-06 6.278798e-06 -3.104775e-05
Ga 3.165402e+00 -1.881693e+00 7.587008e+00 3.246079e-05 -1.670601e-05 9.921881e-07
Ga 3.156443e+00 -1.892785e+00 -2.730408e+00 -8.754448e-06 -4.469848e-06 -1.471927e-05
Ga -4.803321e+00 8.762762e-01 2.454694e+00 1.076209e-05 4.602470e-05 -1.573285e-05
Al -4.817600e+00 8.879630e-01 7.584753e+00 1.514695e-06 2.051967e-06 2.428933e-06
Ga -4.825167e+00 8.875501e-01 -2.724447e+00 -3.166851e-06 1.862505e-06 1.254216e-05
Ga -6.410807e+00 3.652876e+00 2.436077e+00 -2.047492e-05 -1.342027e-05 8.232270e-06
Ga -6.414236e+00 3.626061e+00 7.624646e+00 8.764024e-06 -3.614964e-06 4.942613e-06
Ga -6.411701e+00 3.640286e+00 -2.746802e+00 4.852281e-06 1.437732e-06 6.508692e-06
Al -3.236818e+00 -1.889619e+00 2.456951e+00 -1.218444e-05 1.222885e-06 -4.823636e-06
Ga -3.227181e+00 -1.882224e+00 7.618187e+00 -2.716905e-06 1.729034e-06 1.057524e-05
Ga -3.201445e+00 -1.887547e+00 -2.753022e+00 8.508705e-06 1.499421e-05 -2.137995e-05
Ga -1.622923e+00 9.015334e-01 2.448027e+00 -2.313107e-05 -6.687165e-06 -1.981385e-06
Ga -1.625894e+00 8.967337e-01 7.602853e+00 -6.354902e-06 2.570615e-06 -2.533993e-06
Ga -1.606857e+00 8.711777e-01 -2.732327e+00 6.985450e-07 7.559857e-06 2.274584e-05
Al -3.206395e+00 3.648162e+00 2.417677e+00 6.933424e-06 -7.708942e-06 -4.410533e-06
Al -3.206007e+00 3.634842e+00 7.605164e+00 -3.808080e-06 1.084546e-06 3.102312e-06
Ga -3.207064e+00 3.660000e+00 -2.709611e+00 -4.818760e-06 5.790852e-06 2.489638e-05
Ga -5.745721e-03 -1.888029e+00 2.441890e+00 3.297608e-05 -7.201224e-06 1.296864e-06
Ga -9.833078e-03 -1.874853e+00 7.603322e+00 -2.150564e-06 3.894853e-06 -1.488089e-06
Al -2.309858e-02 -1.875713e+00 -2.726069e+00 1.356178e-06 -4.382552e-07 -1.615139e-07
Ga -1.714058e-02 1.804361e+00 5.031904e+00 3.064002e-06 1.004365e-05 1.420810e-05
Ga -7.172246e-03 1.814272e+00 -5.332524e+00 -4.549127e-05 1.407354e-05 2.154453e-05
Ga -2.237951e-02 1.808467e+00 -1.376292e-01 6.688805e-06 6.910325e-07 1.361689e-05
Ga 3.160917e+00 -3.729390e+00 5.003243e+00 -2.786790e-07 -6.414615e-06 2.179227e-06
Al 3.177170e+00 -3.731847e+00 -5.347090e+00 6.617053e-06 -1.520409e-06 4.589867e-06
Al 3.155214e+00 -3.731758e+00 -1.039616e-01 6.168350e-06 -9.342120e-06 -6.393492e-06
Al 1.588017e+00 -9.532986e-01 5.012205e+00 -2.089631e-06 2.109405e-06 -2.150181e-06
Ga 1.571112e+00 -9.527929e-01 -5.304338e+00 -5.139762e-06 4.480511e-05 -1.222548e-05
Ga 1.574710e+00 -9.686645e-01 -1.464193e-01 4.871945e-06 2.789976e-05 9.920125e-07
Ga 3.172028e+00 1.779735e+00 5.030450e+00 -3.455866e-05 -1.722329e-05 -1.685537e-05
Al 3.165366e+00 1.797849e+00 -5.336885e+00 -4.221799e-06 -1.785858e-06 1.760180e-05
Ga 3.172903e+00 1.805231e+00 -1.313808e-01 1.481775e-06 -1.000246e-05 1.491381e-05
Ga 6.343973e+00 -3.718401e+00 5.020654e+00 3.653725e-07 2.242928e-06 5.436799e-06
Al 6.355378e+00 -3.730278e+00 -5.331509e+00 5.296344e-06 9.309226e-06 -6.424138e-06
Ga 6.358386e+00 -3.722658e+00 -1.264416e-01 -4.138063e-06 6.593708e-06 1.689131e-06
Al 4.761202e+00 -9.566512e-01 5.014819e+00 7.534667e-06 -2.374285e-06 -2.219993e-05
Ga 4.768292e+00 -9.575537e-01 -5.334301e+00 -3.775829e-05 1.665793e-05 1.639398e-05
Ga 4.765105e+00 -9.680765e-01 -1.236050e-01 -9.218437e-05 8.056494e-05 4.362360e-05
Al -3.226833e+00 1.810149e+00 5.035042e+00 7.919386e-07 1.543862e-05 7.278834e-07
Ga -3.222719e+00 1.809524e+00 -5.337818e+00 -3.037836e-06 2.723510e-06 -1.977372e-06
Al -3.214677e+00 1.824064e+00 -1.365646e-01 -3.646014e-06 1.838863e-06 -1.412179e-06
Ga -2.272088e-03 -3.735208e+00 5.031492e+00 -2.907043e-07 2.896370e-06 1.944038e-06
Ga -1.946741e-02 -3.724886e+00 -5.319478e+00 -1.073704e-05 2.069132e-06 1.519872e-05
Al -5.012883e-03 -3.728098e+00 -1.503206e-01 2.937228e-06 -2.396804e-07 1.042075e-05
Ga -1.632539e+00 -9.587963e-01 5.008126e+00 5.998164e-06 1.429044e-06 2.804456e-06
Al -1.615533e+00 -9.701946e-01 -5.309644e+00 1.716456e-06 -1.516563e-05 3.315115e-06
Ga -1.618244e+00 -9.675605e-01 -1.326246e-01 -1.886043e-05 2.238868e-05 7.111857e-05
N 1.569603e+00 8.362653e-01 4.365333e+00 2.289913e-05 1.112877e-05 -8.002511e-06
N 1.616635e+00 8.986668e-01 -5.989007e+00 3.122876e-05 -3.958392e-05 4.358135e-07
N 1.577775e+00 8.841075e-01 -8.306107e-01 1.037632e-05 -3.524867e-05 1.280630e-05
N -2.800728e-02 3.643286e+00 4.336637e+00 -1.084949e-05 -2.527512e-06 -5.689042e-06
N -2.270120e-02 3.696119e+00 -5.969145e+00 4.788521e-06 -9.049002e-06 1.767735e-05
N -7.166520e-02 3.677560e+00 -7.488890e-01 7.229461e-06 -3.081578e-06 -3.681462e-06
N 3.169209e+00 -1.838701e+00 4.385819e+00 -1.493993e-07 4.048154e-06 -8.291127e-06
N 3.164499e+00 -1.924340e+00 -5.941844e+00 1.188669e-05 1.200899e-06 4.262094e-07
N 3.171264e+00 -1.941572e+00 -7.481340e-01 4.310059e-07 3.621389e-06 3.017459e-05
N -4.765416e+00 8.601625e-01 4.436193e+00 -1.519887e-06 -1.047336e-05 1.974724e-05
N -4.851977e+00 9.071665e-01 -6.001144e+00 7.791383e-06 3.262843e-06 -1.889117e-05
N -4.771216e+00 9.049456e-01 -7.433828e-01 -9.934513e-06 -2.318015e-05 2.594592e-05
N -6.407276e+00 3.646229e+00 4.409301e+00 2.204011e-06 -3.301674e-06 8.544131e-07
N -6.447113e+00 3.621125e+00 -5.901105e+00 -4.111327e-06 -5.567725e-06 -2.976121e-06
N -6.369662e+00 3.670275e+00 -7.552396e-01 -2.847560e-07 1.234452e-06 7.358674e-06
N -3.264457e+00 -1.861041e+00 4.368890e+00 -1.535928e-05 -3.911837e-06 3.762860e-06
N -3.172085e+00 -1.904552e+00 -5.908506e+00 4.092819e-05 -3.056427e-05 -1.304359e-05
N -3.215087e+00 -1.883828e+00 -7.838263e-01 8.793454e-05 -3.889908e-05 -1.792720e-05
N -1.664379e+00 9.167229e-01 4.427566e+00 3.752399e-06 -5.454522e-06 -6.098809e-06
N -1.618009e+00 8.342927e-01 -5.926658e+00 4.325894e-06 2.259404e-06 5.795961e-06
N -1.659358e+00 9.034553e-01 -7.468811e-01 2.470406e-06 -8.250214e-06 -2.699915e-05
N -3.218033e+00 3.593198e+00 4.340962e+00 3.387353e-06 -1.661093e-05 -6.262523e-06
N -3.172781e+00 3.670268e+00 -5.990560e+00 7.358279e-06 7.562125e-06 -2.882454e-05
N -3.205831e+00 3.651758e+00 -7.156753e-01 1.725213e-06 5.408834e-06 -4.776293e-06
N 2.211714e-02 -1.864180e+00 4.418962e+00 2.863877e-06 -1.867332e-05 8.653376e-06
N -5.702677e-02 -1.855743e+00 -5.933838e+00 -6.407326e-06 -1.080435e-05 -1.115413e-05
N -2.435882e-02 -1.927502e+00 -7.998369e-01 2.981729e-05 -3.156305e-05 -2.078628e-05
N 2.440665e-02 1.825307e+00 1.848864e+00 -1.502092e-06 1.044164e-05 2.263679e-08
N 2.295780e-02 1.830706e+00 7.022783e+00 4.965825e-06 9.825644e-06 -5.756453e-06
N 2.202867e-02 1.783824e+00 -3.349003e+00 -5.753546e-06 -7.422749e-06 -1.469095e-05
N 3.166512e+00 -3.721272e+00 1.828819e+00 3.990237e-06 1.634741e-05 -1.579288e-06
N 3.168930e+00 -3.778608e+00 6.993098e+00 -7.604829e-06 -6.406706e-06 1.258313e-05
N 3.166609e+00 -3.730579e+00 -3.431810e+00 -5.886424e-06 -8.430469e-06 -2.144081e-07
N 1.619239e+00 -9.352904e-01 1.840205e+00 3.556705e-06 1.784509e-06 -3.818036e-06
N 1.575246e+00 -9.092335e-01 6.932735e+00 -2.294493e-05 2.067842e-05 -1.020855e-05
N 1.531426e+00 -9.376356e-01 -3.317578e+00 -4.829503e-06 6.504337e-06 -7.552664e-06
N 3.128986e+00 1.775855e+00 1.843201e+00 4.712647e-06 8.866785e-06 -2.226364e-05
N 3.165155e+00 1.753838e+00 7.007435e+00 1.530343e-05 8.996199e-06 1.575181e-05
N 3.130300e+00 1.773563e+00 -3.408338e+00 5.249150e-06 -4.963018e-06 -3.530285e-05
N 6.318991e+00 -3.699219e+00 1.853257e+00 9.845271e-07 5.921968e-06 9.011383e-06
N 6.316183e+00 -3.750815e+00 7.000100e+00 7.852302e-06 7.170387e-07 -3.439091e-06
N 6.356986e+00 -3.732490e+00 -3.418783e+00 -4.642407e-06 -9.355303e-06 -3.244667e-06
N 4.762013e+00 -1.009470e+00 1.858197e+00 -1.991289e-05 -4.626239e-05 -1.622233e-05
N 4.766916e+00 -9.172635e-01 6.941027e+00 -8.193357e-06 2.403995e-06 1.659044e-05
N 4.761522e+00 -9.583778e-01 -3.361901e+00 8.075721e-06 -8.985952e-07 -9.030785e-06
N -3.217586e+00 1.850523e+00 1.774799e+00 7.120779e-06 -1.138318e-06 5.994550e-06
N -3.260680e+00 1.832950e+00 6.963763e+00 4.668533e-06 -1.017169e-07 -4.668342e-06
N -3.217374e+00 1.809252e+00 -3.362040e+00 6.096110e-06 -1.463965e-05 -1.073577e-05
N 1.916642e-02 -3.746634e+00 1.771639e+00 8.031616e-06 1.602536e-05 2.906335e-06
N 1.879048e-02 -3.754593e+00 7.010951e+00 -1.226270e-06 -1.199623e-06 9.865461e-07
N -1.601741e-02 -3.679448e+00 -3.337801e+00 -7.577985e-06 -5.677731e-06 -8.169370e-06
N -1.661617e+00 -9.865333e-01 1.849959e+00 -3.438619e-05 1.314669e-05 -4.157507e-06
N -1.624653e+00 -9.627694e-01 6.972323e+00 -5.486237e-06 -3.426046e-06 1.965240e-06
N -1.571586e+00 -9.849056e-01 -3.391053e+00 6.888293e-06 -3.718407e-06 -3.742482e-05
