108
Energy=-1809928.768489 Lattice="9.569150 0.000000 0.000000 -4.798953 8.283344 0.000000 -0.001713 0.012716 15.460441" Stress="0.000001 -0.000002 -0.000000 -0.000002 0.000002 0.000002 -0.000000 0.000002 0.000011" Properties=species:S:1:pos:R:3:forces:R:3
Al 1.570241 0.884157 2.433087 0.000371 -0.000686 0.001180
Al 1.572822 0.895329 7.592617 0.000403 -0.000104 0.001412
Al 1.565082 0.879270 -2.750117 0.000902 0.000477 0.001456
Al -0.026372 3.650190 2.443072 0.000082 0.000021 0.001037
Al -0.023649 3.652031 7.567574 0.000272 0.000100 0.001247
Ga -0.031661 3.614982 -2.729736 0.000585 0.000004 0.001367
Ga 3.182935 -1.884338 2.407666 -0.000248 0.000308 0.001908
Al 3.188240 -1.879794 7.579409 -0.000311 -0.000574 0.000608
Ga 3.182214 -1.866546 -2.712327 0.000884 0.000195 0.001661
Ga -4.818919 0.878133 2.446083 0.000453 -0.000833 0.000445
Ga -4.825452 0.878596 7.592429 0.000931 0.000288 0.001089
Al -4.815909 0.867713 -2.763137 0.000623 0.000372 0.001408
Ga -6.430849 3.638572 2.444759 0.000765 0.000771 0.000400
Ga -6.432332 3.639378 7.581737 -0.000236 0.000229 0.000810
Ga -6.402273 3.624314 -2.736710 0.000019 0.000058 0.001207
Al -3.211531 -1.881659 2.418256 0.000477 0.000479 0.001518
Al -3.227693 -1.885732 7.586187 0.000827 -0.000598 0.001066
Ga -3.217079 -1.859334 -2.723340 -0.000103 -0.000065 0.001695
Ga -1.622854 0.884051 2.437852 0.001943 -0.001368 0.000273
Ga -1.623748 0.901414 7.593942 0.001396 -0.000375 0.000468
Al -1.617549 0.884239 -2.746205 0.000536 0.000109 0.000989
Ga -3.204679 3.644839 2.433454 0.000161 0.000912 0.000995
Ga -3.209677 3.649551 7.590996 0.001194 -0.000290 0.001164
Ga -3.225557 3.634382 -2.730435 0.000381 -0.000434 0.001088
Ga -0.024302 -1.861225 2.404594 0.001180 -0.000224 0.001240
Ga -0.017155 -1.866317 7.599750 0.001031 0.000252 -0.000029
Ga -0.019396 -1.870695 -2.710553 0.000703 -0.000619 0.000765
Ga -0.013119 1.821090 5.003897 -0.001083 -0.000035 0.000701
Al -0.019365 1.794903 -5.314893 -0.000484 0.000295 0.001104
Ga -0.024563 1.783603 -0.148051 -0.000321 0.000941 0.003414
Al 3.188212 -3.726458 5.019418 -0.000492 0.000020 0.000886
Ga 3.180428 -3.734592 -5.323237 -0.000617 0.000929 0.000999
Al 3.171686 -3.713220 -0.149974 -0.000275 0.000055 0.003775
Ga 1.596229 -0.951923 5.022330 -0.001463 0.001347 0.000680
Ga 1.595158 -0.955327 -5.312228 -0.001283 0.000352 0.001256
Al 1.580206 -0.961237 -0.163982 -0.000802 0.000453 0.003633
Al 3.154033 1.804420 5.010918 0.000265 0.000056 0.001307
Al 3.164939 1.788655 -5.296773 -0.000396 -0.000179 0.000390
Ga 3.163571 1.779852 -0.173961 -0.000353 0.000595 0.003167
Al 6.347247 -3.715053 5.003864 0.000380 0.000017 0.001086
Ga 6.362518 -3.733033 -5.319143 -0.000106 0.000572 0.000893
Ga 6.358582 -3.704384 -0.139463 -0.000067 -0.000823 0.003252
Ga 4.773540 -0.967392 5.013186 -0.000251 0.001365 0.000892
Al 4.766422 -0.954595 -5.323657 -0.000580 -0.000429 0.001654
Al 4.767107 -0.958851 -0.151683 -0.000616 -0.000031 0.003546
Al -3.224807 1.816103 5.013336 -0.000806 -0.000196 0.000707
Al -3.227531 1.794913 -5.280976 -0.000333 -0.000258 0.000130
Ga -3.222166 1.794591 -0.188222 -0.000416 0.000147 0.003614
Ga -0.014918 -3.729198 5.007509 -0.000489 -0.000144 0.000111
Al -0.016274 -3.742059 -5.302218 -0.000447 0.000774 0.000195
Al -0.007766 -3.705972 -0.147749 -0.000634 -0.000451 0.003673
Ga -1.631291 -0.961401 5.015259 -0.000965 0.000626 0.001213
Ga -1.622880 -0.955884 -5.302936 -0.000820 0.000102 0.000999
Al -1.616286 -0.957619 -0.160971 -0.000713 -0.000079 0.003027
N 1.607251 0.902582 4.354187 0.001313 -0.000323 -0.001761
N 1.570572 0.925094 -5.939504 0.000972 0.000639 -0.000750
N 1.562422 0.836942 -0.826839 0.000531 -0.001218 -0.001391
N -0.033355 3.693506 4.376102 0.000092 0.000579 -0.001505
N -0.027154 3.587867 -5.967818 0.000176 -0.000930 -0.001861
N -0.068639 3.655776 -0.754315 -0.000379 0.000222 -0.000647
N 3.172975 -1.926210 4.397599 0.000286 -0.001310 -0.000997
N 3.214217 -1.866907 -5.961778 0.001004 0.000063 -0.001591
N 3.176186 -1.879028 -0.715036 0.000259 -0.000071 0.000260
N -4.816486 0.928827 4.432605 0.000439 0.000262 -0.000231
N -4.813434 0.880226 -5.872424 0.000635 0.000638 0.000174
N -4.816783 0.827773 -0.832278 0.000689 -0.000803 -0.002206
N -6.455049 3.622233 4.432894 -0.000750 -0.000091 -0.000046
N -6.372116 3.606555 -5.889850 0.000737 -0.000709 -0.000505
N -6.369641 3.663803 -0.753538 0.000627 0.000495 -0.000606
N -3.209103 -1.920281 4.345311 0.000279 -0.000938 -0.001849
N -3.248492 -1.865041 -5.955530 -0.000162 0.000184 -0.001444
N -3.213937 -1.832263 -0.741672 0.000529 0.000859 -0.000567
N -1.665742 0.909831 4.416303 0.001113 -0.000078 -0.000494
N -1.628993 0.932167 -5.883672 0.000660 0.000373 0.000096
N -1.620486 0.840223 -0.817527 0.001357 -0.001055 -0.001469
N -3.175259 3.628454 4.423422 0.001200 -0.000251 -0.000671
N -3.259514 3.608901 -5.884504 0.000062 -0.001017 -0.000528
N -3.222864 3.693373 -0.744974 0.000451 0.000459 -0.000593
N -0.018068 -1.867144 4.386073 0.000952 -0.000684 -0.001153
N -0.019450 -1.928315 -5.891294 0.000938 -0.001157 -0.000129
N -0.020834 -1.877306 -0.716102 0.000599 -0.000042 0.000482
N 0.017680 1.823533 1.859617 -0.000670 0.000853 -0.002985
N 0.018941 1.827133 6.990627 -0.000183 0.000331 -0.000200
N -0.021372 1.751958 -3.377781 -0.000599 -0.001044 -0.001636
N 3.219277 -3.749059 1.781006 0.000066 -0.000076 -0.004612
N 3.216905 -3.698058 6.955032 -0.000167 0.000881 -0.001211
N 3.179855 -3.719554 -3.351395 -0.000607 0.000453 -0.001077
N 1.584736 -0.906129 1.776822 -0.000918 0.000442 -0.005128
N 1.623092 -0.927834 7.012064 -0.000370 0.000282 -0.000150
N 1.585149 -0.923796 -3.331569 -0.001221 0.000970 -0.000844
N 3.124466 1.776083 1.817507 -0.000389 0.000203 -0.002462
N 3.120304 1.780315 6.933989 -0.000588 -0.000580 -0.001722
N 3.159450 1.751713 -3.366925 -0.000368 -0.001298 -0.001052
N 6.321455 -3.696228 1.855003 -0.000383 -0.000349 -0.003293
N 6.321323 -3.689746 6.945578 -0.000580 0.000412 -0.001927
N 6.361003 -3.718995 -3.344638 0.000120 -0.000089 -0.001101
N 4.810018 -0.973057 1.784878 -0.000330 0.000060 -0.004235
N 4.770714 -0.999207 6.995484 -0.000822 -0.000170 -0.000810
N 4.765460 -0.925338 -3.398563 -0.000799 0.000719 -0.002221
N -3.220434 1.799676 1.798850 -0.000910 0.000258 -0.003160
N -3.223461 1.807967 6.923908 -0.000865 -0.000260 -0.001345
N -3.216835 1.757171 -3.352668 -0.000361 -0.001250 -0.000452
N -0.017289 -3.722896 1.782906 -0.000463 -0.000585 -0.004013
N -0.017880 -3.715543 6.971489 -0.000571 -0.000079 -0.000447
N -0.015352 -3.716883 -3.391676 -0.000332 0.000291 -0.001343
N -1.656350 -0.973732 1.775619 -0.001509 0.000274 -0.004187
N -1.658147 -0.975903 6.996418 -0.001428 -0.000064 -0.000496
N -1.613077 -0.919388 -3.328824 -0.000419 0.000902 -0.000681
