108
Energy=-2588112.479728 Lattice="9.662560 0.000000 0.000000 -4.831813 8.366761 0.000000 -0.001133 -0.000292 15.683811" Stress="0.000000 0.000000 -0.000000 0.000000 0.000000 -0.000000 -0.000000 -0.000000 0.000001" Properties=species:S:1:pos:R:3:forces:R:3
Al 1.586316 0.890389 2.474970 -0.000048 0.000022 -0.000006
Al 1.582192 0.904791 7.714808 0.000011 -0.000016 -0.000008
Ga 1.586281 0.899383 -2.790929 0.000066 0.000015 -0.000013
Ga -0.012758 3.675739 2.473749 0.000021 0.000025 0.000015
Al -0.017618 3.663894 7.699064 0.000002 0.000011 -0.000014
Ga -0.021532 3.668804 -2.772387 0.000003 0.000005 0.000004
Ga 3.200899 -1.891511 2.476422 0.000007 0.000002 -0.000014
Ga 3.197017 -1.898947 7.688246 -0.000001 0.000015 -0.000001
Ga 3.196116 -1.898748 -2.763222 0.000006 0.000000 -0.000036
Ga -4.860057 0.882838 2.471163 0.000066 0.000031 -0.000043
Ga -4.871051 0.889958 7.702024 0.000047 -0.000004 -0.000046
Ga -4.865098 0.894873 -2.771287 0.000006 0.000002 0.000011
Ga -6.471178 3.680343 2.487458 0.000043 0.000026 -0.000007
Ga -6.473410 3.668786 7.688723 -0.000010 -0.000004 -0.000019
Ga -6.468301 3.668348 -2.775039 -0.000001 0.000011 -0.000000
Al -3.243481 -1.901338 2.472933 -0.000002 0.000016 -0.000030
Ga -3.249398 -1.906915 7.697736 -0.000009 0.000002 0.000005
Ga -3.242868 -1.900963 -2.766385 0.000005 -0.000002 0.000009
Ga -1.625051 0.884735 2.476432 0.000013 -0.000022 0.000010
Ga -1.614674 0.898478 7.700456 -0.000013 -0.000002 -0.000022
Ga -1.621859 0.894839 -2.775924 0.000004 0.000001 0.000008
Ga -3.247664 3.681048 2.487796 0.000013 -0.000001 0.000011
Ga -3.243195 3.682446 7.687695 -0.000013 0.000001 -0.000002
Ga -3.242362 3.679152 -2.767250 -0.000008 0.000012 -0.000039
Ga -0.024935 -1.895430 2.484555 -0.000016 -0.000041 0.000016
Ga -0.020134 -1.898389 7.679170 -0.000008 -0.000001 0.000015
Ga -0.021538 -1.896418 -2.758897 -0.000020 0.000015 -0.000011
Ga -0.008493 1.817258 5.099300 -0.000002 0.000001 0.000002
Al -0.007242 1.824981 -5.406194 0.000002 0.000005 0.000028
Ga -0.016432 1.815879 -0.136309 0.000059 -0.000023 0.000003
Ga 3.194230 -3.763219 5.096502 -0.000010 -0.000003 0.000016
Ga 3.209692 -3.770848 -5.392812 -0.000006 0.000055 -0.000015
Ga 3.197412 -3.760292 -0.141723 0.000021 -0.000006 -0.000021
Ga 1.581947 -0.959943 5.089596 0.000013 -0.000002 -0.000002
Ga 1.586489 -0.948537 -5.394697 -0.000016 0.000006 -0.000002
Ga 1.586457 -0.960218 -0.135034 0.000020 -0.000001 0.000022
Ga 3.188529 1.819038 5.086593 -0.000012 -0.000010 -0.000037
Al 3.182607 1.817354 -5.395479 0.000025 -0.000016 -0.000013
Ga 3.189412 1.818330 -0.133256 0.000025 -0.000010 0.000015
Ga 6.423133 -3.754267 5.089376 -0.000001 -0.000010 -0.000003
Ga 6.414088 -3.780156 -5.394095 -0.000001 0.000009 -0.000006
Ga 6.420428 -3.756368 -0.134863 0.000004 0.000008 -0.000001
Ga 4.815944 -0.972263 5.076147 -0.000005 0.000005 0.000016
Ga 4.802761 -0.961240 -5.376233 -0.000007 -0.000004 -0.000033
Ga 4.812086 -0.971565 -0.135967 0.000024 0.000023 0.000004
Ga -3.249108 1.826147 5.090015 -0.000002 0.000009 -0.000055
Ga -3.244933 1.817295 -5.382769 0.000004 0.000020 0.000012
Ga -3.243006 1.820865 -0.146424 0.000012 -0.000011 -0.000045
Al -0.023933 -3.758994 5.086276 0.000004 0.000006 -0.000008
Ga -0.028951 -3.765733 -5.378152 -0.000002 -0.000009 0.000027
Ga -0.024015 -3.760209 -0.143965 -0.000006 -0.000004 -0.000035
Ga -1.636554 -0.980167 5.074621 -0.000021 -0.000038 -0.000026
Ga -1.626467 -0.962319 -5.380579 -0.000015 -0.000007 -0.000015
Ga -1.636594 -0.970614 -0.130757 0.000005 0.000034 -0.000021
N 1.585168 0.890743 4.391926 -0.000012 0.000001 0.000001
N 1.587803 0.940925 -6.036642 -0.000003 0.000005 0.000013
N 1.587372 0.893472 -0.806125 -0.000003 0.000016 0.000021
N -0.022197 3.676088 4.451278 0.000010 -0.000005 -0.000007
N -0.022714 3.628795 -6.060457 0.000010 -0.000002 0.000011
N -0.021097 3.674396 -0.784495 0.000003 0.000007 -0.000010
N 3.194015 -1.899946 4.457870 -0.000016 -0.000008 -0.000028
N 3.197247 -1.899821 -6.018778 0.000011 -0.000038 0.000046
N 3.195842 -1.896944 -0.777066 0.000007 0.000001 0.000046
N -4.857352 0.891975 4.448833 0.000017 0.000036 0.000027
N -4.899631 0.914914 -5.997469 0.000031 -0.000021 0.000001
N -4.861050 0.891985 -0.782408 0.000020 -0.000022 0.000028
N -6.424745 3.701669 4.475979 0.000030 -0.000020 0.000002
N -6.461694 3.629693 -6.008762 -0.000018 0.000023 0.000008
N -6.467938 3.673840 -0.787277 0.000020 -0.000003 -0.000018
N -3.244143 -1.903385 4.392831 0.000017 0.000015 0.000012
N -3.243976 -1.900052 -6.010384 0.000003 -0.000006 0.000010
N -3.242537 -1.899957 -0.787157 -0.000002 -0.000002 -0.000018
N -1.628868 0.893791 4.458431 0.000033 -0.000009 -0.000011
N -1.588539 0.915636 -5.998498 0.000001 0.000007 0.000044
N -1.627492 0.890520 -0.785948 0.000000 -0.000043 -0.000015
N -3.285994 3.704362 4.474200 -0.000012 0.000008 0.000002
N -3.247284 3.679905 -6.020824 -0.000001 -0.000019 0.000046
N -3.243886 3.679772 -0.787530 0.000004 -0.000017 -0.000007
N -0.019609 -1.947310 4.472716 0.000014 0.000002 0.000006
N -0.021869 -1.903294 -6.025757 0.000005 -0.000004 0.000004
N -0.022445 -1.895634 -0.775012 0.000001 -0.000008 -0.000004
N 0.021390 1.793920 1.849524 -0.000063 0.000034 0.000005
N 0.025900 1.840986 7.092578 -0.000015 0.000011 -0.000017
N -0.020297 1.822770 -3.477927 -0.000032 0.000032 -0.000010
N 3.197911 -3.760189 1.839651 -0.000012 0.000005 -0.000024
N 3.243982 -3.786421 7.081728 -0.000006 0.000000 0.000011
N 3.202553 -3.759885 -3.409654 -0.000007 -0.000007 0.000033
N 1.585923 -0.919717 1.856134 0.000029 -0.000014 -0.000005
N 1.586719 -0.908530 7.080897 0.000003 -0.000023 0.000003
N 1.586779 -0.967163 -3.412143 -0.000013 0.000000 -0.000017
N 3.153249 1.797892 1.856293 -0.000044 -0.000030 -0.000018
N 3.148193 1.790524 7.070846 -0.000003 0.000061 0.000027
N 3.195347 1.818731 -3.471137 -0.000017 -0.000005 0.000012
N 6.421690 -3.711554 1.853926 -0.000012 -0.000032 0.000003
N 6.375069 -3.782501 7.077761 0.000003 -0.000002 0.000016
N 6.416517 -3.761782 -3.412036 -0.000003 -0.000004 0.000012
N 4.851424 -0.995296 1.851702 -0.000052 0.000030 -0.000021
N 4.810819 -0.969146 7.053084 0.000016 0.000002 0.000031
N 4.807415 -0.968842 -3.398646 -0.000010 -0.000002 0.000002
N -3.241988 1.820489 1.837228 -0.000063 -0.000016 0.000032
N -3.245378 1.814107 7.068800 -0.000039 -0.000024 0.000006
N -3.244130 1.817465 -3.402010 -0.000021 -0.000026 0.000042
N -0.024498 -3.758965 1.834536 -0.000063 -0.000001 0.000017
N -0.026596 -3.760996 7.005795 0.000011 -0.000018 -0.000002
N -0.024558 -3.757402 -3.399458 -0.000006 -0.000014 0.000036
N -1.673747 -0.994341 1.859083 -0.000001 0.000018 -0.000039
N -1.639233 -0.968481 7.054474 -0.000018 -0.000001 0.000027
N -1.631198 -0.969322 -3.402228 -0.000004 -0.000017 0.000026
