108
Energy=-1855703.662583 Lattice="9.569525 0.000000 0.000000 -4.794321 8.282674 0.000000 0.015458 0.035163 15.491352" Stress="-0.000009 0.000003 0.000002 0.000003 -0.000013 0.000006 0.000002 0.000006 0.000019" Properties=species:S:1:pos:R:3:forces:R:3
Al 1.565470 0.863092 2.372521 0.008333 0.015815 0.014199
Al 1.571401 0.902962 7.594584 0.002383 0.002937 0.003157
Al 1.566047 0.837750 -2.737988 0.001689 0.006384 0.005858
Al 0.000152 3.634075 2.370699 -0.000330 0.002702 0.011072
Al -0.024226 3.651962 7.614033 0.002062 0.000272 0.000399
Ga -0.030963 3.609860 -2.732102 -0.000436 0.000108 0.003236
Al 3.175876 -1.833271 2.418650 0.001348 -0.005878 0.005086
Ga 3.191647 -1.865809 7.624787 0.000546 -0.000162 0.000736
Al 3.078886 -1.915026 -2.790035 0.035245 0.005947 0.014945
Al -4.817833 0.902063 2.462929 0.001552 0.005275 -0.000620
Ga -4.812341 0.895252 7.595731 0.000263 0.001667 0.000472
Al -4.834375 0.841832 -2.742826 0.000914 -0.000862 -0.000125
Al -6.416650 3.659302 2.454692 -0.001427 0.000402 0.000522
Ga -6.409779 3.653624 7.591773 -0.000015 -0.000227 -0.001182
Ga -6.421549 3.608525 -2.718297 0.000442 -0.001047 -0.000601
Al -3.231179 -1.847943 2.278893 0.003004 -0.008637 0.034540
Al -3.210080 -1.858039 7.606034 0.001795 -0.001728 0.000627
Ga -3.222898 -1.885984 -2.711070 -0.005020 0.000974 0.001250
Al -1.615841 0.886997 2.413104 -0.000604 0.002678 0.003335
Ga -1.604692 0.921056 7.612617 0.000844 -0.001409 -0.000522
Ga -1.617701 0.865012 -2.719397 0.000148 0.002757 0.002037
Ga -3.195426 3.660416 2.464800 -0.000797 -0.000463 -0.004331
Al -3.189098 3.671810 7.612158 -0.002238 -0.001721 0.000187
Ga -3.222100 3.621187 -2.734605 0.000400 -0.003348 -0.000805
Ga -0.022234 -1.833593 2.422879 -0.001139 -0.006166 0.003297
Ga -0.000550 -1.840546 7.610465 -0.000424 -0.001866 -0.000534
Ga 0.003936 -1.869170 -2.713701 -0.004201 -0.002808 0.002137
Ga 0.001257 1.821224 4.994319 -0.000443 0.001904 0.001438
Al -0.022308 1.772264 -5.326485 0.002716 0.004875 0.002814
Al -0.023725 1.762713 -0.138303 0.000035 0.003376 -0.003712
Ga 3.191471 -3.703403 5.021395 0.003340 0.002692 0.000082
Al 3.169676 -3.740775 -5.324169 0.002705 0.001778 -0.000671
Ga 3.173056 -3.735734 -0.122987 0.002055 0.005240 -0.001788
Ga 1.604268 -0.916674 5.008672 -0.000410 0.001322 0.002799
Al 1.585701 -0.963644 -5.308330 0.001428 0.000642 -0.002289
Al 1.568641 -0.962893 -0.142422 0.002027 -0.001063 -0.005011
Al 3.161175 1.817072 4.998014 -0.000239 0.001621 0.000210
Ga 3.137740 1.752255 -5.303063 0.000286 0.002131 0.001753
Ga 3.136708 1.764424 -0.138127 0.003030 0.003845 0.001490
Ga 6.361372 -3.702650 5.009528 -0.000587 0.003618 -0.001092
Ga 6.330732 -3.732123 -5.331571 0.000041 0.000878 0.001149
Al 6.362624 -3.744240 -0.123785 -0.001562 0.000022 -0.006298
Ga 4.779903 -0.936505 4.994813 0.002581 -0.002702 0.000905
Al 4.756515 -0.976807 -5.308269 -0.000277 -0.003709 0.005581
Ga 4.756022 -0.976533 -0.106192 -0.005086 0.001299 -0.019854
Ga -3.213419 1.825076 5.016252 -0.000562 -0.002269 0.001012
Ga -3.216074 1.788273 -5.311489 -0.002413 0.000800 0.000832
Ga -3.225899 1.768708 -0.146231 -0.000907 0.000398 0.005625
Ga -0.010925 -3.699994 5.028835 -0.003537 0.000192 -0.001211
Ga -0.001624 -3.723970 -5.316581 -0.002218 -0.001078 0.000132
Ga -0.034058 -3.722286 -0.147849 -0.001543 0.000514 0.010042
Ga -1.609696 -0.930699 5.012573 -0.006257 -0.002313 0.000059
Ga -1.611645 -0.961993 -5.312890 -0.004046 -0.002944 0.001143
Al -1.608427 -0.959006 -0.119900 -0.000876 -0.001110 -0.006708
N 1.617976 0.928318 4.343645 -0.001202 -0.002816 -0.011013
N 1.521373 0.834985 -5.959626 0.000048 0.000246 -0.001545
N 1.515275 0.829586 -0.787635 0.000006 0.001835 -0.002785
N -0.021562 3.662433 4.322034 0.001533 -0.002851 -0.005981
N -0.076015 3.595435 -5.948393 -0.001070 -0.001814 -0.000278
N 0.004307 3.595645 -0.727890 0.001238 -0.001635 -0.000917
N 3.177459 -1.854764 4.345707 -0.000347 -0.001009 -0.004824
N 3.168574 -1.893325 -5.874730 -0.000608 -0.001322 0.002082
N 3.122057 -1.869479 -0.781952 -0.002537 -0.002928 -0.014319
N -4.847729 0.924679 4.376929 0.001053 0.001644 -0.001489
N -4.823497 0.812434 -5.917339 0.001454 0.003448 -0.001868
N -4.826321 0.850548 -0.832580 0.001348 0.002731 0.003273
N -6.406873 3.623030 4.380844 0.001630 -0.000935 -0.001308
N -6.413014 3.618143 -5.929800 0.001060 -0.000548 0.000556
N -6.456082 3.640166 -0.748246 0.000901 0.000224 -0.000164
N -3.193892 -1.860372 4.330225 -0.001530 0.000082 -0.017201
N -3.254949 -1.864089 -5.963857 0.001143 0.000212 -0.001343
N -3.179075 -1.916138 -0.712378 0.003254 -0.000142 0.003567
N -1.612045 0.905161 4.345177 0.001551 0.001097 -0.004656
N -1.584803 0.896868 -5.906581 -0.000556 -0.000548 -0.001917
N -1.587678 0.846675 -0.726246 0.000806 0.000214 -0.002364
N -3.203259 3.672838 4.409600 -0.001151 -0.001355 0.001229
N -3.178228 3.654900 -5.961329 -0.000539 -0.001996 -0.001447
N -3.222640 3.627254 -0.775507 -0.000020 -0.000457 0.005587
N -0.006370 -1.838618 4.402446 0.001898 -0.002272 -0.003132
N 0.024789 -1.856052 -5.907145 0.000272 -0.001660 0.000065
N -0.018846 -1.834106 -0.719221 -0.001218 -0.001432 -0.001243
N -0.021589 1.785322 1.777146 0.000604 0.001496 0.005036
N 0.027135 1.838382 6.996908 0.000073 0.002808 -0.001645
N 0.016508 1.746808 -3.391736 0.000766 0.001319 -0.001496
N 3.233312 -3.665175 1.862082 -0.002093 -0.002731 -0.005065
N 3.186686 -3.749160 7.016879 0.001834 0.002057 -0.002063
N 3.160163 -3.720522 -3.399120 0.000865 0.003566 -0.000064
N 1.615868 -0.926398 1.763263 0.001546 -0.001256 0.004566
N 1.601114 -0.887476 6.994321 -0.000003 -0.002095 -0.002154
N 1.618853 -0.945348 -3.379173 -0.010636 0.001003 -0.004553
N 3.189966 1.843159 1.868363 -0.009559 -0.011681 -0.005131
N 3.127493 1.791355 6.935165 -0.000443 0.000341 -0.003003
N 3.149764 1.728639 -3.316458 -0.001190 0.000434 0.000617
N 6.371154 -3.715908 1.776423 -0.000708 0.001098 0.005621
N 6.323145 -3.676104 7.011057 -0.001360 -0.000153 -0.000094
N 6.353109 -3.734660 -3.356842 -0.000349 0.000735 -0.000895
N 4.745657 -0.908012 1.829869 0.000487 -0.003274 0.009916
N 4.817679 -0.962631 6.982732 -0.002279 -0.001062 -0.002423
N 4.742962 -0.944982 -3.377328 -0.012349 -0.010466 0.001360
N -3.211764 1.774076 1.868949 -0.001721 -0.002056 -0.006212
N -3.206187 1.869273 7.001145 -0.001288 0.000839 -0.000983
N -3.260369 1.756632 -3.335378 -0.001092 -0.000081 0.001113
N -0.051060 -3.723026 1.878926 0.000167 0.001036 -0.012036
N 0.034806 -3.716548 7.005934 -0.000263 0.000092 0.000114
N -0.021322 -3.732523 -3.345113 -0.001629 0.002459 0.000821
N -1.655261 -0.919335 1.786840 0.001150 0.001774 -0.003344
N -1.643095 -0.951939 7.000975 -0.001650 -0.000894 -0.000370
N -1.610036 -0.973837 -3.340840 -0.000915 -0.002876 -0.001001
