108
Energy=-940194.461249 Lattice="9.455566 0.000000 0.000000 -4.728130 8.189746 0.000000 -0.000118 -0.000536 15.208046" Stress="0.000000 -0.000000 0.000000 -0.000000 0.000001 -0.000000 0.000000 -0.000000 -0.000001" Properties=species:S:1:pos:R:3:forces:R:3
Al 1.545391 0.867058 2.404241 -0.000062 0.000011 0.000106
Al 1.558527 0.877407 7.443279 0.000009 -0.000032 0.000034
Al 1.553671 0.861029 -2.699387 -0.000079 -0.000060 0.000024
Al -0.023749 3.597887 2.400694 -0.000017 0.000000 0.000074
Al -0.029614 3.593784 7.436393 0.000016 0.000030 0.000067
Al -0.022887 3.600029 -2.684836 -0.000139 -0.000110 0.000073
Al 3.127732 -1.858306 2.386656 0.000001 -0.000001 0.000047
Al 3.124405 -1.861504 7.436380 -0.000105 -0.000002 -0.000001
Al 3.117117 -1.857973 -2.670559 -0.000029 -0.000102 -0.000008
Al -4.744826 0.867224 2.412136 0.000006 0.000022 0.000040
Al -4.756622 0.882571 7.424863 -0.000032 0.000036 0.000196
Al -4.759588 0.870300 -2.679718 -0.000017 0.000006 0.000002
Al -6.332886 3.602547 2.415794 -0.000026 0.000165 0.000174
Al -6.326739 3.582763 7.442705 -0.000026 0.000016 0.000034
Ga -6.335612 3.590661 -2.698248 0.000039 -0.000009 0.000056
Al -3.188995 -1.866179 2.394712 -0.000031 0.000051 -0.000117
Ga -3.187621 -1.864717 7.451724 0.000040 0.000002 0.000051
Ga -3.182418 -1.868759 -2.676619 0.000013 0.000033 0.000044
Al -1.595534 0.888456 2.392454 -0.000041 -0.000018 0.000031
Al -1.596715 0.895248 7.458943 0.000001 -0.000145 -0.000003
Ga -1.591392 0.880603 -2.687193 0.000042 0.000008 0.000022
Al -3.166756 3.597416 2.406598 0.000086 -0.000056 0.000067
Al -3.167042 3.595356 7.442748 -0.000021 0.000024 0.000025
Ga -3.164486 3.602842 -2.691841 0.000019 -0.000034 0.000041
Al -0.007507 -1.857903 2.415840 0.000074 -0.000052 -0.000004
Ga -0.004010 -1.861127 7.455172 -0.000002 0.000007 0.000056
Al -0.003892 -1.850872 -2.704190 0.000046 -0.000071 -0.000196
Al -0.019149 1.788478 4.924599 0.000032 0.000017 0.000081
Al -0.016227 1.787876 -5.242661 0.000025 0.000030 0.000078
Al -0.017380 1.793765 -0.135268 0.000072 -0.000037 -0.000044
Al 3.130176 -3.677901 4.912922 -0.000003 0.000015 0.000084
Al 3.132080 -3.682286 -5.240256 -0.000011 0.000029 -0.000022
Al 3.145043 -3.677763 -0.129348 -0.000019 -0.000005 -0.000057
Al 1.569678 -0.944932 4.914367 0.000028 0.000042 0.000124
Al 1.554982 -0.945729 -5.220000 -0.000010 -0.000024 -0.000026
Al 1.559328 -0.947640 -0.143132 0.000113 0.000157 -0.000054
Al 3.125699 1.780609 4.914293 -0.000016 0.000020 0.000075
Al 3.126112 1.780634 -5.240834 0.000094 -0.000070 -0.000061
Ga 3.123650 1.764576 -0.121681 0.000003 -0.000037 -0.000068
Al 6.274694 -3.692574 4.913473 0.000023 -0.000027 0.000055
Al 6.277563 -3.698168 -5.240809 -0.000014 0.000022 0.000074
Al 6.256593 -3.686775 -0.113894 -0.000052 0.000050 -0.000032
Al 4.689649 -0.949302 4.912017 -0.000007 -0.000017 -0.000013
Ga 4.689757 -0.940212 -5.220010 -0.000027 0.000005 0.000030
Al 4.693223 -0.949649 -0.133782 -0.000026 -0.000014 -0.000005
Al -3.174001 1.789951 4.923629 -0.000015 0.000003 0.000052
Al -3.176845 1.786916 -5.254180 -0.000140 -0.000077 0.000025
Al -3.173380 1.779199 -0.114848 -0.000029 -0.000027 -0.000012
Al -0.016143 -3.693259 4.913512 -0.000036 0.000015 0.000041
Al -0.021197 -3.683382 -5.240317 -0.000000 0.000197 -0.000125
Ga -0.012620 -3.673509 -0.115805 0.000112 0.000043 0.000000
Ga -1.599304 -0.940464 4.900189 -0.000012 0.000011 0.000079
Al -1.586408 -0.941464 -5.223669 0.000077 -0.000079 0.000005
Ga -1.593131 -0.946127 -0.112256 -0.000024 -0.000030 -0.000003
N 1.547295 0.871047 4.320401 0.000011 0.000006 -0.000083
N 1.553782 0.867993 -5.839871 0.000004 0.000021 -0.000058
N 1.510628 0.847482 -0.774636 -0.000047 -0.000047 0.000133
N -0.025786 3.598049 4.317435 -0.000007 -0.000018 -0.000081
N -0.026766 3.600733 -5.854645 0.000008 -0.000004 -0.000040
N -0.023007 3.600922 -0.753054 -0.000028 0.000008 -0.000038
N 3.128193 -1.861450 4.304332 0.000003 -0.000001 -0.000055
N 3.084654 -1.882604 -5.859433 0.000036 -0.000008 0.000079
N 3.125257 -1.862784 -0.740721 0.000001 -0.000017 -0.000024
N -4.745958 0.871456 4.328871 0.000017 0.000017 -0.000056
N -4.753798 0.917781 -5.872138 0.000056 0.000068 -0.000103
N -4.707244 0.852493 -0.759257 -0.000013 0.000009 -0.000028
N -6.329286 3.600867 4.326058 -0.000003 0.000017 -0.000054
N -6.326548 3.596885 -5.839828 0.000000 0.000007 0.000003
N -6.369325 3.622900 -0.725146 -0.000050 -0.000049 -0.000154
N -3.223937 -1.887169 4.305211 0.000020 -0.000023 0.000088
N -3.138038 -1.881267 -5.787382 -0.000047 -0.000024 0.000010
N -3.213482 -1.886313 -0.696458 0.000052 -0.000023 -0.000036
N -1.596643 0.932109 4.298043 0.000034 -0.000030 -0.000075
N -1.595326 0.876894 -5.829056 -0.000002 -0.000016 -0.000014
N -1.597839 0.920496 -0.707265 0.000030 0.000019 -0.000052
N -3.168315 3.598388 4.321671 0.000010 -0.000022 -0.000074
N -3.170467 3.603875 -5.841579 0.000006 -0.000039 -0.000042
N -3.129530 3.575721 -0.711264 -0.000003 0.000059 -0.000067
N 0.028041 -1.883313 4.318630 -0.000079 -0.000026 0.000045
N -0.015910 -1.857321 -5.780890 -0.000052 -0.000119 0.000090
N 0.018672 -1.836663 -0.788994 -0.000089 -0.000060 0.000080
N -0.015304 1.785293 1.785031 -0.000011 -0.000009 -0.000009
N -0.021668 1.779494 6.845988 -0.000006 0.000011 -0.000072
N 0.021243 1.808843 -3.321075 -0.000049 -0.000005 -0.000038
N 3.133347 -3.679557 1.793630 0.000008 0.000019 0.000012
N 3.129451 -3.678519 6.835181 -0.000002 -0.000011 -0.000060
N 3.175213 -3.652593 -3.315772 -0.000024 0.000163 0.000095
N 1.552774 -0.946305 1.781446 0.000010 0.000018 0.000005
N 1.596638 -0.920824 6.821181 0.000021 -0.000010 -0.000092
N 1.562436 -0.948668 -3.298236 -0.000015 -0.000029 -0.000048
N 3.128809 1.777175 1.857496 0.000065 -0.000254 -0.000057
N 3.124630 1.780709 6.833333 -0.000016 0.000001 -0.000080
N 3.129333 1.727142 -3.317778 0.000126 0.000124 -0.000048
N 6.277425 -3.685859 1.801590 -0.000004 0.000016 0.000046
N 6.281015 -3.730372 6.825473 -0.000008 -0.000010 -0.000078
N 6.236032 -3.707500 -3.336970 0.000142 0.000095 -0.000169
N 4.699558 -0.943212 1.788680 -0.000047 0.000012 0.000036
N 4.661089 -0.926087 6.824502 0.000081 0.000039 -0.000052
N 4.656611 -0.925952 -3.247783 0.000026 -0.000022 0.000002
N -3.180844 1.781347 1.799510 -0.000004 0.000004 0.000051
N -3.170146 1.782517 6.843595 0.000010 -0.000019 -0.000059
N -3.219590 1.754872 -3.343141 0.000067 0.000058 -0.000043
N -0.021510 -3.678461 1.859584 -0.000094 0.000057 -0.000039
N -0.021834 -3.729443 6.830103 0.000053 -0.000018 -0.000010
N -0.021297 -3.638725 -3.330867 -0.000016 0.000002 0.000110
N -1.594174 -0.950356 1.868792 0.000019 0.000011 0.000054
N -1.597354 -0.897792 6.863354 -0.000008 0.000097 -0.000011
N -1.560632 -0.968323 -3.314332 -0.000096 0.000025 -0.000053
