108
Energy=-1077516.167157 Lattice="9.476278 0.000000 0.000000 -4.738139 8.206697 0.000000 0.000000 0.000000 15.313968" Stress="-0.000054 0.000030 -0.000001 0.000030 -0.000023 -0.000002 -0.000001 -0.000002 0.000009" Properties=species:S:1:pos:R:3:forces:R:3
Al 1.564294 0.903146 2.504900 -0.001610 -0.014645 -0.011993
Al 1.564294 0.903146 7.521855 -0.001257 -0.014534 -0.006033
Al 1.564294 0.903146 -2.775158 -0.001129 -0.013792 -0.006069
Al 0.000000 3.612582 2.504900 -0.003412 -0.001340 -0.010926
Al 0.000000 3.612582 7.521855 -0.002634 -0.001408 -0.004354
Al 0.000000 3.612582 -2.775158 -0.002738 -0.001441 -0.003814
Al 3.173845 -1.884678 2.504900 -0.003704 0.001221 -0.012043
Al 3.173845 -1.884678 7.521855 -0.003200 0.001991 -0.005882
Ga 3.173845 -1.884678 -2.775158 -0.002689 0.001619 -0.004003
Al -4.783396 0.903146 2.504900 0.001587 -0.013063 -0.010726
Al -4.783396 0.903146 7.521855 0.001072 -0.013341 -0.005174
Al -4.783396 0.903146 -2.775158 0.001328 -0.012950 -0.005438
Ga -6.347690 3.612582 2.504900 -0.000089 -0.000289 -0.010073
Al -6.347690 3.612582 7.521855 -0.000926 -0.000333 -0.002961
Al -6.347690 3.612582 -2.775158 0.000098 -0.000045 -0.003642
Ga -3.173845 -1.884678 2.504900 -0.000529 0.002931 -0.011119
Al -3.173845 -1.884678 7.521855 -0.000732 0.002892 -0.004891
Al -3.173845 -1.884678 -2.775158 -0.000170 0.003072 -0.003840
Ga -1.654808 0.903146 2.504900 0.016212 -0.008882 -0.016005
Al -1.654808 0.903146 7.521855 0.013951 -0.007751 -0.006470
Al -1.654808 0.903146 -2.775158 0.013474 -0.007750 -0.006677
Al -3.219102 3.612582 2.504900 0.012636 0.005342 -0.010654
Ga -3.219102 3.612582 7.521855 0.015443 0.007565 -0.005265
Al -3.219102 3.612582 -2.775158 0.011718 0.005143 -0.005305
Al -0.045257 -1.884678 2.504900 0.012288 0.008360 -0.011809
Ga -0.045257 -1.884678 7.521855 0.014904 0.011412 -0.006738
Al -0.045257 -1.884678 -2.775158 0.011389 0.007845 -0.005965
Ga 0.000000 1.806291 5.013378 -0.014811 -0.010698 -0.006677
Al 0.000000 1.806291 -5.283635 -0.011989 -0.008484 -0.005921
Al 0.000000 1.806291 -0.266680 -0.011898 -0.008142 0.033227
Al 3.173845 -3.690969 5.013378 -0.012131 -0.005292 -0.005490
Al 3.173845 -3.690969 -5.283635 -0.012465 -0.005763 -0.004570
Al 3.173845 -3.690969 -0.266680 -0.011757 -0.005431 0.034519
Al 1.609551 -0.981532 5.013378 -0.013763 0.007760 -0.007129
Ga 1.609551 -0.981532 -5.283635 -0.016364 0.009232 -0.009103
Al 1.609551 -0.981532 -0.266680 -0.013734 0.008119 0.032714
Al 3.128588 1.806291 5.013378 0.000551 -0.003158 -0.003855
Al 3.128588 1.806291 -5.283635 0.000450 -0.003389 -0.004043
Ga 3.128588 1.806291 -0.266680 0.000121 -0.003771 0.046728
Al 6.302433 -3.690969 5.013378 0.000130 0.000179 -0.002299
Ga 6.302433 -3.690969 -5.283635 0.000326 -0.000541 -0.002111
Al 6.302433 -3.690969 -0.266680 -0.000410 -0.000230 0.036239
Al 4.738139 -0.981532 5.013378 -0.001346 0.012953 -0.004276
Ga 4.738139 -0.981532 -5.283635 -0.000637 0.017519 -0.005630
Ga 4.738139 -0.981532 -0.266680 -0.000788 0.016845 0.044856
Al -3.219102 1.806291 5.013378 0.002798 -0.001454 -0.005296
Al -3.219102 1.806291 -5.283635 0.003258 -0.001932 -0.004762
Al -3.219102 1.806291 -0.266680 0.003334 -0.002055 0.034102
Ga -0.045257 -3.690969 5.013378 0.002897 0.001276 -0.003914
Al -0.045257 -3.690969 -5.283635 0.003286 0.001054 -0.002744
Ga -0.045257 -3.690969 -0.266680 0.003300 0.001636 0.046963
Al -1.609551 -0.981532 5.013378 0.001325 0.014231 -0.005681
Al -1.609551 -0.981532 -5.283635 0.001396 0.014943 -0.005385
Al -1.609551 -0.981532 -0.266680 0.001272 0.014774 0.033139
N 1.564294 0.903146 4.418497 0.018136 -0.024246 -0.001889
N 1.564294 0.903146 -5.878516 -0.001056 0.004181 -0.000275
N 1.564294 0.903146 -0.861561 -0.019048 -0.024712 -0.000450
N 0.000000 3.612582 4.418497 -0.001995 0.021840 -0.004514
N 0.000000 3.612582 -5.878516 -0.021018 -0.010746 -0.004621
N 0.000000 3.612582 -0.861561 -0.001951 0.000200 0.004459
N 3.173845 -1.884678 4.418497 -0.002145 0.001537 0.002836
N 3.173845 -1.884678 -5.878516 -0.002745 -0.020087 -0.013205
N 3.173845 -1.884678 -0.861561 -0.021479 -0.009072 0.021033
N -4.783396 0.903146 4.418497 0.000855 -0.013529 0.006230
N -4.783396 0.903146 -5.878516 0.000419 0.004540 -0.000287
N -4.783396 0.903146 -0.861561 0.019187 -0.006407 -0.005681
N -6.347690 3.612582 4.418497 -0.019953 -0.010960 0.019535
N -6.347690 3.612582 -5.878516 0.018708 -0.010400 -0.004521
N -6.347690 3.612582 -0.861561 -0.019009 0.011153 -0.008904
N -3.173845 -1.884678 4.418497 -0.001137 0.001883 0.027127
N -3.173845 -1.884678 -5.878516 0.018106 0.012728 -0.012896
N -3.173845 -1.884678 -0.861561 0.017708 -0.008880 -0.002239
N -1.654808 0.903146 4.418497 -0.001674 -0.016534 0.026023
N -1.654808 0.903146 -5.878516 0.013357 -0.007982 0.008651
N -1.654808 0.903146 -0.861561 0.013334 -0.007852 0.008942
N -3.219102 3.612582 4.418497 0.031166 -0.005231 -0.002333
N -3.219102 3.612582 -5.878516 0.011872 0.006267 0.029265
N -3.219102 3.612582 -0.861561 0.030500 -0.004848 -0.000143
N -0.045257 -1.884678 4.418497 0.011369 0.029544 -0.002783
N -0.045257 -1.884678 -5.878516 -0.004032 -0.001161 0.022727
N -0.045257 -1.884678 -0.861561 0.011661 0.028760 -0.000768
N 0.000000 1.806291 1.910020 0.004479 0.000892 -0.035626
N 0.000000 1.806291 6.926975 -0.011935 -0.007617 0.029223
N 0.000000 1.806291 -3.370038 -0.011528 -0.007383 0.005421
N 3.173845 -3.690969 1.910020 -0.012058 -0.005835 -0.028198
N 3.173845 -3.690969 6.926975 0.003212 0.002414 -0.000257
N 3.173845 -3.690969 -3.370038 -0.011954 -0.028101 -0.002103
N 1.609551 -0.981532 1.910020 -0.013747 0.008160 -0.025718
N 1.609551 -0.981532 6.926975 0.001785 0.016132 0.001556
N 1.609551 -0.981532 -3.370038 -0.032752 0.019029 0.023681
N 3.128588 1.806291 1.910020 0.000968 -0.024046 -0.028185
N 3.128588 1.806291 6.926975 0.001408 -0.001356 0.003102
N 3.128588 1.806291 -3.370038 0.000761 -0.002009 0.002314
N 6.302433 -3.690969 1.910020 -0.018478 -0.011476 -0.047042
N 6.302433 -3.690969 6.926975 0.000927 -0.000210 0.003228
N 6.302433 -3.690969 -3.370038 0.000076 -0.000094 0.027177
N 4.738139 -0.981532 1.910020 -0.020083 0.024997 -0.024500
N 4.738139 -0.981532 6.926975 -0.000647 0.013592 0.005085
N 4.738139 -0.981532 -3.370038 0.018189 0.024578 0.020806
N -3.219102 1.806291 1.910020 -0.016507 0.009238 -0.039871
N -3.219102 1.806291 6.926975 0.002642 -0.023212 -0.005225
N -3.219102 1.806291 -3.370038 0.002759 -0.001557 0.002591
N -0.045257 -3.690969 1.910020 0.020924 0.011192 -0.028371
N -0.045257 -3.690969 6.926975 -0.016328 -0.010946 0.011162
N -0.045257 -3.690969 -3.370038 0.002155 0.000298 0.002548
N -1.609551 -0.981532 1.910020 0.020438 0.007120 -0.042995
N -1.609551 -0.981532 6.926975 -0.018096 0.024484 -0.002310
N -1.609551 -0.981532 -3.370038 0.000624 0.013724 0.005453
