108
Energy=-1.764153e+06 Lattice="9.554842e+00 0.000000e+00 0.000000e+00 -4.778067e+00 8.276447e+00 0.000000e+00 -6.341035e-04 -4.681956e-03 1.545362e+01" Stress="-2.225285e-05 -3.733870e-05 1.036588e-05 -4.370155e-05 2.113636e-04 -1.285837e-04 1.378499e-05 -1.406781e-04 -3.347930e-04" Properties=species:S:1:pos:R:3:forces:R:3 Config_type=AlGaN_super3_29_1_22.xyz
Al 1.578231e+00 8.684031e-01 2.400375e+00 5.033205e-05 -2.440018e-05 8.601916e-05
Al 1.549554e+00 8.889483e-01 7.584488e+00 6.258236e-06 2.476135e-06 -1.090625e-05
Al 1.569216e+00 8.915216e-01 -2.700525e+00 2.150494e-05 1.328678e-05 3.076917e-05
Al -1.930040e-02 3.652192e+00 2.427913e+00 1.480585e-04 -2.367527e-04 1.103928e-04
Al -1.812735e-02 3.630533e+00 7.562629e+00 -2.904041e-04 -4.024318e-04 2.734267e-04
Al -1.326142e-02 3.635482e+00 -2.712981e+00 -4.615836e-06 8.645284e-06 1.817092e-05
Al 3.150851e+00 -1.882699e+00 2.406905e+00 1.837406e-05 1.150228e-04 1.236744e-04
Ga 3.171505e+00 -1.887601e+00 7.567701e+00 9.700013e-06 2.293668e-05 -3.306744e-05
Ga 3.171667e+00 -1.871906e+00 -2.690230e+00 -2.272410e-05 -1.034130e-05 9.421645e-05
Al -4.816814e+00 8.786378e-01 2.432017e+00 -2.189171e-05 -8.693916e-06 1.251321e-04
Ga -4.794601e+00 8.720187e-01 7.567846e+00 -6.614506e-06 -2.612416e-05 9.238944e-05
Al -4.809651e+00 8.737637e-01 -2.707236e+00 2.597013e-05 1.150446e-05 9.258210e-05
Ga -6.410503e+00 3.630695e+00 2.400450e+00 -3.781963e-05 -4.466734e-05 2.549482e-05
Ga -6.416344e+00 3.639225e+00 7.580223e+00 2.554409e-05 -5.268180e-05 7.299625e-05
Ga -6.401129e+00 3.635455e+00 -2.695250e+00 -3.464706e-05 -1.013993e-05 6.489134e-05
Ga -3.209921e+00 -1.893192e+00 2.440233e+00 -5.588551e-08 -2.672642e-05 8.248341e-05
Al -3.199490e+00 -1.883486e+00 7.555848e+00 -3.454780e-05 5.870769e-05 8.643993e-06
Al -3.211128e+00 -1.877332e+00 -2.713180e+00 9.805280e-06 -1.341928e-09 4.914321e-05
Ga -1.609127e+00 8.763102e-01 2.449063e+00 2.189456e-05 9.474891e-06 7.624793e-05
Al -1.605556e+00 8.712606e-01 7.571045e+00 4.646796e-05 1.743815e-04 5.086369e-05
Ga -1.603919e+00 8.792276e-01 -2.740306e+00 2.122817e-05 -6.071218e-06 6.651126e-05
Ga -3.193218e+00 3.646765e+00 2.427170e+00 -6.055477e-05 -9.465726e-05 8.693319e-05
Ga -3.189890e+00 3.629141e+00 7.560273e+00 6.778386e-05 6.916209e-06 8.000445e-05
Ga -3.207931e+00 3.642232e+00 -2.694256e+00 1.223150e-05 -2.807242e-05 4.990374e-05
Al -8.921176e-03 -1.868815e+00 2.420750e+00 -1.409557e-05 -3.180067e-06 9.915767e-05
Ga -4.052786e-02 -1.863063e+00 7.589013e+00 3.995881e-05 -3.214515e-05 8.515458e-05
Ga -2.987107e-02 -1.874237e+00 -2.718923e+00 -4.128159e-05 -3.596559e-05 4.260597e-05
Ga -2.790309e-02 1.810582e+00 5.001705e+00 1.227237e-04 -7.533415e-05 5.419968e-05
Al -2.030748e-02 1.799723e+00 -5.314318e+00 1.332008e-05 2.194240e-05 2.668325e-05
Ga -1.751286e-03 1.817925e+00 -1.348685e-01 -1.610672e-05 -4.487684e-05 1.289819e-04
Al 3.178810e+00 -3.726756e+00 4.984370e+00 -4.735499e-05 4.515976e-04 1.284356e-04
Ga 3.168848e+00 -3.731913e+00 -5.291808e+00 3.563664e-05 -7.197071e-05 8.006471e-05
Al 3.172382e+00 -3.714553e+00 -1.341697e-01 -8.485871e-06 2.646339e-06 3.824369e-05
Ga 1.563536e+00 -9.635535e-01 4.981383e+00 4.273442e-05 -3.851279e-05 1.564591e-05
Ga 1.551821e+00 -9.441464e-01 -5.291788e+00 -2.488459e-05 2.038308e-06 9.229977e-05
Al 1.570416e+00 -9.617377e-01 -1.294603e-01 1.902057e-05 -3.449885e-05 1.020781e-04
Ga 3.157041e+00 1.799192e+00 4.989401e+00 -7.974543e-06 -5.133162e-05 4.577311e-05
Ga 3.147674e+00 1.802071e+00 -5.278924e+00 1.302425e-05 -3.105953e-05 8.151668e-05
Al 3.158735e+00 1.794121e+00 -1.467384e-01 6.244463e-05 -8.626896e-05 7.864949e-06
Al 6.331299e+00 -3.714331e+00 5.011434e+00 4.158565e-05 4.936444e-06 -3.297187e-05
Ga 6.344081e+00 -3.707819e+00 -5.295595e+00 -1.487343e-05 -6.956554e-05 5.981482e-05
Al 6.339388e+00 -3.723699e+00 -1.616135e-01 -4.945673e-05 8.625791e-05 5.402651e-05
Ga 4.762382e+00 -9.693910e-01 4.979390e+00 -5.022571e-05 -4.997543e-05 -1.351096e-05
Ga 4.777566e+00 -9.610592e-01 -5.283476e+00 -9.701510e-06 -2.999916e-05 7.810983e-05
Ga 4.747865e+00 -9.595020e-01 -1.317412e-01 -6.014352e-05 -4.573441e-05 2.576790e-04
Al -3.199162e+00 1.792045e+00 5.002721e+00 -6.346417e-05 -8.965395e-05 4.828508e-05
Ga -3.195578e+00 1.800460e+00 -5.295397e+00 1.201283e-05 -2.622896e-05 7.834813e-05
Ga -3.224717e+00 1.808171e+00 -1.426888e-01 1.734775e-05 -6.386118e-05 1.858381e-05
Ga -2.495870e-02 -3.711912e+00 4.978806e+00 -3.257540e-05 -1.912670e-05 7.296755e-05
Al -2.687447e-02 -3.709854e+00 -5.295186e+00 -1.804845e-06 -4.534714e-05 8.313163e-05
Al -2.159650e-02 -3.711003e+00 -1.231524e-01 3.173515e-05 -9.757650e-06 1.257924e-04
Al -1.619528e+00 -9.631470e-01 5.009763e+00 -1.905130e-05 -4.597159e-05 4.845584e-05
Al -1.618831e+00 -9.578629e-01 -5.310870e+00 1.457126e-05 -1.243435e-06 6.201905e-05
Ga -1.606509e+00 -9.796942e-01 -1.416476e-01 3.704671e-06 -3.144904e-05 4.004621e-05
N 1.565932e+00 8.788602e-01 4.308167e+00 -1.706263e-06 5.715602e-05 -7.773510e-05
N 1.528759e+00 9.080923e-01 -5.956803e+00 3.525062e-05 3.251430e-05 -9.993399e-06
N 1.606506e+00 8.541607e-01 -7.730520e-01 1.005446e-05 4.266058e-05 -1.602971e-05
N -1.758658e-02 3.687547e+00 4.352865e+00 1.166250e-04 -4.488105e-05 -9.796479e-05
N -2.020098e-02 3.594801e+00 -5.968736e+00 -2.971008e-05 5.246189e-05 -1.116811e-04
N -2.602843e-02 3.683261e+00 -7.935194e-01 3.161777e-05 -6.706168e-06 8.599733e-08
N 3.155873e+00 -1.932197e+00 4.330419e+00 -5.171885e-05 -1.718099e-05 -3.590925e-06
N 3.163615e+00 -1.877455e+00 -5.911927e+00 3.078463e-05 5.272037e-05 -4.361667e-05
N 3.119896e+00 -1.902290e+00 -7.109474e-01 3.886859e-05 5.952555e-05 -8.217649e-05
N -4.761734e+00 9.068844e-01 4.348097e+00 5.155880e-05 6.457434e-05 -9.608075e-05
N -4.802096e+00 8.834118e-01 -5.919712e+00 9.139784e-06 2.693522e-05 -9.033506e-05
N -4.843665e+00 9.005419e-01 -7.977943e-01 1.129544e-05 2.969438e-05 -7.698882e-05
N -6.445449e+00 3.662956e+00 4.381339e+00 7.508302e-07 2.696650e-05 -1.821516e-05
N -6.358261e+00 3.662988e+00 -5.895589e+00 -2.169701e-05 3.357379e-05 -3.829630e-05
N -6.388760e+00 3.638617e+00 -6.983205e-01 3.028975e-05 9.850487e-05 -6.499087e-05
N -3.160757e+00 -1.911598e+00 4.415366e+00 1.880894e-05 5.639522e-05 -8.231373e-05
N -3.164433e+00 -1.855840e+00 -5.975084e+00 -2.838666e-05 4.361505e-05 -4.568386e-05
N -3.207334e+00 -1.922429e+00 -7.970266e-01 1.219409e-06 6.808912e-05 -9.018057e-05
N -1.652268e+00 8.514432e-01 4.424863e+00 -1.704881e-05 4.303989e-05 -7.329955e-05
N -1.570938e+00 8.568714e-01 -5.939987e+00 -2.506507e-05 -2.001109e-05 4.272148e-07
N -1.607034e+00 8.812637e-01 -7.670513e-01 -1.697940e-05 2.503937e-05 -1.263339e-04
N -3.161290e+00 3.612066e+00 4.411787e+00 -1.525321e-04 -1.363955e-04 -8.429972e-05
N -3.246709e+00 3.664575e+00 -5.913413e+00 1.356817e-05 -2.944427e-06 -4.661549e-05
N -3.207617e+00 3.692989e+00 -7.124248e-01 -1.349776e-05 7.983106e-06 -6.476062e-05
N -6.659766e-02 -1.851182e+00 4.336643e+00 6.833469e-06 4.721119e-05 -7.786908e-05
N -6.659607e-02 -1.898759e+00 -5.882320e+00 3.611431e-06 2.358561e-05 -6.813918e-05
N 2.226500e-02 -1.904964e+00 -7.380721e-01 -2.203852e-05 1.532816e-05 -5.713462e-05
N 1.831805e-02 1.830034e+00 1.847766e+00 -2.227423e-05 6.124697e-05 -4.129297e-05
N -2.372552e-02 1.799053e+00 6.993969e+00 4.458378e-06 2.651852e-05 -6.377299e-05
N 2.742527e-02 1.829013e+00 -3.371257e+00 -2.847110e-05 -9.495098e-06 -6.511936e-05
N 3.211791e+00 -3.699949e+00 1.785720e+00 -8.871495e-05 1.252445e-04 -5.277436e-05
N 3.211033e+00 -3.743825e+00 6.904521e+00 1.423317e-05 -2.664963e-05 -7.991071e-05
N 3.206726e+00 -3.741917e+00 -3.316821e+00 -4.301655e-05 3.232853e-05 -7.459217e-05
N 1.567641e+00 -9.597882e-01 1.801294e+00 -8.706683e-05 -2.301318e-05 -1.226037e-04
N 1.567162e+00 -9.120658e-01 6.965111e+00 -5.358392e-05 3.581626e-05 -3.334219e-05
N 1.571123e+00 -9.043391e-01 -3.316490e+00 -4.495616e-06 -7.012582e-06 -7.271306e-05
N 3.163772e+00 1.745865e+00 1.776619e+00 -1.699189e-05 3.283517e-06 -3.911090e-05
N 3.114890e+00 1.770908e+00 6.965394e+00 1.775115e-05 3.000654e-05 -4.505629e-05
N 3.156873e+00 1.753788e+00 -3.295835e+00 5.848920e-06 5.842167e-06 -6.892228e-05
N 6.298033e+00 -3.738616e+00 1.750171e+00 1.302311e-05 -2.588335e-05 -6.500327e-05
N 6.300180e+00 -3.699021e+00 6.936905e+00 2.294127e-04 1.559586e-04 -1.625482e-04
N 6.305135e+00 -3.691031e+00 -3.307604e+00 5.972669e-05 -7.078408e-06 -2.945550e-05
N 4.717597e+00 -9.358871e-01 1.853831e+00 2.750095e-05 -2.800270e-05 -3.407135e-04
N 4.794949e+00 -9.860877e-01 6.952398e+00 -7.076790e-06 -1.056679e-05 -1.978908e-05
N 4.798170e+00 -9.366671e-01 -3.297027e+00 -2.808752e-05 -5.032031e-06 -6.907953e-05
N -3.250131e+00 1.771516e+00 1.827491e+00 2.393882e-05 3.052086e-05 -7.990208e-06
N -3.163701e+00 1.769141e+00 6.921810e+00 -2.901732e-05 2.499235e-05 -8.520431e-05
N -3.249765e+00 1.779715e+00 -3.317373e+00 -2.035448e-05 1.430997e-05 -8.858451e-05
N -2.125277e-02 -3.670591e+00 1.791462e+00 4.198335e-05 2.354665e-05 -1.486339e-04
N -2.508241e-02 -3.715578e+00 6.946879e+00 -5.203538e-05 1.717337e-06 -1.082875e-04
N -2.443813e-02 -3.720680e+00 -3.384042e+00 1.969382e-05 1.704120e-05 -6.853055e-05
N -1.578002e+00 -9.843654e-01 1.823633e+00 -1.691938e-05 -2.365091e-05 -1.675709e-05
N -1.653676e+00 -9.368680e-01 6.933726e+00 7.450448e-06 -7.165689e-05 -4.749235e-05
N -1.661932e+00 -9.841936e-01 -3.387048e+00 2.357004e-05 -1.773890e-05 -6.530681e-05
