108
Energy=-1.672602e+06 Lattice="9.545341e+00 0.000000e+00 0.000000e+00 -4.774113e+00 8.265831e+00 0.000000e+00 -1.796159e-03 3.054450e-03 1.542682e+01" Stress="1.555384e-04 -1.287689e-04 -6.625997e-05 -1.141872e-04 1.726890e-04 1.335454e-04 -5.781785e-05 1.360655e-04 -3.884621e-04" Properties=species:S:1:pos:R:3:forces:R:3 Config_type=AlGaN_super3_27_0_30.xyz
Al 1.574660e+00 8.939916e-01 2.392411e+00 2.260907e-04 -1.505945e-04 2.821648e-04
Al 1.569328e+00 9.031989e-01 7.579643e+00 -1.560633e-04 -1.652823e-04 5.048392e-05
Al 1.559929e+00 8.896668e-01 -2.714714e+00 -2.032315e-04 -2.817896e-05 1.205034e-04
Al -1.291671e-02 3.618690e+00 2.410239e+00 -1.907010e-05 4.150544e-06 3.259280e-05
Al -9.559365e-03 3.612788e+00 7.570879e+00 7.498860e-06 5.143209e-06 -1.903652e-05
Al -2.553794e-02 3.613504e+00 -2.711973e+00 1.027378e-05 -4.512545e-05 -1.014507e-05
Al 3.167810e+00 -1.856608e+00 2.401616e+00 -1.702247e-04 5.696904e-05 -2.451495e-04
Ga 3.168590e+00 -1.858441e+00 7.581560e+00 -2.920469e-05 3.469526e-05 4.335019e-05
Ga 3.165407e+00 -1.869891e+00 -2.711669e+00 4.237315e-05 -4.141779e-05 -1.285134e-05
Al -4.809474e+00 8.771867e-01 2.395736e+00 2.163745e-04 1.282801e-04 -2.203491e-04
Al -4.811271e+00 8.816090e-01 7.566716e+00 -5.276933e-06 9.466406e-06 4.854984e-05
Ga -4.798451e+00 8.763484e-01 -2.699465e+00 8.680678e-05 1.593272e-05 3.071023e-06
Al -6.391718e+00 3.612860e+00 2.390117e+00 3.315896e-05 -2.755014e-05 4.230638e-05
Al -6.399569e+00 3.611719e+00 7.582740e+00 2.706561e-05 -9.590285e-06 7.303622e-05
Ga -6.394268e+00 3.616830e+00 -2.702605e+00 5.377711e-05 3.594738e-05 7.471683e-05
Ga -3.232256e+00 -1.881135e+00 2.424939e+00 -4.154760e-05 4.690929e-05 5.067840e-05
Ga -3.224152e+00 -1.877733e+00 7.561980e+00 -4.638318e-06 4.274729e-05 2.203395e-05
Al -3.218734e+00 -1.871437e+00 -2.709029e+00 -3.601329e-06 -1.820706e-05 -7.510280e-05
Ga -1.606399e+00 9.067027e-01 2.416533e+00 -4.740910e-05 3.190928e-05 -3.537245e-05
Ga -1.603443e+00 9.026614e-01 7.563588e+00 2.663518e-05 -2.133321e-05 -1.277556e-05
Al -1.599705e+00 8.994478e-01 -2.704563e+00 4.058904e-05 3.636029e-05 3.872308e-05
Ga -3.210691e+00 3.623639e+00 2.412478e+00 -1.333296e-05 -4.071884e-05 3.093023e-06
Ga -3.208720e+00 3.620474e+00 7.550950e+00 3.074258e-05 -1.048617e-05 2.082539e-05
Al -3.194053e+00 3.622638e+00 -2.684610e+00 2.099080e-05 -4.233027e-06 3.115174e-05
Ga -5.754049e-03 -1.879776e+00 2.391351e+00 1.722965e-04 -1.168591e-05 4.345704e-05
Ga -1.826936e-02 -1.871829e+00 7.588760e+00 2.431835e-05 2.466643e-05 2.797159e-05
Ga -1.109932e-02 -1.867188e+00 -2.697358e+00 2.302928e-05 -2.388853e-05 2.246806e-05
Al -1.756171e-02 1.803503e+00 4.986764e+00 5.567348e-06 2.282049e-05 2.377010e-05
Al -1.477574e-03 1.789903e+00 -5.270395e+00 3.206994e-04 -8.887804e-05 6.443037e-05
Al -1.180478e-02 1.792131e+00 -1.657465e-01 8.985998e-05 -1.503370e-04 3.547175e-05
Ga 3.177306e+00 -3.715330e+00 4.971852e+00 -7.973374e-06 -5.371677e-06 4.525349e-05
Ga 3.170350e+00 -3.717835e+00 -5.267437e+00 -2.958462e-05 6.804479e-05 -1.270902e-06
Ga 3.157489e+00 -3.715985e+00 -1.467655e-01 -6.374270e-05 3.527272e-05 6.877505e-05
Ga 1.580469e+00 -9.366983e-01 4.980369e+00 -3.046739e-05 5.823244e-05 -6.005787e-07
Al 1.578183e+00 -9.266963e-01 -5.278679e+00 1.635810e-06 5.995924e-05 -1.721157e-05
Al 1.580796e+00 -9.362440e-01 -1.422887e-01 1.180720e-04 3.133130e-04 2.824911e-04
Ga 3.163067e+00 1.786160e+00 4.982709e+00 -4.240768e-05 1.033228e-05 -3.460650e-05
Al 3.144429e+00 1.774025e+00 -5.305347e+00 2.119308e-04 -1.287497e-04 -4.807984e-04
Al 3.156694e+00 1.781495e+00 -1.305288e-01 -1.211952e-04 -7.706528e-05 1.719409e-05
Ga 6.334098e+00 -3.731836e+00 4.992190e+00 -1.148142e-05 -1.531838e-05 1.691942e-05
Ga 6.332474e+00 -3.727311e+00 -5.279605e+00 -1.779001e-05 3.531125e-05 -3.627084e-06
Ga 6.337550e+00 -3.722175e+00 -1.493465e-01 3.700691e-05 -1.370740e-04 8.014139e-05
Al 4.743120e+00 -9.362827e-01 4.976784e+00 9.722246e-06 -9.039894e-06 1.859140e-05
Al 4.740128e+00 -9.438571e-01 -5.279303e+00 -2.488796e-05 3.888265e-05 -2.672483e-05
Al 4.742062e+00 -9.427560e-01 -1.383279e-01 -7.031395e-04 6.868412e-04 6.011656e-04
Al -3.214660e+00 1.779047e+00 4.987558e+00 2.254102e-05 2.814882e-05 -7.322235e-06
Ga -3.212686e+00 1.784676e+00 -5.267203e+00 -8.378124e-05 -1.935728e-05 -1.776979e-07
Al -3.211632e+00 1.796141e+00 -1.630509e-01 -1.748082e-04 8.228489e-06 2.459964e-04
Ga -3.299245e-02 -3.725344e+00 4.993576e+00 -3.213966e-06 -5.944878e-06 1.435554e-05
Ga -2.250929e-02 -3.723481e+00 -5.273819e+00 2.572069e-06 -1.171539e-05 1.093007e-05
Al -1.503042e-02 -3.729359e+00 -1.499526e-01 -1.116025e-05 -4.072205e-05 5.302162e-05
Ga -1.620666e+00 -9.395341e-01 4.989869e+00 -9.517098e-06 -9.955511e-06 3.540911e-05
Ga -1.615853e+00 -9.479457e-01 -5.254655e+00 -1.675679e-05 -9.366504e-06 4.420326e-05
Ga -1.618141e+00 -9.419473e-01 -1.671724e-01 1.175831e-04 6.435809e-05 1.070510e-04
N 1.525939e+00 9.101802e-01 4.313257e+00 2.035680e-05 1.229485e-05 -1.994816e-04
N 1.560360e+00 8.823925e-01 -5.916744e+00 9.630304e-05 -2.532258e-05 3.949344e-05
N 1.572481e+00 8.820209e-01 -7.786180e-01 -3.324144e-05 1.495800e-05 7.707024e-06
N -2.042412e-02 3.579645e+00 4.321460e+00 3.143477e-05 -1.535682e-06 -2.214413e-05
N -2.440372e-02 3.574646e+00 -5.936475e+00 -6.794446e-05 1.860564e-04 -5.710807e-05
N -2.398919e-02 3.582861e+00 -8.051308e-01 2.834149e-05 5.564964e-05 1.271155e-05
N 3.200595e+00 -1.846455e+00 4.323728e+00 -1.451849e-05 2.921707e-05 -3.075364e-05
N 3.159416e+00 -1.830324e+00 -5.858121e+00 6.216058e-06 -1.593999e-05 3.553025e-06
N 3.159858e+00 -1.824068e+00 -7.330608e-01 1.310423e-04 -1.977830e-04 -1.506334e-04
N -4.756720e+00 8.580794e-01 4.325182e+00 -2.247628e-05 2.262188e-06 3.334099e-05
N -4.834870e+00 8.529614e-01 -5.928927e+00 -1.079811e-04 5.119082e-05 1.201659e-04
N -4.803916e+00 8.789803e-01 -7.164708e-01 2.428880e-04 -2.431195e-04 3.698153e-05
N -6.388301e+00 3.626287e+00 4.302287e+00 3.531935e-05 -1.738078e-05 -1.553451e-05
N -6.388850e+00 3.581248e+00 -5.926646e+00 -3.154011e-05 -1.113650e-05 7.175237e-05
N -6.347985e+00 3.598063e+00 -7.262058e-01 8.477926e-06 7.517290e-05 -7.267981e-06
N -3.251856e+00 -1.857556e+00 4.398914e+00 3.658594e-05 -1.377881e-05 -1.912284e-05
N -3.249263e+00 -1.853130e+00 -5.886673e+00 4.103827e-05 -2.506949e-05 -2.884381e-05
N -3.257984e+00 -1.852008e+00 -7.946965e-01 3.693315e-04 -2.202991e-04 -1.948262e-04
N -1.610610e+00 9.385298e-01 4.402536e+00 2.350959e-05 -4.771569e-05 7.477900e-06
N -1.567654e+00 9.084717e-01 -5.882971e+00 -2.061910e-04 -7.169754e-05 -7.569430e-05
N -1.608226e+00 9.375688e-01 -7.861027e-01 2.950540e-05 -8.299357e-05 -1.093869e-04
N -3.207459e+00 3.583094e+00 4.390962e+00 2.833303e-05 -2.383702e-05 4.443529e-06
N -3.200584e+00 3.626547e+00 -5.911728e+00 3.214124e-05 -9.691588e-06 -3.361153e-05
N -3.242880e+00 3.609847e+00 -7.705242e-01 4.506201e-05 1.002994e-05 -2.439920e-05
N -1.795149e-02 -1.876946e+00 4.361977e+00 1.083056e-05 -4.266973e-05 -2.546462e-05
N 1.980064e-02 -1.851315e+00 -5.861736e+00 -2.612398e-06 -2.309622e-05 -4.367819e-05
N 2.885167e-02 -1.898328e+00 -7.167087e-01 -1.555975e-04 -7.909211e-05 -1.177404e-04
N 2.081933e-02 1.820298e+00 1.753964e+00 -1.585490e-04 2.039170e-04 -1.412496e-04
N 2.700772e-02 1.822174e+00 6.912177e+00 -6.091273e-05 5.615517e-05 2.352084e-05
N -1.502077e-02 1.795327e+00 -3.338860e+00 -1.230954e-05 2.175620e-05 6.249778e-06
N 3.203269e+00 -3.690187e+00 1.838418e+00 1.868412e-06 1.278801e-04 -7.147855e-07
N 3.210180e+00 -3.730274e+00 6.958626e+00 -2.091496e-05 9.987484e-06 -3.338549e-05
N 3.161338e+00 -3.762764e+00 -3.282539e+00 -3.876700e-05 2.570561e-05 5.999755e-06
N 1.614297e+00 -9.227145e-01 1.777040e+00 1.160325e-04 -2.848723e-04 9.425119e-05
N 1.570593e+00 -8.997336e-01 6.961640e+00 2.051229e-05 2.711069e-05 3.562009e-06
N 1.571073e+00 -9.004801e-01 -3.363651e+00 2.934277e-05 1.185742e-05 -5.014554e-05
N 3.157213e+00 1.790727e+00 1.793647e+00 -5.235300e-06 3.034914e-05 6.725859e-05
N 3.155980e+00 1.794829e+00 6.985861e+00 1.277332e-04 6.532200e-05 -4.823197e-05
N 3.116990e+00 1.766584e+00 -3.382727e+00 2.356590e-05 5.030870e-05 1.443725e-04
N 6.338314e+00 -3.758978e+00 1.827392e+00 -2.450716e-05 5.530782e-06 -8.563707e-05
N 6.342279e+00 -3.766419e+00 6.981691e+00 -5.257985e-05 -3.384581e-05 -1.031095e-05
N 6.299658e+00 -3.692966e+00 -3.293144e+00 -2.017291e-05 4.208887e-05 -6.307394e-06
N 4.710426e+00 -9.313770e-01 1.774570e+00 1.342516e-04 -9.994143e-05 -3.005549e-04
N 4.741633e+00 -9.015581e-01 6.895209e+00 -2.579624e-05 -2.972126e-05 -2.391296e-05
N 4.790181e+00 -9.727987e-01 -3.371457e+00 -1.392592e-05 -2.264975e-05 3.417155e-05
N -3.244887e+00 1.770909e+00 1.750703e+00 -1.648398e-04 -9.293575e-05 -1.060678e-04
N -3.254491e+00 1.763789e+00 6.906526e+00 -2.571486e-05 -1.056556e-05 -1.470507e-05
N -3.167476e+00 1.817838e+00 -3.286925e+00 -3.468394e-05 -1.898218e-05 -1.935635e-05
N -6.083749e-02 -3.742616e+00 1.758572e+00 -6.307711e-06 1.867635e-05 -6.373487e-05
N -7.541953e-02 -3.736087e+00 6.969551e+00 -1.179271e-05 -1.446859e-05 -1.686490e-05
N 2.008496e-02 -3.741880e+00 -3.301940e+00 -3.537425e-05 1.372043e-05 -3.890109e-05
N -1.622154e+00 -9.511092e-01 1.800895e+00 -1.624583e-04 1.247852e-05 -1.303972e-04
N -1.614494e+00 -9.535567e-01 6.956363e+00 -2.899944e-05 -1.206483e-05 -2.841951e-05
N -1.654165e+00 -9.303306e-01 -3.268354e+00 -5.778359e-05 1.679506e-05 -3.565108e-05
