108
Energy=-2.633887e+06 Lattice="9.627422e+00 0.000000e+00 0.000000e+00 -4.828316e+00 8.313582e+00 0.000000e+00 -2.013254e-01 -2.761517e-01 1.559773e+01" Stress="-2.066043e-02 1.205565e-03 -7.271450e-03 1.194969e-03 -1.818486e-02 -9.262784e-03 -7.290812e-03 -9.259702e-03 -1.858310e-02" Properties=species:S:1:pos:R:3:forces:R:3 Config_type=AlGaN_super3_48_1_4.xyz
Al 1.463381e+00 7.424958e-01 2.469796e+00 7.072631e-05 -1.516336e-03 -1.620231e-04
Ga 1.469130e+00 7.411284e-01 7.638008e+00 1.220896e-03 -4.209030e-03 1.188865e-03
Ga 1.667554e+00 1.020143e+00 -2.740137e+00 2.850375e-04 -5.755684e-03 -1.180515e-04
Al -1.343046e-01 3.492642e+00 2.459373e+00 2.681444e-04 1.428202e-03 6.482903e-04
Ga -1.334135e-01 3.499070e+00 7.645935e+00 1.077944e-04 -4.543327e-05 1.767877e-03
Ga 7.181111e-02 3.771326e+00 -2.742066e+00 -1.093442e-03 -5.111843e-04 2.554530e-04
Ga 3.094986e+00 -2.050272e+00 2.458932e+00 -6.011262e-05 1.250307e-03 4.414375e-04
Ga 3.092728e+00 -2.048288e+00 7.647245e+00 1.657978e-05 1.912751e-04 1.307202e-03
Ga 3.291088e+00 -1.772266e+00 -2.745319e+00 -8.893583e-04 -5.404213e-04 7.057830e-05
Ga -4.967601e+00 7.425159e-01 2.464771e+00 1.741232e-03 -1.495243e-03 -2.909504e-04
Ga -4.965124e+00 7.448762e-01 7.640924e+00 2.795599e-04 -4.176401e-03 8.514777e-04
Ga -4.763173e+00 1.025320e+00 -2.743953e+00 -1.805537e-05 -5.392692e-03 -7.089968e-04
Ga -6.573602e+00 3.494300e+00 2.459540e+00 8.374577e-04 2.532082e-03 2.026952e-03
Ga -6.562721e+00 3.500362e+00 7.635986e+00 -2.131917e-04 -2.755853e-04 1.951043e-03
Al -6.361425e+00 3.778412e+00 -2.754479e+00 -5.789350e-04 -4.165340e-04 6.572234e-04
Ga -3.319477e+00 -2.027877e+00 2.420657e+00 2.657539e-03 2.031065e-03 6.656146e-03
Ga -3.333465e+00 -2.044226e+00 7.646325e+00 1.539565e-04 2.258785e-04 1.532671e-03
Ga -3.129696e+00 -1.775231e+00 -2.752166e+00 -1.396642e-03 -4.305251e-04 -2.354977e-03
Al -1.747190e+00 7.530745e-01 2.474687e+00 3.706243e-03 1.874910e-03 -4.843152e-03
Ga -1.762360e+00 7.456994e-01 7.645706e+00 5.486295e-03 -2.833482e-03 -3.598486e-04
Ga -1.564403e+00 1.014477e+00 -2.723390e+00 5.258845e-03 -2.439312e-03 1.919149e-03
Ga -3.359076e+00 3.500452e+00 2.458945e+00 3.838984e-03 3.931514e-03 -2.028002e-04
Ga -3.364111e+00 3.507541e+00 7.651279e+00 4.359059e-03 1.756900e-03 4.910787e-04
Ga -3.169681e+00 3.780964e+00 -2.740134e+00 4.042986e-03 1.538857e-03 -7.163859e-04
Ga -1.349681e-01 -2.018284e+00 2.450853e+00 4.069819e-03 1.229308e-03 -3.769829e-04
Ga -1.378768e-01 -2.039400e+00 7.648364e+00 4.471351e-03 1.885546e-03 5.155480e-04
Ga 5.377092e-02 -1.770861e+00 -2.735875e+00 5.532103e-03 1.423137e-03 2.305904e-04
Ga -1.224641e-01 1.658112e+00 5.028908e+00 -3.987320e-03 -1.535698e-03 3.666757e-04
Ga 6.948460e-02 1.929072e+00 -5.345672e+00 -4.430170e-03 -1.734575e-03 1.152211e-03
Ga 7.108382e-02 1.922858e+00 -1.083471e-01 -1.241897e-02 -1.067393e-02 2.161535e-03
Ga 3.099739e+00 -3.893943e+00 5.046716e+00 -3.553883e-03 -1.869666e-03 4.364821e-04
Ga 3.297509e+00 -3.617905e+00 -5.344034e+00 -4.213531e-03 -1.465871e-03 4.284828e-04
Ga 3.301776e+00 -3.613699e+00 -1.350655e-01 -9.274907e-03 -9.873999e-03 2.767874e-03
Ga 1.500528e+00 -1.122147e+00 5.047382e+00 -5.284062e-03 4.118311e-03 -1.093317e-03
Ga 1.695726e+00 -8.537320e-01 -5.344230e+00 -5.277772e-03 3.214357e-03 -4.246593e-04
Ga 1.688296e+00 -8.487050e-01 -1.266833e-01 -1.088985e-02 -4.727699e-03 2.203072e-04
Al 3.064140e+00 1.658401e+00 5.040053e+00 -2.800011e-04 -2.729268e-04 1.257230e-03
Ga 3.266301e+00 1.937914e+00 -5.345384e+00 1.895604e-05 -7.469066e-04 1.819330e-03
Ga 3.267655e+00 1.942767e+00 -1.480931e-01 -5.446218e-03 -8.536588e-03 4.538623e-03
Ga 6.294366e+00 -3.892628e+00 5.037118e+00 -3.828150e-05 1.521937e-03 1.012739e-03
Ga 6.497820e+00 -3.617834e+00 -5.344454e+00 -3.267147e-04 4.835002e-04 1.294483e-03
Ga 6.500334e+00 -3.614047e+00 -1.559864e-01 -5.095316e-03 -1.106675e-02 4.763198e-03
Ga 4.692229e+00 -1.122203e+00 5.049849e+00 7.940354e-04 4.480987e-03 -3.420159e-04
Ga 4.893014e+00 -8.507771e-01 -5.347766e+00 -5.715008e-04 4.725645e-03 -8.821618e-05
Ga 4.899751e+00 -8.511009e-01 -1.491941e-01 -7.562226e-03 -1.097358e-03 2.268316e-03
Ga -3.364059e+00 1.661682e+00 5.043681e+00 4.822970e-04 -6.768338e-04 6.653182e-04
Ga -3.159226e+00 1.936899e+00 -5.347113e+00 3.034137e-04 -5.039085e-05 1.755143e-03
Ga -3.159226e+00 1.932873e+00 -1.254314e-01 -1.682965e-03 -8.019782e-03 2.240699e-03
Ga -1.369659e-01 -3.888867e+00 5.048425e+00 -6.080313e-05 8.114038e-04 5.035742e-04
Ga 6.238452e-02 -3.612132e+00 -5.342527e+00 8.223297e-04 6.880872e-04 1.583660e-03
Ga 5.880097e-02 -3.611300e+00 -1.518255e-01 -3.361945e-03 -7.128026e-03 3.107429e-03
Ga -1.733415e+00 -1.118190e+00 5.039675e+00 -1.417425e-03 4.934353e-03 1.025150e-03
Ga -1.533145e+00 -8.458614e-01 -5.347725e+00 -6.223969e-04 4.944090e-03 7.343140e-04
Al -1.569571e+00 -8.851451e-01 -1.553585e-01 3.986237e-03 7.742534e-03 8.538805e-03
N 1.496258e+00 7.555551e-01 4.399651e+00 6.887196e-03 -1.450845e-03 -4.530671e-03
N 1.668976e+00 1.016269e+00 -5.983312e+00 5.964878e-04 -4.963170e-03 -8.765996e-04
N 1.665197e+00 1.017390e+00 -7.725720e-01 -1.818939e-03 -6.662243e-03 1.312681e-05
N -1.325783e-01 3.506069e+00 4.384841e+00 -5.098436e-04 8.150363e-05 -8.053350e-03
N 6.823278e-02 3.776682e+00 -5.978063e+00 -3.216214e-04 -1.436172e-04 -1.598952e-03
N 6.737005e-02 3.771728e+00 -7.739934e-01 -2.661885e-03 -2.693636e-03 -5.076433e-04
N 3.095235e+00 -2.046839e+00 4.420925e+00 -2.339528e-04 5.264035e-04 -7.477828e-04
N 3.292995e+00 -1.771400e+00 -5.979457e+00 -4.577030e-04 -1.905374e-05 -1.580277e-03
N 3.290661e+00 -1.767019e+00 -7.787797e-01 -3.319813e-03 -1.949717e-03 9.975717e-05
N -4.989764e+00 7.565529e-01 4.432863e+00 -4.527072e-03 -4.407713e-04 3.010701e-03
N -4.762949e+00 1.019765e+00 -5.981825e+00 7.070836e-04 -4.676894e-03 -6.490950e-04
N -4.759374e+00 1.021153e+00 -7.787387e-01 -1.682240e-03 -6.567535e-03 1.273211e-03
N -6.562097e+00 3.475038e+00 4.430059e+00 1.004517e-03 -6.664182e-03 2.076163e-03
N -6.360773e+00 3.779046e+00 -5.988212e+00 -7.499039e-05 5.022480e-05 -1.736626e-03
N -6.360386e+00 3.780574e+00 -8.254202e-01 -3.131253e-03 -2.283642e-03 -6.333084e-03
N -3.332107e+00 -2.038972e+00 4.402999e+00 -1.228734e-04 2.591109e-04 -1.176765e-03
N -3.133505e+00 -1.769440e+00 -5.978753e+00 -2.234249e-04 -3.520185e-05 -1.235118e-03
N -3.118616e+00 -1.764036e+00 -7.903543e-01 1.936799e-03 1.223480e-03 6.415168e-03
N -1.762102e+00 7.474809e-01 4.391479e+00 5.072805e-03 -2.221278e-03 -5.119165e-03
N -1.561693e+00 1.021707e+00 -5.981516e+00 5.080258e-03 -3.078372e-03 6.942323e-05
N -1.568019e+00 9.774376e-01 -7.376184e-01 4.553316e-03 -1.112987e-02 -1.060043e-03
N -3.363870e+00 3.510337e+00 4.421410e+00 4.822480e-03 2.244991e-03 4.692499e-04
N -3.163663e+00 3.785174e+00 -5.974892e+00 4.061491e-03 1.635294e-03 -5.019566e-04
N -3.159742e+00 3.783796e+00 -7.739321e-01 1.813353e-03 -3.923896e-04 1.732242e-03
N -1.358954e-01 -2.036458e+00 4.417666e+00 5.396760e-03 1.418922e-03 -3.696949e-05
N 6.344135e-02 -1.764553e+00 -5.977507e+00 4.496516e-03 1.387395e-03 -6.541538e-04
N 2.782712e-02 -1.755445e+00 -7.601859e-01 -2.979317e-03 5.028989e-03 2.338283e-03
N -1.333806e-01 1.653014e+00 1.883703e+00 6.746630e-03 8.911118e-03 1.706981e-03
N -1.293141e-01 1.656304e+00 7.004529e+00 -4.768471e-03 -2.131768e-03 -9.279838e-04
N 6.719240e-02 1.927170e+00 -3.372692e+00 -5.328064e-03 -2.314528e-03 -1.074615e-03
N 3.122271e+00 -3.912496e+00 1.838357e+00 8.614962e-03 3.185475e-03 -1.211276e-03
N 3.097661e+00 -3.894979e+00 7.016560e+00 -4.723053e-03 -1.679030e-03 -3.977806e-04
N 3.296863e+00 -3.620092e+00 -3.375446e+00 -4.406586e-03 -1.978540e-03 3.076047e-04
N 1.501428e+00 -1.093864e+00 1.844769e+00 2.261287e-03 1.634507e-02 3.650548e-04
N 1.496117e+00 -1.128342e+00 7.015360e+00 -5.421877e-03 2.660023e-03 6.152126e-04
N 1.692689e+00 -8.547716e-01 -3.373753e+00 -6.176925e-03 3.032383e-03 1.219182e-03
N 3.036050e+00 1.640475e+00 1.829139e+00 1.866336e-03 4.393876e-03 -3.143862e-03
N 3.066303e+00 1.659071e+00 6.976242e+00 -8.838085e-05 -7.082710e-04 -9.072183e-03
N 3.266848e+00 1.965373e+00 -3.369081e+00 -2.049995e-04 6.288860e-03 1.218926e-03
N 6.269413e+00 -3.906887e+00 1.824066e+00 1.456346e-03 6.557333e-03 -3.024656e-03
N 6.291913e+00 -3.889204e+00 7.010534e+00 -2.015439e-05 -9.124100e-05 -1.624676e-03
N 6.520368e+00 -3.632145e+00 -3.369619e+00 5.934350e-03 -3.577067e-03 2.051360e-03
N 4.690486e+00 -1.122735e+00 1.811712e+00 7.434285e-03 1.096616e-02 -2.461180e-03
N 4.694545e+00 -1.126396e+00 7.018251e+00 -9.768387e-04 4.481557e-03 -2.790672e-04
N 4.893999e+00 -8.510129e-01 -3.378900e+00 -5.051885e-04 4.763078e-03 1.097764e-03
N -3.332018e+00 1.640550e+00 1.846828e+00 1.105273e-02 4.226784e-03 -8.548496e-04
N -3.359490e+00 1.662455e+00 7.014362e+00 2.491744e-04 -2.118515e-04 -1.491741e-03
N -3.157563e+00 1.935555e+00 -3.372997e+00 7.524072e-04 -4.354937e-04 -2.128819e-03
N -1.397981e-01 -3.886061e+00 1.818917e+00 6.420373e-03 7.740725e-03 -3.002731e-03
N -1.335846e-01 -3.885975e+00 7.016951e+00 4.679885e-04 2.522968e-04 -1.234567e-03
N 3.870773e-02 -3.626919e+00 -3.364825e+00 -5.510304e-03 -3.334457e-03 1.151258e-03
N -1.703494e+00 -1.042811e+00 1.814041e+00 -3.106788e-03 5.122585e-03 -1.284957e-02
N -1.734349e+00 -1.121571e+00 7.012461e+00 -4.702998e-04 4.613882e-03 -6.365149e-04
N -1.534518e+00 -8.479880e-01 -3.378316e+00 -6.789515e-04 4.987830e-03 -4.871318e-04
