108
Energy=-894419.056620 Lattice="9.451392 0.000000 0.000000 -4.727215 8.179630 0.000000 -0.001470 0.000097 15.210334" Stress="0.000003 -0.000001 -0.000000 -0.000001 -0.000001 -0.000000 -0.000000 -0.000000 0.000009" Properties=species:S:1:pos:R:3:forces:R:3
Al 1.558613 0.871283 2.414032 0.000142 -0.000057 -0.000012
Al 1.551082 0.870055 7.457248 0.000040 -0.000009 -0.000033
Al 1.551132 0.865628 -2.718184 0.000014 0.000028 -0.000001
Al -0.023933 3.603313 2.405077 -0.000056 0.000176 0.000015
Al -0.018908 3.593112 7.434639 -0.000002 -0.000040 0.000003
Al -0.010504 3.588656 -2.682979 -0.000023 0.000149 -0.000203
Al 3.131114 -1.858339 2.383413 -0.000235 0.000170 -0.000097
Al 3.121156 -1.854619 7.454655 -0.000043 0.000025 -0.000053
Al 3.124957 -1.841421 -2.678313 0.000009 -0.000122 0.000000
Al -4.755428 0.866747 2.399183 -0.000280 -0.000030 0.000067
Al -4.756652 0.873655 7.473226 -0.000124 -0.000000 0.000038
Al -4.756372 0.864579 -2.711007 -0.000063 -0.000071 -0.000032
Al -6.328624 3.593015 2.408335 -0.000012 -0.000149 -0.000054
Al -6.325882 3.595978 7.450095 -0.000006 -0.000002 -0.000035
Al -6.330412 3.594775 -2.702338 0.000020 0.000080 -0.000145
Al -3.174381 -1.857935 2.375497 -0.000019 0.000119 -0.000042
Al -3.173368 -1.864336 7.460120 -0.000024 0.000061 0.000037
Ga -3.182470 -1.863952 -2.675728 -0.000050 -0.000059 0.000073
Al -1.596587 0.866111 2.411791 0.000178 -0.000076 0.000185
Al -1.591395 0.873801 7.453971 0.000037 -0.000036 0.000016
Al -1.589216 0.875272 -2.700642 0.000038 0.000111 0.000352
Al -3.169165 3.603997 2.389519 0.000146 -0.000141 -0.000056
Al -3.178884 3.600939 7.461546 -0.000039 0.000025 0.000124
Ga -3.180864 3.596571 -2.686439 0.000072 -0.000021 -0.000031
Ga -0.023021 -1.852393 2.399706 0.000066 0.000017 -0.000029
Al -0.016001 -1.859692 7.437282 0.000017 -0.000016 -0.000085
Al -0.010387 -1.855098 -2.675646 -0.000015 0.000037 0.000041
Al -0.013000 1.777359 4.922990 0.000219 0.000075 0.000026
Al -0.013131 1.782838 -5.229465 -0.000002 -0.000113 0.000080
Ga -0.019156 1.777235 -0.136579 -0.000045 -0.000003 -0.000068
Al 3.125026 -3.671851 4.927793 0.000088 0.000160 0.000004
Ga 3.137617 -3.671644 -5.229296 -0.000014 0.000020 0.000037
Al 3.137601 -3.657093 -0.143093 0.000232 0.000067 0.000000
Al 1.550827 -0.943803 4.936218 0.000069 0.000090 -0.000001
Al 1.556068 -0.945193 -5.227894 -0.000035 -0.000012 -0.000021
Al 1.557218 -0.957934 -0.156487 -0.000061 0.000056 0.000037
Al 3.112467 1.785820 4.934045 0.000008 -0.000070 -0.000044
Al 3.126675 1.781991 -5.229640 0.000017 0.000031 -0.000077
Ga 3.124509 1.780074 -0.151541 -0.000014 -0.000088 0.000023
Al 6.284359 -3.678303 4.920923 -0.000021 0.000051 -0.000042
Al 6.282908 -3.689211 -5.237454 0.000191 -0.000021 0.000254
Al 6.281801 -3.671834 -0.130824 -0.000292 0.000443 -0.000124
Ga 4.700060 -0.958494 4.928582 -0.000057 -0.000015 -0.000045
Al 4.693213 -0.942031 -5.236986 0.000211 0.000065 0.000075
Al 4.695811 -0.958419 -0.133213 0.000302 -0.000278 -0.000057
Ga -3.171063 1.788060 4.930394 -0.000028 -0.000038 -0.000038
Al -3.180628 1.774913 -5.238116 0.000025 -0.000102 -0.000003
Ga -3.172859 1.768729 -0.125781 0.000071 -0.000006 -0.000089
Al -0.026787 -3.674325 4.935274 0.000035 0.000039 -0.000029
Al -0.032263 -3.675860 -5.235961 0.000071 0.000132 -0.000361
Al -0.032408 -3.662871 -0.142289 0.000370 0.000168 0.000165
Al -1.593308 -0.954653 4.944502 0.000051 -0.000004 -0.000002
Ga -1.588498 -0.950048 -5.230628 -0.000022 -0.000041 -0.000046
Al -1.593740 -0.955421 -0.152368 -0.000118 -0.000179 -0.000202
N 1.554177 0.866576 4.330781 0.000067 0.000049 0.000033
N 1.552563 0.869296 -5.826343 0.000050 0.000006 0.000045
N 1.550758 0.822690 -0.807420 0.000000 0.000015 -0.000060
N -0.025745 3.601095 4.328830 0.000033 0.000085 0.000061
N 0.019706 3.570622 -5.864263 -0.000159 0.000046 -0.000244
N -0.017259 3.641701 -0.764850 0.000168 0.000018 0.000240
N 3.083328 -1.879390 4.299148 -0.000019 -0.000193 -0.000059
N 3.123461 -1.809772 -5.852003 -0.000109 -0.000073 -0.000008
N 3.130409 -1.852837 -0.753869 0.000018 -0.000001 0.000052
N -4.794184 0.892065 4.299445 0.000043 0.000049 0.000009
N -4.754145 0.872476 -5.823922 0.000034 -0.000007 0.000032
N -4.747662 0.819523 -0.795442 -0.000034 0.000178 0.000021
N -6.323753 3.597204 4.328150 0.000003 0.000011 0.000045
N -6.324152 3.594902 -5.840761 0.000022 -0.000001 0.000002
N -6.327128 3.646148 -0.781740 -0.000064 -0.000255 -0.000046
N -3.128173 -1.878925 4.296020 -0.000038 -0.000070 -0.000026
N -3.211949 -1.884287 -5.837772 -0.000096 0.000132 -0.000170
N -3.177584 -1.860054 -0.692360 -0.000213 -0.000058 0.000200
N -1.555632 0.840521 4.321805 -0.000325 -0.000177 -0.000168
N -1.591277 0.918740 -5.846528 -0.000047 0.000009 -0.000165
N -1.596579 0.828781 -0.792146 -0.000021 0.000160 -0.000299
N -3.175232 3.650189 4.303531 -0.000093 0.000079 0.000114
N -3.214276 3.577482 -5.836191 -0.000024 0.000078 -0.000158
N -3.174511 3.641996 -0.709938 -0.000413 -0.000075 0.000042
N -0.022523 -1.855179 4.381182 -0.000029 -0.000218 0.000002
N 0.024600 -1.880277 -5.861931 -0.000031 -0.000171 0.000143
N -0.018173 -1.858584 -0.749076 0.000072 -0.000073 -0.000019
N -0.020439 1.779577 1.847632 0.000047 -0.000202 -0.000090
N -0.019634 1.775655 6.840661 -0.000019 0.000055 0.000092
N -0.022745 1.783436 -3.305042 -0.000011 0.000011 0.000044
N 3.135238 -3.673662 1.780752 -0.000023 0.000072 0.000051
N 3.125555 -3.674120 6.852506 0.000008 0.000013 0.000072
N 3.173622 -3.648856 -3.256892 0.000040 0.000017 0.000072
N 1.592082 -0.919171 1.761786 0.000284 -0.000164 0.000128
N 1.556652 -0.942898 6.848639 -0.000071 0.000059 0.000036
N 1.552356 -0.955453 -3.302952 -0.000033 0.000038 0.000027
N 3.123762 1.780743 1.830310 0.000054 0.000013 0.000099
N 3.125123 1.777828 6.855915 -0.000014 0.000034 0.000042
N 3.127559 1.782021 -3.304892 -0.000003 0.000024 0.000070
N 6.280441 -3.682797 1.792251 0.000036 0.000030 0.000061
N 6.281480 -3.673366 6.839156 -0.000015 0.000007 0.000059
N 6.277212 -3.722555 -3.323524 -0.000044 -0.000081 -0.000014
N 4.700283 -0.946398 1.789902 -0.000048 -0.000005 0.000037
N 4.703488 -0.946916 6.903596 0.000131 -0.000173 -0.000022
N 4.661016 -0.930679 -3.322368 -0.000036 0.000030 -0.000068
N -3.171240 1.774886 1.854479 -0.000144 0.000199 -0.000122
N -3.176972 1.778510 6.906505 0.000171 0.000044 0.000016
N -3.173421 1.731751 -3.320692 0.000116 0.000030 0.000043
N -0.029548 -3.719896 1.772682 -0.000174 -0.000005 -0.000226
N -0.023583 -3.680678 6.849568 0.000014 -0.000005 0.000022
N -0.065718 -3.646566 -3.319905 -0.000039 -0.000082 0.000263
N -1.633624 -0.920061 1.760936 0.000015 -0.000059 0.000205
N -1.602660 -0.948108 6.864093 -0.000075 0.000007 0.000039
N -1.555467 -0.931023 -3.258804 0.000002 -0.000051 -0.000052
