108
Energy=-7.570926e+05 Lattice="9.433993e+00 0.000000e+00 0.000000e+00 -4.718431e+00 8.169078e+00 0.000000e+00 -2.446599e-03 -1.484308e-03 1.515293e+01" Stress="-4.454028e-05 -4.606225e-05 -3.584424e-05 -5.224658e-05 -1.471696e-04 -2.989650e-05 -3.406726e-05 -3.452518e-05 -1.072301e-04" Properties=species:S:1:pos:R:3:forces:R:3 Config_type=AlGaN_super3_7_1_24.xyz
Al 1.550014e+00 8.785245e-01 2.387206e+00 -6.790789e-05 8.499543e-06 2.307480e-05
Al 1.552615e+00 8.764373e-01 7.422782e+00 2.832872e-06 -1.882073e-05 1.359970e-04
Al 1.553827e+00 8.833676e-01 -2.683643e+00 -1.584945e-05 -7.560264e-06 3.756678e-05
Al -2.147476e-02 3.591336e+00 2.376821e+00 -3.123928e-06 -6.272340e-05 4.320656e-05
Al -2.289671e-02 3.589685e+00 7.420730e+00 -4.465500e-05 3.192102e-05 1.039472e-04
Al -1.382205e-02 3.591014e+00 -2.678372e+00 -4.068641e-05 -5.090670e-05 7.967813e-05
Al 3.127742e+00 -1.861830e+00 2.381988e+00 7.805002e-05 -3.004074e-05 -1.380773e-04
Al 3.124405e+00 -1.859306e+00 7.433346e+00 5.081076e-05 3.185273e-06 -3.611865e-05
Al 3.142475e+00 -1.850247e+00 -2.682715e+00 -8.605039e-05 -5.909192e-05 -2.363918e-05
Al -4.747005e+00 8.690124e-01 2.354646e+00 1.077708e-04 3.747355e-05 -2.957815e-05
Al -4.753615e+00 8.689401e-01 7.439652e+00 9.934664e-05 1.247446e-05 -3.908131e-05
Al -4.752186e+00 8.573419e-01 -2.664844e+00 6.927301e-05 4.006594e-05 -1.557856e-05
Al -6.319264e+00 3.588338e+00 2.378116e+00 1.010330e-05 -8.773014e-06 -1.614532e-04
Al -6.320347e+00 3.582347e+00 7.419790e+00 6.383329e-05 1.005002e-04 7.915354e-05
Al -6.325377e+00 3.584565e+00 -2.671004e+00 2.150401e-05 3.642240e-05 4.994971e-06
Al -3.164854e+00 -1.860149e+00 2.363424e+00 -8.518285e-05 2.240463e-05 -8.323085e-05
Al -3.170004e+00 -1.859572e+00 7.436528e+00 -5.398198e-05 -6.644103e-05 8.783711e-05
Al -3.175911e+00 -1.853868e+00 -2.674459e+00 -2.738079e-05 -8.002176e-05 -1.953866e-05
Al -1.591097e+00 8.673475e-01 2.366415e+00 1.394850e-04 -8.707910e-05 -3.883096e-05
Al -1.589637e+00 8.696067e-01 7.423478e+00 1.631814e-04 2.384737e-05 6.400967e-05
Al -1.587104e+00 8.672880e-01 -2.658071e+00 7.695035e-05 6.874683e-05 -5.245286e-05
Al -3.165917e+00 3.595092e+00 2.362972e+00 5.372292e-05 -1.494887e-04 -1.269702e-04
Al -3.164221e+00 3.595572e+00 7.426355e+00 7.191908e-05 6.008525e-05 1.700533e-04
Ga -3.162953e+00 3.594588e+00 -2.653452e+00 1.650672e-04 -5.495856e-05 -4.845659e-05
Al -2.999286e-02 -1.856988e+00 2.390732e+00 -2.965342e-05 7.636634e-05 -1.437132e-04
Ga -2.412532e-02 -1.853391e+00 7.426317e+00 2.401351e-04 -1.099289e-05 -3.172817e-05
Ga -3.036591e-02 -1.848334e+00 -2.678974e+00 2.954677e-04 -9.463083e-05 -8.508253e-05
Al -1.508681e-02 1.777037e+00 4.897398e+00 -1.862931e-04 2.011170e-04 2.011509e-04
Al -1.374052e-02 1.777129e+00 -5.204731e+00 4.895670e-05 1.582895e-04 2.448354e-07
Al -2.359146e-02 1.785461e+00 -1.463672e-01 -1.209094e-04 6.538759e-05 2.907985e-04
Al 3.123519e+00 -3.672305e+00 4.900019e+00 -3.044724e-05 8.016250e-05 -3.773357e-05
Al 3.133461e+00 -3.660743e+00 -5.210355e+00 -7.209127e-05 4.678926e-05 -1.004448e-04
Al 3.138238e+00 -3.672692e+00 -1.372511e-01 -1.678498e-04 -1.800952e-04 3.743568e-04
Al 1.546702e+00 -9.445663e-01 4.887720e+00 -1.515567e-04 2.145980e-04 -1.042157e-04
Al 1.561579e+00 -9.392003e-01 -5.200154e+00 9.055360e-05 1.309528e-04 -2.831044e-05
Ga 1.558531e+00 -9.424843e-01 -1.336771e-01 -3.146477e-04 2.860239e-04 4.439137e-04
Al 3.106780e+00 1.784118e+00 4.901794e+00 9.315538e-05 9.566900e-06 -3.175324e-05
Al 3.112274e+00 1.780563e+00 -5.199422e+00 7.093349e-06 4.171652e-05 1.852606e-05
Al 3.122550e+00 1.785458e+00 -1.502732e-01 -1.643609e-04 -4.443171e-06 1.066247e-04
Al 6.269838e+00 -3.677048e+00 4.898693e+00 1.600991e-05 5.496527e-05 7.159264e-05
Al 6.269619e+00 -3.670857e+00 -5.203553e+00 5.560721e-05 2.236205e-05 1.362591e-04
Al 6.266827e+00 -3.671666e+00 -1.529258e-01 5.564098e-05 -1.443835e-05 1.135130e-04
Ga 4.693359e+00 -9.562584e-01 4.906579e+00 -8.953650e-05 1.385315e-04 6.677979e-05
Al 4.692053e+00 -9.543776e-01 -5.202423e+00 -1.090724e-04 6.400131e-05 -7.796810e-05
Al 4.703659e+00 -9.500322e-01 -1.480247e-01 -1.459529e-04 6.521543e-05 -7.731411e-05
Ga -3.165623e+00 1.783644e+00 4.903533e+00 -9.258619e-05 8.503391e-05 4.483107e-06
Ga -3.164713e+00 1.773379e+00 -5.201752e+00 -4.314582e-05 4.571291e-05 1.068090e-04
Al -3.166949e+00 1.768797e+00 -1.408512e-01 -7.422163e-05 8.389791e-05 3.409274e-04
Al -2.901366e-02 -3.669623e+00 4.887185e+00 7.699543e-06 -3.676351e-07 8.334385e-05
Al -3.033624e-02 -3.671383e+00 -5.210463e+00 -1.094769e-04 -2.518399e-04 1.507213e-04
Al -3.578034e-02 -3.678690e+00 -1.200339e-01 9.907362e-05 -1.692196e-04 2.578661e-04
Al -1.589561e+00 -9.525658e-01 4.889712e+00 -2.913494e-04 1.009914e-04 4.369795e-05
Al -1.599318e+00 -9.460833e-01 -5.195498e+00 4.515318e-05 5.265637e-05 -1.348501e-04
Al -1.607538e+00 -9.446382e-01 -1.363529e-01 -4.809276e-05 8.140932e-06 8.350944e-05
N 1.548367e+00 8.745193e-01 4.302012e+00 1.319650e-04 -1.420558e-04 -1.033894e-04
N 1.550617e+00 8.723226e-01 -5.807346e+00 2.309651e-05 -1.701768e-04 -3.312743e-05
N 1.548690e+00 9.184220e-01 -7.706373e-01 6.284648e-05 -1.683963e-04 -1.004677e-04
N -2.325511e-02 3.591614e+00 4.300346e+00 1.993629e-05 -1.340954e-04 -7.032758e-05
N -1.945053e-02 3.591129e+00 -5.808953e+00 5.402908e-05 -1.418994e-04 -1.007839e-04
N -2.214901e-02 3.591187e+00 -7.561427e-01 -5.643115e-06 -1.251506e-05 -1.146254e-05
N 3.086452e+00 -1.882009e+00 4.286122e+00 -1.785513e-04 -1.257409e-04 -3.723809e-07
N 3.122130e+00 -1.854101e+00 -5.804529e+00 -4.093618e-06 -3.163238e-05 3.843313e-05
N 3.165573e+00 -1.879305e+00 -7.684308e-01 1.457676e-04 -1.096866e-04 -1.402359e-04
N -4.784600e+00 8.914610e-01 4.261294e+00 -1.044239e-04 -1.909774e-05 3.884310e-05
N -4.786681e+00 8.468977e-01 -5.807533e+00 6.230734e-07 -6.228084e-05 -3.478104e-05
N -4.744274e+00 8.660352e-01 -7.418325e-01 9.683380e-05 -2.638739e-05 1.155975e-04
N -6.318352e+00 3.589064e+00 4.295930e+00 1.692241e-05 -3.091485e-05 2.330360e-05
N -6.315871e+00 3.590388e+00 -5.813521e+00 -1.359396e-04 -9.952039e-05 -9.072001e-05
N -6.312296e+00 3.593146e+00 -7.512554e-01 -3.227797e-05 3.296237e-05 1.249510e-04
N -3.128416e+00 -1.881962e+00 4.274539e+00 2.559235e-04 -1.457629e-04 -1.818433e-04
N -3.163828e+00 -1.856747e+00 -5.798298e+00 -3.879401e-06 -7.703864e-05 2.819864e-05
N -3.166056e+00 -1.855643e+00 -7.513520e-01 1.907596e-05 -1.511022e-05 1.530431e-04
N -1.555482e+00 8.479376e-01 4.278932e+00 6.316461e-04 -3.418845e-04 -1.423806e-04
N -1.547370e+00 8.451718e-01 -5.822609e+00 8.907497e-05 -2.176395e-04 -1.448032e-04
N -1.590459e+00 8.676685e-01 -7.388487e-01 1.939512e-04 -6.484133e-05 1.933468e-04
N -3.166562e+00 3.639206e+00 4.275279e+00 1.299295e-05 1.083856e-05 -1.709454e-05
N -3.164843e+00 3.643375e+00 -5.816265e+00 1.983825e-04 -4.550461e-05 -2.037692e-04
N -3.168321e+00 3.597279e+00 -6.768232e-01 4.121154e-05 -5.187576e-05 2.908204e-04
N -2.589272e-02 -1.855523e+00 4.307887e+00 1.900849e-04 -1.242401e-04 8.280438e-05
N -2.019872e-02 -1.850367e+00 -5.746147e+00 -1.290931e-04 3.991092e-04 -4.450657e-05
N -6.280491e-02 -1.878950e+00 -7.086363e-01 -2.614505e-05 1.822743e-05 1.618086e-04
N -1.960544e-02 1.778158e+00 1.773387e+00 -1.033901e-04 1.410634e-04 -3.312732e-04
N -2.172014e-02 1.776525e+00 6.818070e+00 -6.449690e-05 7.205506e-05 -5.411997e-05
N -2.496298e-02 1.777172e+00 -3.280702e+00 -8.468687e-05 8.086443e-05 1.941096e-05
N 3.130834e+00 -3.669915e+00 1.775669e+00 1.775992e-05 1.424579e-04 -2.954596e-04
N 3.124386e+00 -3.670966e+00 6.821427e+00 -3.206092e-05 7.998015e-05 2.517731e-07
N 3.166029e+00 -3.648716e+00 -3.297547e+00 -2.614762e-05 1.685715e-04 1.737164e-04
N 1.551339e+00 -9.443840e-01 1.842802e+00 -7.227600e-05 -2.450295e-05 -4.405642e-04
N 1.592779e+00 -9.226599e-01 6.804528e+00 -1.063577e-04 7.798978e-05 7.030122e-05
N 1.596855e+00 -9.197809e-01 -3.285660e+00 -5.809800e-05 -2.512582e-05 1.736019e-04
N 3.115086e+00 1.778836e+00 1.765529e+00 1.245908e-04 -3.735380e-05 -1.388758e-04
N 3.119615e+00 1.776237e+00 6.819245e+00 1.563509e-05 -1.311748e-04 -9.367447e-05
N 3.123966e+00 1.779751e+00 -3.278185e+00 2.052287e-05 -8.579747e-05 -1.383709e-05
N 6.265708e+00 -3.674324e+00 1.767461e+00 4.362883e-05 4.920788e-05 -1.309301e-04
N 6.266028e+00 -3.669375e+00 6.822173e+00 -9.563693e-06 1.656002e-06 -9.438331e-05
N 6.268936e+00 -3.669063e+00 -3.277465e+00 5.660438e-05 3.827728e-06 -2.214990e-05
N 4.694255e+00 -9.513888e-01 1.770438e+00 -5.047700e-06 2.591266e-05 1.726544e-04
N 4.695381e+00 -9.490445e-01 6.880614e+00 1.490651e-05 1.634674e-04 8.892971e-05
N 4.698408e+00 -9.452684e-01 -3.281298e+00 2.159874e-05 1.263569e-04 -2.002469e-05
N -3.166484e+00 1.772332e+00 1.777772e+00 8.867106e-07 4.363163e-05 -3.341536e-04
N -3.170773e+00 1.775194e+00 6.884654e+00 -1.669079e-04 -1.930794e-04 2.219372e-05
N -3.167579e+00 1.729172e+00 -3.228991e+00 -5.706425e-05 -6.099814e-05 8.755395e-05
N -3.083100e-02 -3.670737e+00 1.792542e+00 1.195921e-04 1.271843e-04 -1.765182e-04
N -2.512625e-02 -3.718990e+00 6.802220e+00 -9.666874e-05 -5.001279e-05 -3.051377e-04
N -6.309835e-02 -3.699432e+00 -3.309144e+00 -1.482147e-04 -5.528490e-05 3.100390e-06
N -1.595522e+00 -9.475907e-01 1.777128e+00 -1.021351e-04 1.233877e-04 -1.924825e-04
N -1.640100e+00 -9.256138e-01 6.801626e+00 -1.997662e-04 8.108569e-05 -2.019009e-04
N -1.641524e+00 -9.175123e-01 -3.288592e+00 -2.294943e-04 -2.438271e-05 1.441691e-04
