108
Energy=-1.077521e+06 Lattice="9.473505e+00 0.000000e+00 0.000000e+00 -4.740062e+00 8.201565e+00 0.000000e+00 -1.108348e-02 1.201604e-02 1.525356e+01" Stress="1.647200e-04 -2.487095e-06 -4.738870e-04 -1.556216e-06 -7.788898e-06 5.462726e-04 -4.670096e-04 5.444917e-04 7.563645e-05" Properties=species:S:1:pos:R:3:forces:R:3 Config_type=AlGaN_super3_14_0_15.xyz
Al 1.555432e+00 8.692195e-01 2.406703e+00 1.135890e-03 -6.314396e-04 6.945446e-04
Al 1.548903e+00 8.814577e-01 7.460560e+00 2.470948e-07 -7.053286e-04 2.652793e-04
Al 1.545454e+00 8.561382e-01 -2.689098e+00 1.603111e-04 -4.615582e-05 -9.179193e-04
Al -2.464511e-02 3.603948e+00 2.402860e+00 2.052097e-05 -2.310125e-04 7.794029e-04
Al -2.348527e-02 3.604081e+00 7.484464e+00 -9.021439e-05 -2.688346e-04 4.272075e-04
Al -2.147377e-02 3.611493e+00 -2.715846e+00 1.155591e-04 -2.840137e-04 3.466327e-04
Al 3.120879e+00 -1.860392e+00 2.397496e+00 8.947282e-04 4.404175e-04 3.996667e-04
Al 3.136686e+00 -1.847574e+00 7.486860e+00 5.940047e-04 -4.787199e-04 2.824240e-04
Al 3.133519e+00 -1.869749e+00 -2.711408e+00 8.458508e-05 -1.839760e-04 3.890239e-04
Al -4.770144e+00 8.849110e-01 2.403391e+00 7.747538e-05 -1.190408e-03 -9.402649e-05
Al -4.767649e+00 8.689657e-01 7.473746e+00 4.383448e-05 1.406773e-05 5.369724e-05
Ga -4.751901e+00 8.619545e-01 -2.692814e+00 4.124636e-04 -2.147040e-04 8.765684e-05
Al -6.350564e+00 3.598143e+00 2.410532e+00 1.680575e-03 4.217813e-04 -6.263614e-04
Al -6.350715e+00 3.605852e+00 7.450752e+00 8.129041e-05 1.358632e-04 3.300786e-04
Ga -6.365190e+00 3.609274e+00 -2.676660e+00 5.497379e-05 -9.851326e-07 2.590557e-04
Ga -3.185229e+00 -1.871556e+00 2.416109e+00 -2.736347e-04 3.332238e-04 8.254308e-05
Al -3.201413e+00 -1.860722e+00 7.482089e+00 2.035454e-04 3.302089e-04 2.208589e-04
Al -3.176927e+00 -1.868842e+00 -2.718694e+00 1.089903e-04 -4.972278e-04 1.671685e-06
Al -1.598006e+00 8.875239e-01 2.404792e+00 6.671972e-05 -1.405888e-04 1.081375e-04
Al -1.600298e+00 8.922547e-01 7.500205e+00 -1.822970e-04 -7.971009e-04 -2.502307e-05
Al -1.594402e+00 8.690383e-01 -2.716996e+00 1.508411e-04 -2.768413e-04 -1.437699e-03
Al -3.176205e+00 3.608540e+00 2.388443e+00 -2.125743e-04 -7.656283e-05 -5.826809e-04
Al -3.185600e+00 3.606759e+00 7.486458e+00 7.985059e-05 1.571464e-04 5.218755e-05
Ga -3.154244e+00 3.601787e+00 -2.684239e+00 3.056582e-04 -3.283819e-04 4.077688e-04
Al -2.601463e-03 -1.855837e+00 2.413106e+00 8.024399e-05 -3.708680e-04 3.013308e-04
Ga -1.710168e-02 -1.853616e+00 7.479952e+00 -4.000391e-06 -6.699761e-05 7.187989e-04
Al -1.476182e-02 -1.836659e+00 -2.708998e+00 7.488840e-05 -1.395202e-04 -1.223844e-04
Al -1.027953e-02 1.789483e+00 4.938883e+00 -3.912682e-04 -5.710658e-04 -2.203508e-04
Al -2.314826e-02 1.777483e+00 -5.236684e+00 6.432598e-05 4.641060e-04 7.195319e-04
Ga -1.950462e-02 1.792331e+00 -1.542167e-01 1.291504e-04 3.485787e-04 4.549090e-04
Ga 3.140625e+00 -3.671801e+00 4.946554e+00 -1.331429e-04 2.584258e-04 3.449682e-04
Al 3.153252e+00 -3.687163e+00 -5.257358e+00 -1.956263e-04 3.731290e-04 3.224842e-04
Al 3.148813e+00 -3.680832e+00 -1.389233e-01 -2.307605e-04 3.461524e-04 -1.448905e-04
Al 1.565868e+00 -9.382002e-01 4.932257e+00 -2.392935e-04 1.754227e-04 9.672575e-05
Al 1.568659e+00 -9.464280e-01 -5.231593e+00 -2.845405e-04 -4.954659e-04 1.639166e-04
Al 1.568056e+00 -9.518407e-01 -1.490224e-01 -3.032287e-04 1.352900e-04 -1.617616e-04
Al 3.119920e+00 1.784031e+00 4.937067e+00 7.317278e-05 -2.605700e-05 2.713084e-04
Ga 3.127180e+00 1.769781e+00 -5.263167e+00 -4.761322e-05 -3.824164e-05 6.804543e-04
Al 3.126758e+00 1.779114e+00 -1.199148e-01 -4.774611e-05 -2.429755e-05 -3.277287e-04
Al 6.292653e+00 -3.696795e+00 4.955153e+00 -2.830058e-04 8.142901e-04 1.642534e-04
Al 6.283085e+00 -3.680409e+00 -5.256802e+00 1.117897e-05 -2.183651e-04 3.066387e-04
Al 6.281139e+00 -3.692284e+00 -1.430479e-01 2.033973e-04 1.056688e-04 -4.467440e-04
Al 4.693423e+00 -9.444300e-01 4.950215e+00 -4.934342e-04 7.388178e-05 2.299287e-04
Al 4.720507e+00 -9.666285e-01 -5.245089e+00 -3.591843e-04 -7.514405e-05 2.466282e-04
Ga 4.703319e+00 -9.587322e-01 -1.518480e-01 -1.392350e-04 1.139093e-04 -6.324191e-04
Ga -3.192960e+00 1.788217e+00 4.947930e+00 8.891719e-05 -2.219064e-04 4.535461e-04
Al -3.164781e+00 1.770614e+00 -5.266068e+00 -3.186713e-04 3.471470e-04 4.847185e-04
Al -3.179683e+00 1.785251e+00 -1.195401e-01 -2.628659e-04 2.297689e-04 -6.457859e-04
Al -3.034781e-02 -3.686385e+00 4.925302e+00 1.313097e-04 3.761034e-04 1.040668e-04
Ga -1.642652e-02 -3.686447e+00 -5.235595e+00 8.093411e-05 -1.949398e-04 5.821635e-04
Ga -1.915244e-02 -3.679066e+00 -1.251950e-01 -1.457545e-04 1.934840e-05 -2.045317e-03
Ga -1.599488e+00 -9.481549e-01 4.949781e+00 -1.649368e-04 3.614219e-04 3.539939e-04
Al -1.608733e+00 -9.426796e-01 -5.236434e+00 -9.629500e-05 -3.576263e-04 -1.509784e-04
Ga -1.596842e+00 -9.448149e-01 -1.522665e-01 -5.812148e-04 -4.867496e-04 -8.495693e-04
N 1.551097e+00 8.751472e-01 4.331905e+00 5.600621e-04 -1.282661e-04 -5.279457e-06
N 1.510751e+00 8.418084e-01 -5.877319e+00 -1.579199e-04 -1.402716e-04 -8.238426e-04
N 1.596775e+00 8.468044e-01 -7.710840e-01 2.291730e-04 -1.394114e-04 6.612041e-04
N 1.388797e-02 3.588705e+00 4.320781e+00 1.232233e-04 -7.209501e-05 -3.857990e-04
N -1.737517e-02 3.593906e+00 -5.849056e+00 3.341904e-05 -2.984635e-04 -3.468389e-04
N -2.565870e-02 3.654887e+00 -7.892139e-01 -6.289314e-05 -9.726861e-05 -4.309905e-04
N 3.131233e+00 -1.813980e+00 4.310805e+00 1.088567e-04 1.542364e-05 -4.390752e-04
N 3.136107e+00 -1.860568e+00 -5.846080e+00 2.993814e-04 2.589140e-05 -1.578414e-04
N 3.092563e+00 -1.890763e+00 -7.854224e-01 -5.466598e-06 -2.721018e-04 -6.317041e-04
N -4.806433e+00 8.541424e-01 4.323095e+00 2.828988e-05 5.653231e-05 -4.235319e-04
N -4.720028e+00 8.379493e-01 -5.866383e+00 5.046849e-04 -1.508745e-04 -1.690493e-04
N -4.758933e+00 9.233625e-01 -7.142060e-01 1.281905e-04 1.401670e-04 -2.605358e-04
N -6.349896e+00 3.606428e+00 4.338768e+00 -1.320175e-05 1.320645e-04 -4.659076e-04
N -6.377507e+00 3.626720e+00 -5.894298e+00 -8.229124e-05 1.865016e-04 -2.747744e-04
N -6.383428e+00 3.581229e+00 -7.044318e-01 -1.397079e-04 -9.896457e-06 -3.382910e-04
N -3.230218e+00 -1.885107e+00 4.384977e+00 7.201950e-04 -1.043110e-03 -8.507565e-05
N -3.178628e+00 -1.865135e+00 -5.848028e+00 1.205683e-04 4.710836e-06 -2.756648e-04
N -3.177873e+00 -1.911177e+00 -7.986051e-01 3.203514e-04 -4.076075e-06 -1.347904e-04
N -1.567163e+00 9.034841e-01 4.306537e+00 4.325225e-04 5.017363e-04 1.253930e-04
N -1.590026e+00 8.709069e-01 -5.838542e+00 4.658878e-04 -3.949718e-04 -2.712080e-04
N -1.648762e+00 9.026982e-01 -8.058091e-01 5.892564e-04 -2.522271e-04 1.507982e-03
N -3.217998e+00 3.632037e+00 4.293952e+00 2.066222e-05 -1.578620e-04 2.625531e-04
N -3.141205e+00 3.582721e+00 -5.858010e+00 3.955316e-04 -3.160913e-04 -3.826978e-04
N -3.137037e+00 3.582596e+00 -7.034051e-01 3.866596e-04 -3.233319e-04 -5.410037e-04
N 1.929818e-02 -1.877293e+00 4.329106e+00 4.384882e-04 -3.628146e-04 -1.263247e-04
N -1.664277e-02 -1.816230e+00 -5.804266e+00 2.487378e-04 6.241846e-04 8.230533e-05
N 2.078904e-02 -1.831485e+00 -7.964558e-01 3.527709e-04 -2.706851e-04 -8.783126e-05
N -1.608230e-02 1.782814e+00 1.836856e+00 -1.826259e-03 1.041139e-03 -1.969349e-03
N -2.914505e-02 1.789029e+00 6.865296e+00 -1.407298e-04 3.208111e-04 -7.123699e-04
N -1.510755e-02 1.781127e+00 -3.302201e+00 -1.309086e-04 1.686310e-04 -2.417198e-04
N 3.145220e+00 -3.680781e+00 1.791298e+00 2.693443e-04 -1.500965e-05 4.958245e-04
N 3.134487e+00 -3.678276e+00 6.929205e+00 1.762557e-04 2.424214e-04 -1.461243e-04
N 3.181013e+00 -3.665059e+00 -3.339220e+00 -1.555867e-04 4.794022e-04 -6.950852e-04
N 1.556686e+00 -9.478051e-01 1.780003e+00 2.225969e-04 2.468444e-04 5.137637e-04
N 1.600995e+00 -9.256596e-01 6.843423e+00 -7.925849e-04 1.315405e-03 -7.803865e-05
N 1.567232e+00 -9.492809e-01 -3.311726e+00 -3.814597e-04 3.929452e-04 -4.018983e-04
N 3.126500e+00 1.783659e+00 1.803248e+00 1.834449e-04 -2.780261e-05 6.477206e-04
N 3.130336e+00 1.784621e+00 6.865016e+00 -1.379462e-04 -8.332260e-05 -3.179464e-04
N 3.093585e+00 1.756484e+00 -3.296201e+00 -1.762162e-04 8.382863e-05 -2.995867e-04
N 6.289755e+00 -3.731207e+00 1.771332e+00 7.605912e-06 3.482210e-05 7.173987e-04
N 6.284709e+00 -3.682372e+00 6.872658e+00 -8.050831e-05 1.823676e-04 -2.207040e-04
N 6.256587e+00 -3.664784e+00 -3.342819e+00 2.811331e-05 9.798444e-05 -4.501100e-04
N 4.675298e+00 -9.300138e-01 1.818299e+00 -1.029285e-03 8.745890e-04 1.303861e-03
N 4.705260e+00 -9.472735e-01 6.872357e+00 -1.859753e-04 -5.166673e-05 -3.271061e-04
N 4.715239e+00 -1.000725e+00 -3.323065e+00 -1.968293e-04 3.726539e-04 -1.182323e-04
N -3.180218e+00 1.780676e+00 1.800788e+00 1.823723e-05 -1.554003e-04 6.771519e-04
N -3.184010e+00 1.786747e+00 6.927045e+00 -1.029145e-04 2.437345e-04 -1.151678e-04
N -3.140462e+00 1.759309e+00 -3.357295e+00 -4.225956e-04 2.500832e-04 -3.568679e-04
N -2.302104e-02 -3.676850e+00 1.846346e+00 -1.972400e-03 -7.996749e-04 3.461158e-03
N -2.111112e-02 -3.725117e+00 6.846832e+00 -2.403578e-04 -3.707984e-04 -5.502524e-04
N -1.919987e-02 -3.647068e+00 -3.267787e+00 -1.348762e-04 2.687893e-04 2.513433e-05
N -1.558578e+00 -9.276138e-01 1.828838e+00 -5.200274e-04 3.501208e-04 6.332500e-04
N -1.647985e+00 -9.179897e-01 6.918054e+00 1.699657e-04 4.031076e-04 1.474760e-04
N -1.601578e+00 -9.505948e-01 -3.309753e+00 -2.225797e-04 1.447742e-04 3.987743e-05
