108
Energy=-1.626827e+06 Lattice="9.537452e+00 0.000000e+00 0.000000e+00 -4.770139e+00 8.260243e+00 0.000000e+00 -1.736333e-03 -7.749801e-04 1.541440e+01" Stress="-2.091528e-04 -3.777694e-05 2.688947e-05 -4.232386e-05 -1.524200e-04 2.365059e-05 5.874966e-06 1.561154e-05 -6.183017e-04" Properties=species:S:1:pos:R:3:forces:R:3 Config_type=AlGaN_super3_26_1_57.xyz
Al 1.570025e+00 8.734567e-01 2.427204e+00 1.351474e-05 -1.871365e-06 3.879358e-05
Al 1.576994e+00 8.871977e-01 7.551734e+00 -3.827777e-05 -4.570190e-04 -3.916756e-04
Al 1.573145e+00 8.743619e-01 -2.717138e+00 1.078454e-06 1.090165e-05 4.297112e-05
Al -2.721558e-02 3.632510e+00 2.446498e+00 3.219824e-05 -2.088638e-05 -1.834618e-04
Al -1.216160e-02 3.648242e+00 7.530128e+00 1.764636e-04 -2.640220e-04 -8.610749e-05
Al -4.451121e-03 3.630842e+00 -2.713462e+00 2.779342e-06 1.177147e-05 2.994048e-05
Al 3.152975e+00 -1.869811e+00 2.433810e+00 1.296636e-05 4.949440e-05 3.807565e-05
Al 3.162144e+00 -1.881581e+00 7.529375e+00 -8.668416e-05 1.117476e-04 -5.670998e-05
Ga 3.145325e+00 -1.866406e+00 -2.701952e+00 -1.810590e-06 -4.206010e-06 2.505453e-05
Al -4.794951e+00 8.772575e-01 2.445269e+00 1.252687e-05 1.816644e-05 5.872681e-05
Ga -4.821793e+00 8.703166e-01 7.536316e+00 -2.384081e-05 -2.156990e-05 -2.588534e-05
Al -4.803595e+00 8.848196e-01 -2.712581e+00 3.256982e-07 8.708466e-07 3.607546e-05
Ga -6.383511e+00 3.625759e+00 2.437018e+00 7.786462e-07 -5.305287e-06 1.043400e-04
Al -6.400874e+00 3.630095e+00 7.537549e+00 -5.668888e-05 -8.303524e-05 -1.972209e-04
Ga -6.397962e+00 3.625602e+00 -2.717989e+00 1.235025e-06 1.402426e-05 3.935027e-05
Ga -3.221161e+00 -1.880244e+00 2.443553e+00 -2.735940e-06 7.821510e-06 2.143933e-05
Al -3.204095e+00 -1.894170e+00 7.547433e+00 -4.886181e-04 -1.390271e-04 -2.032534e-04
Ga -3.196716e+00 -1.890420e+00 -2.727638e+00 -5.721972e-06 1.076186e-06 4.794383e-05
Al -1.615431e+00 8.979871e-01 2.412831e+00 -1.134563e-05 -1.639177e-06 -4.978172e-07
Ga -1.596907e+00 8.665904e-01 7.573437e+00 6.349702e-05 4.572144e-05 -2.899845e-05
Ga -1.606522e+00 8.750540e-01 -2.712117e+00 1.475332e-05 -1.343159e-05 2.993733e-05
Al -3.199930e+00 3.630566e+00 2.425352e+00 2.756228e-05 -8.513365e-05 1.791473e-06
Ga -3.198694e+00 3.656820e+00 7.532708e+00 -1.446139e-05 1.150231e-05 -7.631300e-06
Ga -3.204812e+00 3.628424e+00 -2.687809e+00 1.106747e-05 -1.919039e-05 3.611929e-05
Ga -8.747087e-04 -1.875126e+00 2.428282e+00 -2.001375e-05 -4.055618e-06 5.394416e-05
Al -2.891959e-02 -1.880464e+00 7.546074e+00 3.746634e-04 1.792295e-04 -3.679103e-04
Al -1.644528e-02 -1.865296e+00 -2.703917e+00 -1.274969e-05 -9.107078e-06 4.387667e-05
Ga -9.829872e-03 1.811794e+00 4.983533e+00 3.256985e-05 -9.967090e-05 4.787064e-05
Ga 8.209319e-04 1.809579e+00 -5.287822e+00 -1.232655e-05 3.756265e-05 1.981060e-05
Ga -1.137286e-02 1.802985e+00 -1.322135e-01 5.085244e-06 2.850215e-05 4.576218e-05
Al 3.166375e+00 -3.698845e+00 4.963704e+00 -4.913413e-04 9.052566e-05 -2.094824e-04
Ga 3.179029e+00 -3.709764e+00 -5.291525e+00 -6.210382e-06 1.319782e-05 3.109596e-05
Ga 3.159627e+00 -3.716515e+00 -1.129387e-01 1.231804e-05 -1.289370e-05 4.550085e-05
Ga 1.586128e+00 -9.601032e-01 5.003940e+00 -1.382054e-07 -9.550800e-06 9.728555e-05
Ga 1.558897e+00 -9.491742e-01 -5.309843e+00 1.724583e-05 -1.060917e-05 -1.994422e-05
Al 1.561382e+00 -9.577607e-01 -1.352209e-01 -8.903147e-06 1.435662e-05 3.982852e-05
Al 3.153112e+00 1.801101e+00 4.980276e+00 -6.852619e-05 1.660977e-04 -2.275164e-04
Al 3.145702e+00 1.803986e+00 -5.289634e+00 1.671017e-05 -2.769753e-06 5.421578e-05
Ga 3.161749e+00 1.795038e+00 -1.351513e-01 6.678161e-06 -1.782802e-06 5.036479e-05
Al 6.332722e+00 -3.713925e+00 5.014667e+00 3.950208e-04 -5.033804e-06 2.944997e-06
Al 6.341240e+00 -3.715627e+00 -5.329354e+00 -5.113077e-05 -1.982054e-05 -6.842836e-05
Al 6.336932e+00 -3.718083e+00 -1.324308e-01 -6.622050e-08 -7.999795e-06 5.147695e-05
Al 4.735637e+00 -9.686890e-01 4.989168e+00 -7.737357e-05 1.681482e-04 -1.704456e-04
Ga 4.755517e+00 -9.600088e-01 -5.301204e+00 -2.601701e-05 1.428822e-05 1.695285e-05
Ga 4.745634e+00 -9.463744e-01 -1.293143e-01 -9.338979e-07 1.003215e-05 4.699500e-05
Ga -3.215198e+00 1.804687e+00 4.963817e+00 -3.397753e-05 2.254117e-05 -6.186699e-05
Ga -3.213685e+00 1.790044e+00 -5.283611e+00 -9.389327e-06 -1.309109e-05 2.640061e-05
Al -3.217587e+00 1.800092e+00 -1.128957e-01 2.475760e-06 -7.503361e-06 5.245414e-05
Al -2.794228e-02 -3.720932e+00 5.002946e+00 -4.399479e-05 4.312977e-05 -1.706462e-04
Ga -4.780119e-02 -3.702920e+00 -5.299029e+00 2.673186e-05 -3.540764e-05 5.706252e-05
Al -2.029815e-02 -3.706478e+00 -1.423334e-01 4.122612e-06 -3.025453e-06 3.506673e-05
Ga -1.622814e+00 -9.688942e-01 4.998333e+00 4.611485e-05 -9.854224e-06 -3.729377e-05
Al -1.609630e+00 -9.795163e-01 -5.297421e+00 3.514618e-06 1.059936e-05 7.659709e-05
Ga -1.602033e+00 -9.689672e-01 -1.359865e-01 -5.208492e-06 -3.754674e-06 2.455209e-05
N 1.606836e+00 8.952529e-01 4.336395e+00 -1.897346e-05 2.965441e-05 -2.221174e-05
N 1.613117e+00 9.060116e-01 -5.951240e+00 1.872005e-05 6.806097e-05 1.993820e-04
N 1.570484e+00 8.306148e-01 -7.968984e-01 -2.451963e-07 -8.319020e-06 -3.070018e-05
N -1.430123e-02 3.683709e+00 4.361067e+00 -3.260601e-05 -1.601924e-04 -1.405347e-05
N 1.614227e-02 3.656967e+00 -5.971326e+00 8.702578e-08 2.393799e-05 1.057001e-04
N 2.104631e-02 3.658193e+00 -7.964304e-01 -7.573008e-06 4.655446e-06 -4.547989e-05
N 3.193441e+00 -1.893063e+00 4.351263e+00 1.135314e-04 -2.142388e-06 2.088814e-04
N 3.158689e+00 -1.877675e+00 -5.971802e+00 1.805320e-05 -1.449766e-05 2.308385e-05
N 3.115878e+00 -1.855238e+00 -7.307251e-01 1.783913e-06 -5.275625e-06 -3.235709e-05
N -4.838200e+00 8.510756e-01 4.364664e+00 1.741546e-04 -2.385277e-04 -1.186596e-05
N -4.841988e+00 9.029223e-01 -5.908082e+00 1.957416e-05 -9.093091e-06 -2.066305e-05
N -4.750836e+00 9.060347e-01 -7.960844e-01 -1.680649e-06 -6.631947e-06 -3.301576e-05
N -6.384859e+00 3.637265e+00 4.426198e+00 -2.714146e-04 2.612415e-05 1.970950e-05
N -6.422384e+00 3.600676e+00 -5.943024e+00 2.887660e-05 1.494828e-05 9.032706e-05
N -6.384887e+00 3.678291e+00 -7.294043e-01 -4.319502e-07 6.036932e-06 -4.983236e-05
N -3.246436e+00 -1.906926e+00 4.416978e+00 5.672429e-06 2.365660e-05 -2.395697e-05
N -3.160286e+00 -1.900237e+00 -5.937169e+00 4.294577e-05 3.190278e-05 2.043348e-04
N -3.201400e+00 -1.926515e+00 -7.476043e-01 7.379976e-06 4.128464e-06 -5.110565e-05
N -1.609547e+00 8.785182e-01 4.319663e+00 2.862709e-05 -5.544801e-06 3.340357e-05
N -1.606156e+00 8.317828e-01 -5.867446e+00 2.418184e-05 -2.628072e-05 -5.985281e-06
N -1.655346e+00 9.048971e-01 -7.302099e-01 1.719334e-05 -8.434504e-06 -3.188914e-05
N -3.208775e+00 3.686982e+00 4.351591e+00 2.224478e-04 -6.525028e-05 2.548582e-04
N -3.201298e+00 3.638915e+00 -5.913537e+00 -1.636992e-06 1.039505e-05 -2.288835e-05
N -3.239569e+00 3.605531e+00 -7.069742e-01 1.082961e-05 8.192723e-06 -3.933370e-05
N -1.649416e-02 -1.923853e+00 4.396925e+00 -5.726523e-05 2.084634e-05 -1.593190e-05
N -6.177729e-02 -1.853915e+00 -5.960341e+00 -7.920669e-05 -2.879350e-05 2.121007e-04
N 2.272742e-02 -1.897348e+00 -7.757404e-01 3.601903e-06 7.541754e-07 -3.269459e-05
N -1.606177e-02 1.803319e+00 1.860896e+00 2.299365e-06 1.382106e-05 2.847638e-05
N 1.783444e-02 1.820382e+00 6.965230e+00 2.859352e-05 1.661546e-05 2.316487e-05
N 2.465866e-02 1.822247e+00 -3.299344e+00 3.100947e-06 -3.688312e-06 -3.500454e-05
N 3.160851e+00 -3.711564e+00 1.874770e+00 6.744948e-05 1.335964e-05 -1.023057e-04
N 3.201376e+00 -3.686850e+00 6.888471e+00 -1.346023e-04 1.489203e-04 -3.875025e-05
N 3.201112e+00 -3.735906e+00 -3.311777e+00 -6.641349e-06 1.530265e-05 -2.127847e-05
N 1.608345e+00 -9.301849e-01 1.788153e+00 -4.435506e-05 2.162321e-05 -4.801642e-05
N 1.567055e+00 -9.551652e-01 6.989572e+00 -8.204063e-05 2.579983e-04 9.637473e-05
N 1.523382e+00 -9.335969e-01 -3.322894e+00 -5.917758e-06 1.187281e-05 -6.321770e-05
N 3.158224e+00 1.748443e+00 1.842410e+00 -3.181527e-05 -3.592171e-06 -6.233704e-05
N 3.109071e+00 1.821486e+00 6.894848e+00 -8.979704e-05 -7.373103e-05 3.349398e-04
N 3.152815e+00 1.750192e+00 -3.356318e+00 -7.067212e-06 4.489047e-07 -3.518310e-05
N 6.292037e+00 -3.738521e+00 1.778198e+00 -1.968443e-05 -5.884129e-06 -2.789707e-05
N 6.336177e+00 -3.710977e+00 6.934612e+00 -2.485979e-05 -2.546165e-05 -3.284646e-05
N 6.294894e+00 -3.738631e+00 -3.408161e+00 1.963337e-05 1.498200e-05 6.194800e-05
N 4.703816e+00 -9.282040e-01 1.847163e+00 6.422890e-06 -5.444318e-06 -4.585979e-05
N 4.746941e+00 -1.006853e+00 6.912460e+00 7.550572e-05 -6.853022e-05 2.049461e-04
N 4.745798e+00 -9.127673e-01 -3.322082e+00 -1.062818e-05 -1.046567e-05 -3.684319e-05
N -3.213343e+00 1.796798e+00 1.823198e+00 1.652004e-06 -2.067133e-05 -3.766555e-06
N -3.200866e+00 1.793318e+00 6.928777e+00 1.341812e-05 -6.794855e-06 -1.524817e-05
N -3.244838e+00 1.773924e+00 -3.316632e+00 7.120738e-06 1.180207e-05 -2.371721e-05
N 1.487177e-02 -3.733561e+00 1.771226e+00 -6.185241e-05 5.784326e-05 -6.317601e-05
N -6.973869e-02 -3.691083e+00 6.920928e+00 8.944174e-05 1.179471e-04 1.980706e-04
N -2.541141e-02 -3.661872e+00 -3.317948e+00 -4.083033e-06 -2.679795e-06 -3.899774e-05
N -1.612646e+00 -9.158605e-01 1.835050e+00 1.604108e-06 1.078651e-05 -1.421021e-05
N -1.617698e+00 -1.003644e+00 6.969092e+00 2.232351e-04 1.152698e-04 -2.015081e-05
N -1.567366e+00 -9.878409e-01 -3.370712e+00 1.728245e-06 -5.001711e-06 -4.257161e-05
