108
Energy=-2816990.105924 Lattice="9.694332 0.000000 0.000000 -4.852527 8.391639 0.000000 -0.000222 0.000750 15.741635" Stress="-0.000001 -0.000001 0.000000 -0.000001 -0.000001 0.000000 0.000000 0.000000 -0.000004" Properties=species:S:1:pos:R:3:forces:R:3
Al 1.594500 0.892472 2.474664 -0.000015 -0.000516 -0.000002
Ga 1.590892 0.892204 7.723117 0.000033 -0.000245 0.000024
Ga 1.591549 0.891490 -2.767856 -0.000089 -0.000197 0.000202
Ga -0.015265 3.681947 2.471761 -0.000363 -0.000082 0.000036
Ga -0.023263 3.687918 7.724347 -0.000154 -0.000029 0.000009
Ga -0.020487 3.695289 -2.767054 -0.000210 -0.000172 0.000032
Ga 3.211366 -1.897341 2.472957 -0.000108 -0.000076 -0.000120
Ga 3.211015 -1.903503 7.724282 -0.000103 -0.000049 -0.000018
Ga 3.219087 -1.904724 -2.766918 -0.000276 -0.000098 -0.000028
Ga -4.878202 0.891300 2.473763 0.000180 -0.000188 -0.000213
Ga -4.874101 0.891880 7.724586 0.000049 -0.000205 -0.000071
Ga -4.868753 0.885743 -2.766848 -0.000142 -0.000159 -0.000124
Ga -6.490876 3.683248 2.473255 0.000061 -0.000033 -0.000118
Ga -6.490394 3.688944 7.724358 -0.000155 -0.000013 -0.000018
Ga -6.492909 3.696065 -2.767195 -0.000261 -0.000122 -0.000027
Ga -3.249057 -1.904785 2.476940 -0.000061 0.000014 -0.000131
Ga -3.252553 -1.904759 7.725973 -0.000117 0.000018 0.000124
Al -3.252647 -1.904946 -2.772390 -0.000277 -0.000067 0.000032
Ga -1.629458 0.891757 2.473180 0.000163 -0.000206 -0.000160
Ga -1.639742 0.892802 7.724793 0.000126 -0.000314 -0.000119
Ga -1.644979 0.886174 -2.764850 0.000125 -0.000267 -0.000449
Ga -3.254305 3.690282 2.479866 0.000086 -0.000080 -0.000181
Ga -3.257952 3.690698 7.724193 0.000014 -0.000158 -0.000138
Ga -3.257701 3.690443 -2.768529 -0.000104 -0.000175 -0.000173
Ga -0.015634 -1.895676 2.472768 0.000230 -0.000091 -0.000104
Ga -0.022001 -1.901723 7.724698 0.000021 -0.000087 -0.000082
Ga -0.029593 -1.903179 -2.766786 -0.000035 -0.000172 -0.000090
Ga -0.016497 1.820269 5.086381 -0.000543 0.000091 0.000083
Ga -0.023765 1.823228 -5.390703 -0.000406 0.000155 -0.000098
Ga -0.021624 1.820547 -0.136333 -0.000051 0.000210 0.000390
Ga 3.213646 -3.770143 5.099654 -0.000395 0.000188 -0.000113
Ga 3.212473 -3.770586 -5.391550 -0.000364 0.000151 -0.000060
Ga 3.206816 -3.771477 -0.145528 0.000217 0.000221 -0.000069
Ga 1.595919 -0.965438 5.087348 -0.000501 0.000123 -0.000081
Ga 1.595694 -0.973385 -5.391244 -0.000485 0.000213 -0.000117
Ga 1.591374 -0.969170 -0.134845 0.000122 0.000401 -0.000033
Ga 3.199699 1.820906 5.086934 -0.000058 0.000105 0.000063
Ga 3.206103 1.824349 -5.391761 -0.000128 0.000079 -0.000006
Ga 3.198358 1.822232 -0.134804 0.000155 -0.000121 -0.000039
Ga 6.442601 -3.769602 5.099573 -0.000081 0.000135 0.000019
Ga 6.442545 -3.765316 -5.380964 -0.000122 0.000070 0.000040
Ga 6.438689 -3.760384 -0.158143 0.000252 -0.000073 -0.000055
Ga 4.826558 -0.972793 5.100057 -0.000322 0.000145 -0.000102
Ga 4.830234 -0.975238 -5.380711 -0.000310 0.000182 -0.000059
Ga 4.829812 -0.976935 -0.157528 0.000138 0.000050 -0.000180
Ga -3.256721 1.824396 5.099577 -0.000121 0.000069 -0.000041
Ga -3.256835 1.824835 -5.391694 -0.000141 0.000130 -0.000017
Ga -3.260843 1.826539 -0.145647 0.000240 0.000107 0.000130
Ga -0.021590 -3.768227 5.099563 -0.000093 0.000152 -0.000040
Ga -0.021196 -3.768952 -5.391689 -0.000086 0.000127 -0.000030
Ga -0.024440 -3.769508 -0.145655 0.000401 0.000147 -0.000095
Ga -1.637001 -0.971987 5.099948 -0.000273 0.000215 -0.000077
Ga -1.641275 -0.974480 -5.380511 -0.000248 0.000230 -0.000032
Ga -1.649285 -0.976082 -0.158295 0.000344 0.000072 0.000067
N 1.590841 0.892670 4.399002 0.000389 -0.000236 0.000068
N 1.590358 0.892384 -6.035628 0.000331 -0.000192 0.000062
N 1.588466 0.891419 -0.788555 0.000279 -0.000062 0.000017
N -0.024516 3.690412 4.455281 0.000220 -0.000197 0.000014
N -0.023078 3.690041 -6.031119 0.000195 -0.000172 0.000013
N -0.029256 3.686811 -0.783030 0.000240 -0.000107 0.000023
N 3.210840 -1.904216 4.455847 0.000361 -0.000140 0.000110
N 3.211916 -1.902929 -6.031460 0.000258 -0.000150 0.000085
N 3.204642 -1.903938 -0.783538 0.000144 -0.000109 0.000169
N -4.872850 0.892266 4.456385 0.000319 -0.000092 0.000043
N -4.873466 0.890429 -6.031116 0.000222 -0.000168 0.000014
N -4.877509 0.894508 -0.783501 0.000061 0.000005 0.000174
N -6.489563 3.691031 4.456261 0.000166 -0.000121 -0.000016
N -6.491496 3.690836 -6.031153 0.000042 -0.000114 -0.000024
N -6.491634 3.687440 -0.783373 -0.000059 -0.000075 0.000039
N -3.253084 -1.904074 4.458110 0.000265 -0.000094 0.000029
N -3.253231 -1.904327 -6.034336 0.000149 -0.000132 0.000003
N -3.256102 -1.904045 -0.849266 0.000006 -0.000113 0.000144
N -1.641930 0.893178 4.456205 0.000574 -0.000126 0.000031
N -1.641204 0.891393 -6.031014 0.000414 -0.000255 0.000032
N -1.642351 0.896008 -0.781977 0.000291 -0.000223 -0.000055
N -3.258020 3.691399 4.461035 0.000351 -0.000146 0.000093
N -3.258159 3.691309 -6.034601 0.000239 -0.000200 0.000035
N -3.261429 3.691220 -0.788142 0.000079 -0.000169 0.000241
N -0.022973 -1.902391 4.455933 0.000427 -0.000196 0.000082
N -0.024434 -1.901098 -6.031167 0.000300 -0.000206 0.000076
N -0.022859 -1.901900 -0.783435 0.000066 -0.000233 0.000119
N 0.022719 1.797773 1.854551 -0.000169 0.000156 -0.000242
N -0.022379 1.821975 7.074183 0.000013 0.000197 0.000039
N -0.025750 1.823062 -3.408156 0.000006 0.000232 -0.000021
N 3.215987 -3.770873 1.836762 -0.000258 0.000088 0.000063
N 3.212291 -3.770571 7.083696 0.000079 0.000135 0.000040
N 3.211733 -3.771176 -3.409566 0.000109 0.000237 0.000031
N 1.599259 -0.923918 1.854565 -0.000558 0.000403 0.000104
N 1.594997 -0.971432 7.074862 -0.000107 0.000277 0.000031
N 1.594960 -0.975522 -3.408776 -0.000050 0.000233 -0.000015
N 3.166037 1.799323 1.855253 -0.000216 0.000082 -0.000166
N 3.203902 1.822999 7.074612 0.000074 0.000097 0.000021
N 3.207007 1.824631 -3.409160 0.000144 0.000100 -0.000007
N 6.446608 -3.766305 1.825685 -0.000238 0.000135 -0.000074
N 6.441846 -3.769757 7.082385 0.000196 0.000035 -0.000050
N 6.441824 -3.721400 -3.389679 0.000179 0.000204 0.000004
N 4.833382 -0.974958 1.825522 -0.000396 0.000175 0.000211
N 4.825959 -0.973144 7.082548 0.000054 0.000125 0.000005
N 4.868073 -0.997348 -3.389869 0.000198 0.000015 0.000029
N -3.253274 1.823878 1.837035 -0.000374 0.000088 0.000009
N -3.257087 1.823741 7.083496 0.000046 0.000166 0.000135
N -3.256785 1.824059 -3.409954 0.000037 0.000130 0.000167
N -0.017267 -3.769435 1.836517 -0.000417 0.000069 0.000137
N -0.022291 -3.768885 7.083536 0.000126 0.000089 0.000096
N -0.021650 -3.769462 -3.409869 0.000094 0.000141 0.000081
N -1.636484 -0.974642 1.825459 -0.000534 0.000211 0.000079
N -1.637776 -0.972520 7.082338 -0.000052 0.000186 0.000050
N -1.680380 -0.997475 -3.389583 -0.000078 0.000206 0.000073
