108
Energy=-1.993031e+06 Lattice="9.584706e+00 0.000000e+00 0.000000e+00 -4.792660e+00 8.300723e+00 0.000000e+00 -1.452364e-03 -1.571069e-03 1.551927e+01" Stress="3.445118e-05 -3.724543e-05 -6.499380e-06 -3.623512e-05 -5.063084e-06 7.428641e-06 8.142450e-06 7.267558e-06 -1.891824e-05" Properties=species:S:1:pos:R:3:forces:R:3 Config_type=AlGaN_super3_34_2_13.xyz
Al 1.570153e+00 8.961517e-01 2.429030e+00 3.764647e-05 5.380401e-05 2.182075e-04
Al 1.561942e+00 8.974233e-01 7.609215e+00 1.110966e-05 -1.401898e-06 1.492917e-04
Al 1.590865e+00 9.005921e-01 -2.725221e+00 2.666127e-05 1.881622e-05 1.414380e-04
Al -2.013973e-02 3.641589e+00 2.451028e+00 2.567996e-05 -1.954114e-05 1.924726e-04
Al -2.099701e-02 3.637659e+00 7.580291e+00 4.688861e-06 -1.029591e-05 1.232410e-04
Ga -3.108696e-03 3.644178e+00 -2.719590e+00 -3.460860e-08 4.284180e-05 1.656747e-04
Al 3.186997e+00 -1.886061e+00 2.462397e+00 2.500590e-06 1.415249e-05 2.235056e-04
Ga 3.191871e+00 -1.887735e+00 7.584288e+00 8.755735e-06 1.424264e-05 1.358563e-04
Ga 3.181039e+00 -1.869804e+00 -2.729575e+00 3.331523e-06 2.282411e-05 1.522589e-04
Ga -4.836549e+00 8.645564e-01 2.441739e+00 4.290919e-05 8.127499e-05 1.423253e-04
Ga -4.819415e+00 8.656506e-01 7.611812e+00 3.990459e-05 6.613282e-06 1.080127e-04
Al -4.836536e+00 8.867295e-01 -2.737516e+00 3.891718e-05 2.704871e-05 8.317392e-05
Ga -6.431126e+00 3.641676e+00 2.443607e+00 4.303244e-05 -1.195024e-05 1.651949e-04
Ga -6.423049e+00 3.646809e+00 7.623783e+00 2.258648e-05 9.776986e-06 1.660921e-04
Al -6.416376e+00 3.633471e+00 -2.752447e+00 1.237633e-05 2.008276e-05 1.012679e-04
Al -3.237671e+00 -1.891772e+00 2.453994e+00 2.855821e-05 5.449271e-06 1.576880e-04
Al -3.226602e+00 -1.882734e+00 7.595766e+00 3.520157e-05 -9.540390e-06 1.288012e-04
Al -3.217769e+00 -1.885674e+00 -2.733512e+00 4.783568e-06 4.747000e-06 1.348787e-04
Ga -1.598005e+00 8.882966e-01 2.446159e+00 4.468749e-05 -2.279148e-05 1.128461e-04
Al -1.601887e+00 8.854289e-01 7.594950e+00 2.601810e-05 -1.237741e-05 5.949600e-05
Ga -1.616685e+00 8.784102e-01 -2.721048e+00 6.297502e-05 -1.147659e-05 9.213978e-05
Ga -3.209407e+00 3.660922e+00 2.469089e+00 -4.383691e-05 -7.361420e-05 1.045525e-04
Ga -3.207679e+00 3.652001e+00 7.600490e+00 5.384846e-05 -1.346489e-05 7.416555e-05
Ga -3.230770e+00 3.645844e+00 -2.741906e+00 5.505195e-05 -1.131677e-05 7.322286e-05
Ga -2.155231e-02 -1.880003e+00 2.457027e+00 -2.359149e-05 -6.520827e-05 1.384858e-04
Ga -2.994677e-02 -1.880692e+00 7.611569e+00 4.811581e-05 9.116769e-07 8.296751e-05
Ga -3.098813e-02 -1.885114e+00 -2.743884e+00 4.204486e-05 -4.438913e-05 9.279274e-05
Al -1.762699e-02 1.814176e+00 5.032769e+00 -2.859227e-06 4.896664e-05 1.253630e-04
Ga -7.878610e-03 1.805511e+00 -5.341429e+00 -4.649376e-05 8.504877e-05 1.813454e-04
Al -6.488042e-04 1.805003e+00 -1.349256e-01 -2.188476e-05 3.922675e-05 -4.799802e-06
Al 3.183685e+00 -3.731017e+00 5.009452e+00 -7.387342e-06 5.291956e-05 1.113780e-04
Ga 3.173861e+00 -3.732542e+00 -5.337827e+00 -1.253989e-05 4.501975e-05 8.635090e-05
Ga 3.180849e+00 -3.735794e+00 -1.108881e-01 -3.972417e-05 7.519507e-05 -3.659951e-05
Ga 1.584409e+00 -9.549394e-01 5.013240e+00 -5.945978e-05 3.168455e-05 1.304499e-04
Ga 1.577550e+00 -9.452919e-01 -5.326782e+00 -7.540246e-05 4.453504e-05 7.529092e-05
Ga 1.579802e+00 -9.343921e-01 -1.272592e-01 -8.996151e-05 1.042641e-05 5.967469e-06
Ga 3.157982e+00 1.800238e+00 5.027897e+00 2.574268e-05 2.562005e-05 1.646942e-04
Al 3.167361e+00 1.807867e+00 -5.307802e+00 -2.449064e-05 5.760727e-06 1.345319e-04
Al 3.157315e+00 1.804938e+00 -1.692144e-01 -2.924490e-05 -1.078726e-06 5.296338e-05
Ga 6.349086e+00 -3.727355e+00 5.024045e+00 4.082127e-05 -7.762101e-06 1.528551e-04
Ga 6.375013e+00 -3.729463e+00 -5.327998e+00 -3.140357e-05 9.001853e-06 1.490010e-04
Ga 6.370932e+00 -3.739886e+00 -1.390109e-01 -3.766205e-05 3.578467e-05 2.173657e-05
Al 4.769384e+00 -9.782346e-01 5.014082e+00 -4.653442e-05 1.901630e-06 1.253039e-04
Ga 4.776947e+00 -9.552108e-01 -5.306594e+00 -4.881903e-05 9.305744e-06 1.279324e-04
Ga 4.771410e+00 -9.559061e-01 -1.434108e-01 -9.393622e-05 -3.405221e-06 -4.679161e-05
Ga -3.213153e+00 1.809567e+00 5.038258e+00 -3.906759e-05 3.779997e-05 5.934445e-05
Ga -3.227112e+00 1.806619e+00 -5.326384e+00 8.075709e-06 2.043657e-05 1.203366e-04
Ga -3.226911e+00 1.801752e+00 -1.493826e-01 -1.856776e-05 9.922674e-06 3.540591e-05
Al -1.726522e-02 -3.730509e+00 5.032881e+00 -1.308025e-05 6.750042e-06 8.516619e-05
Al -3.180835e-02 -3.739658e+00 -5.309419e+00 -1.002205e-05 2.070552e-05 1.211392e-04
Ga -3.467532e-02 -3.742281e+00 -1.555015e-01 -5.571614e-05 3.981953e-05 -2.603012e-05
Ga -1.631864e+00 -9.631951e-01 5.038522e+00 -6.566177e-05 -2.680623e-05 9.478984e-05
Ga -1.627067e+00 -9.646394e-01 -5.335644e+00 -4.747950e-05 1.298708e-05 1.162891e-04
Ga -1.626748e+00 -9.610461e-01 -1.354505e-01 -4.790704e-05 1.431740e-05 -1.720112e-05
N 1.527270e+00 9.149484e-01 4.349771e+00 6.144695e-05 2.947626e-08 -1.604781e-04
N 1.620183e+00 9.133718e-01 -5.992545e+00 8.837126e-05 -1.541994e-05 -1.075032e-04
N 1.573218e+00 9.333796e-01 -7.952080e-01 6.111918e-05 -2.133194e-05 -1.644944e-04
N -6.278103e-02 3.614963e+00 4.381205e+00 -1.246101e-06 -2.373194e-05 -1.470599e-04
N -1.962533e-02 3.649312e+00 -6.019348e+00 2.703285e-05 -2.604703e-05 -1.126796e-04
N -2.318613e-02 3.601196e+00 -7.434097e-01 1.291041e-05 -1.558245e-05 -1.810008e-04
N 3.214502e+00 -1.908638e+00 4.389682e+00 2.500719e-05 -3.128864e-05 -1.496460e-04
N 3.178832e+00 -1.879974e+00 -5.958599e+00 5.180849e-05 -2.010105e-05 -8.165700e-05
N 3.168784e+00 -1.887144e+00 -7.595180e-01 5.758370e-05 -4.511165e-05 -1.789318e-04
N -4.820651e+00 8.353176e-01 4.421219e+00 3.069509e-05 3.330752e-05 -1.230273e-04
N -4.863596e+00 9.039013e-01 -5.928362e+00 4.499555e-05 2.169750e-05 -1.457147e-04
N -4.864874e+00 9.059228e-01 -8.092002e-01 7.456956e-05 5.063964e-06 -1.048184e-04
N -6.375401e+00 3.670997e+00 4.420767e+00 -3.251091e-06 -1.202797e-05 -1.548703e-04
N -6.371203e+00 3.621893e+00 -5.907452e+00 -7.198027e-06 -1.238247e-05 -1.533009e-04
N -6.417155e+00 3.599438e+00 -8.219164e-01 1.191317e-06 1.740494e-06 -1.137813e-04
N -3.258196e+00 -1.863209e+00 4.366281e+00 3.200275e-05 -2.391691e-05 -1.262546e-04
N -3.225256e+00 -1.883592e+00 -6.011265e+00 1.147750e-05 -2.090499e-05 -1.079514e-04
N -3.218512e+00 -1.888630e+00 -8.216002e-01 3.174711e-05 -4.386178e-05 -1.047209e-04
N -1.572490e+00 9.079402e-01 4.424337e+00 3.472596e-05 -3.676103e-05 -7.662934e-05
N -1.615565e+00 8.875765e-01 -6.005870e+00 7.376155e-05 -5.455339e-05 -1.189831e-04
N -1.572755e+00 9.088791e-01 -7.391145e-01 4.210124e-05 -3.709205e-05 -9.428825e-05
N -3.218334e+00 3.698085e+00 4.448866e+00 -1.484581e-05 -5.686061e-05 -9.139513e-05
N -3.261501e+00 3.677415e+00 -5.937189e+00 -3.196452e-06 -6.530682e-05 -1.175304e-04
N -3.212866e+00 3.653098e+00 -7.721032e-01 1.731061e-05 -4.585527e-05 -1.193376e-04
N -2.559202e-02 -1.928947e+00 4.431855e+00 3.246898e-05 -4.141618e-05 -1.115614e-04
N -2.014037e-02 -1.935552e+00 -5.923987e+00 3.594681e-05 -7.025126e-05 -9.384000e-05
N -1.857168e-02 -1.880503e+00 -7.665540e-01 3.714002e-05 -6.264033e-05 -1.130226e-04
N 2.333849e-02 1.830431e+00 1.789276e+00 -4.572034e-05 2.958397e-05 -1.357671e-05
N -1.547052e-02 1.803681e+00 6.971820e+00 -2.303109e-05 3.377805e-05 -1.105515e-04
N 2.179296e-02 1.780151e+00 -3.359494e+00 -1.512748e-05 4.382106e-05 -1.395375e-04
N 3.215463e+00 -3.706529e+00 1.872802e+00 3.007414e-05 4.908593e-05 -1.622257e-05
N 3.218232e+00 -3.755110e+00 6.931976e+00 -2.930363e-05 3.303839e-05 -1.052371e-04
N 3.180974e+00 -3.731005e+00 -3.365746e+00 -3.201033e-06 1.800411e-05 -1.229133e-04
N 1.620845e+00 -9.352052e-01 1.868198e+00 -1.005908e-05 1.455381e-05 -4.236095e-05
N 1.577125e+00 -9.091103e-01 6.997350e+00 -4.151754e-05 4.602336e-06 -1.111454e-04
N 1.575969e+00 -9.033871e-01 -3.342683e+00 -3.286228e-05 -8.640722e-06 -1.172348e-04
N 3.128310e+00 1.781691e+00 1.761219e+00 -4.863099e-06 -2.650580e-05 -3.124236e-05
N 3.127666e+00 1.780234e+00 6.998013e+00 -1.496440e-05 6.011302e-06 -1.380882e-04
N 3.165975e+00 1.801647e+00 -3.368422e+00 -9.923977e-06 -7.331405e-06 -1.213863e-04
N 6.322526e+00 -3.706040e+00 1.854222e+00 4.572984e-06 -8.118278e-06 -5.582423e-05
N 6.326804e+00 -3.705893e+00 7.012576e+00 -5.095719e-06 4.610486e-06 -1.571383e-04
N 6.407250e+00 -3.703168e+00 -3.334379e+00 8.023232e-06 -1.226837e-05 -1.555940e-04
N 4.768800e+00 -1.012128e+00 1.839907e+00 1.130269e-06 -4.013424e-05 -2.695375e-05
N 4.814468e+00 -9.861023e-01 6.929861e+00 -3.547586e-05 -8.629320e-06 -1.408597e-04
N 4.815996e+00 -9.362191e-01 -3.322588e+00 -2.446060e-05 -5.155051e-05 -1.269283e-04
N -3.223212e+00 1.804049e+00 1.827787e+00 -3.585517e-07 3.043827e-07 -1.473236e-06
N -3.178087e+00 1.777823e+00 7.012574e+00 -5.339986e-05 1.098068e-05 -7.671005e-05
N -3.257706e+00 1.774237e+00 -3.341675e+00 -6.660323e-05 3.501710e-06 -1.104507e-04
N -2.752435e-02 -3.732755e+00 1.812089e+00 2.191256e-05 2.840203e-05 -4.839720e-06
N -2.767011e-02 -3.731991e+00 6.938379e+00 -6.652954e-05 -2.063453e-05 -7.978829e-05
N -6.705711e-02 -3.753579e+00 -3.392204e+00 -4.408316e-05 -7.040258e-06 -7.343238e-05
N -1.668844e+00 -9.888982e-01 1.844156e+00 -4.011475e-05 -5.798305e-06 -3.766811e-06
N -1.663886e+00 -9.397735e-01 7.021718e+00 -5.340179e-05 -7.381146e-06 -9.628861e-05
N -1.666149e+00 -9.810875e-01 -3.355214e+00 -6.454888e-05 -1.493995e-05 -1.322403e-04
