108
Energy=-2405010.397308 Lattice="9.641182 0.000000 0.000000 -4.824251 8.347110 0.000000 0.000467 0.001079 15.630466" Stress="0.000002 -0.000001 0.000000 -0.000001 0.000002 -0.000000 0.000000 0.000000 0.000003" Properties=species:S:1:pos:R:3:forces:R:3
Al 1.584193 0.885907 2.468516 0.000094 0.000049 0.000131
Al 1.577020 0.889501 7.676967 0.000178 0.000089 0.000329
Ga 1.575375 0.892628 -2.774193 0.000302 0.000051 0.000380
Ga -0.026895 3.664065 2.448828 0.000109 0.000035 0.000437
Al -0.017702 3.654379 7.678343 0.000054 0.000076 0.000329
Ga -0.030062 3.658806 -2.752847 0.000101 -0.000001 0.000520
Ga 3.192117 -1.892469 2.446411 0.000153 -0.000022 0.000640
Ga 3.187148 -1.884952 7.664148 0.000191 -0.000004 0.000450
Ga 3.197063 -1.898385 -2.739612 0.000069 0.000017 0.000388
Ga -4.850947 0.885386 2.460126 0.000226 0.000027 0.000392
Al -4.847208 0.891296 7.654434 0.000178 0.000100 0.000312
Ga -4.849350 0.883748 -2.739922 0.000194 0.000107 0.000464
Ga -6.457536 3.659290 2.473384 -0.000092 0.000004 0.000108
Ga -6.452607 3.666024 7.675560 0.000092 0.000146 0.000327
Ga -6.442955 3.670006 -2.773578 0.000046 0.000051 0.000226
Ga -3.233088 -1.887301 2.444196 0.000092 -0.000126 0.000576
Ga -3.236640 -1.894439 7.669740 0.000038 0.000031 0.000462
Ga -3.234646 -1.886637 -2.740251 0.000116 -0.000007 0.000336
Ga -1.627347 0.884365 2.471689 0.000271 -0.000195 0.000329
Ga -1.624190 0.897692 7.663801 0.000284 -0.000046 0.000404
Ga -1.621532 0.889293 -2.763235 0.000350 -0.000139 0.000435
Ga -3.231114 3.668011 2.469892 0.000137 -0.000188 0.000333
Ga -3.244997 3.666675 7.669105 0.000091 -0.000181 0.000538
Ga -3.242411 3.679228 -2.761507 0.000040 -0.000128 0.000314
Ga -0.023470 -1.879453 2.448797 0.000149 -0.000146 0.000431
Al -0.015477 -1.889880 7.677722 0.000010 -0.000151 0.000318
Ga -0.025496 -1.898537 -2.751287 0.000126 -0.000179 0.000418
Ga -0.021128 1.814495 5.073522 -0.000093 0.000181 0.000514
Al -0.019502 1.818548 -5.387368 -0.000057 0.000182 0.000316
Ga -0.029585 1.807710 -0.133268 -0.000129 0.000192 0.000285
Ga 3.194501 -3.762025 5.083315 -0.000117 0.000225 0.000430
Ga 3.195515 -3.763065 -5.374733 -0.000060 0.000276 0.000405
Al 3.194853 -3.743993 -0.149220 -0.000119 0.000158 -0.000017
Ga 1.580060 -0.959070 5.077751 -0.000374 0.000276 0.000468
Ga 1.571652 -0.968630 -5.376413 -0.000303 0.000188 0.000397
Ga 1.590525 -0.969158 -0.144409 -0.000142 0.000057 0.000341
Ga 3.191669 1.802986 5.082878 -0.000232 0.000062 0.000508
Ga 3.188307 1.812669 -5.389404 -0.000093 0.000069 0.000369
Ga 3.186714 1.805787 -0.137807 0.000008 -0.000007 0.000311
Ga 6.398689 -3.751004 5.078847 0.000014 -0.000017 0.000325
Ga 6.402557 -3.761074 -5.364363 -0.000085 0.000045 0.000369
Ga 6.398882 -3.735734 -0.157652 0.000028 -0.000049 0.000758
Ga 4.804636 -0.955717 5.071331 -0.000256 0.000040 0.000465
Ga 4.798954 -0.959245 -5.367344 -0.000253 0.000013 0.000493
Al 4.803021 -0.974815 -0.143896 -0.000187 -0.000093 -0.000099
Al -3.243337 1.813285 5.076722 -0.000080 0.000066 0.000186
Ga -3.242284 1.818460 -5.367347 -0.000143 0.000046 0.000583
Ga -3.231528 1.810233 -0.156514 -0.000176 0.000058 0.000561
Ga -0.015279 -3.748718 5.073466 -0.000174 0.000062 0.000384
Al -0.020066 -3.740438 -5.373580 -0.000112 0.000053 0.000216
Ga -0.016058 -3.743528 -0.143004 0.000027 -0.000082 0.000316
Ga -1.628150 -0.961425 5.082939 -0.000263 0.000022 0.000525
Ga -1.613518 -0.970526 -5.375887 -0.000387 0.000089 0.000377
Al -1.638074 -0.963080 -0.150219 -0.000210 -0.000007 -0.000048
N 1.583054 0.887738 4.389253 0.000394 0.000008 -0.000200
N 1.538976 0.908714 -6.029689 0.000356 -0.000049 -0.000199
N 1.577660 0.890159 -0.797412 0.000267 -0.000028 -0.000244
N -0.027529 3.669497 4.424986 0.000097 -0.000058 -0.000377
N -0.023149 3.620848 -6.029489 0.000113 -0.000023 -0.000271
N -0.068851 3.684915 -0.763634 0.000257 -0.000110 -0.000375
N 3.191177 -1.897040 4.439498 0.000250 -0.000238 -0.000474
N 3.191159 -1.894865 -5.993764 0.000194 -0.000166 -0.000377
N 3.234229 -1.918623 -0.741120 0.000172 -0.000013 -0.000543
N -4.805297 0.913140 4.446844 0.000154 0.000034 -0.000452
N -4.840784 0.888432 -6.058001 0.000291 0.000063 -0.000286
N -4.848905 0.838974 -0.756135 0.000228 0.000132 -0.000412
N -6.453893 3.666034 4.454324 0.000111 -0.000040 -0.000286
N -6.410368 3.696012 -5.973254 -0.000072 -0.000123 -0.000403
N -6.448179 3.667824 -0.789568 -0.000057 0.000039 -0.000169
N -3.233337 -1.892064 4.431611 0.000162 -0.000085 -0.000525
N -3.236412 -1.896298 -5.989454 0.000231 -0.000117 -0.000393
N -3.236020 -1.842502 -0.747049 0.000076 -0.000068 -0.000470
N -1.673464 0.912154 4.465414 0.000253 -0.000062 -0.000454
N -1.594534 0.916141 -5.981282 0.000138 -0.000195 -0.000499
N -1.626465 0.842584 -0.775123 0.000190 -0.000017 -0.000421
N -3.235633 3.623051 4.460907 0.000097 -0.000112 -0.000444
N -3.282790 3.691933 -5.978740 0.000115 -0.000265 -0.000522
N -3.199085 3.698764 -0.772610 -0.000040 -0.000270 -0.000382
N -0.024918 -1.888812 4.426904 0.000196 -0.000353 -0.000409
N -0.021384 -1.942784 -6.032026 0.000295 -0.000145 -0.000246
N -0.064639 -1.870163 -0.762794 0.000211 -0.000193 -0.000412
N 0.017773 1.784452 1.853858 -0.000209 0.000303 -0.000316
N 0.023706 1.838210 7.063588 -0.000226 0.000078 -0.000503
N -0.022890 1.817500 -3.459785 -0.000225 0.000240 -0.000279
N 3.190262 -3.751777 1.774307 -0.000115 0.000194 0.000015
N 3.237573 -3.777789 7.067615 -0.000111 0.000203 -0.000415
N 3.197125 -3.750357 -3.396050 -0.000040 0.000120 -0.000442
N 1.588426 -0.916746 1.843652 -0.000257 -0.000068 -0.000437
N 1.540642 -0.937494 7.074608 -0.000106 -0.000016 -0.000592
N 1.586481 -0.972586 -3.390134 -0.000201 0.000033 -0.000390
N 3.146323 1.789154 1.851071 0.000010 0.000188 -0.000324
N 3.184195 1.764245 7.078944 -0.000120 -0.000010 -0.000447
N 3.193424 1.809480 -3.406238 -0.000134 -0.000033 -0.000453
N 6.408756 -3.750796 1.824938 -0.000001 0.000026 -0.000806
N 6.363251 -3.775060 7.062704 0.000087 -0.000015 -0.000501
N 6.400977 -3.748129 -3.379689 -0.000055 -0.000066 -0.000359
N 4.798975 -0.966382 1.776868 -0.000253 -0.000039 0.000094
N 4.800152 -0.918801 7.050318 -0.000229 -0.000261 -0.000464
N 4.798853 -0.965634 -3.388108 -0.000230 -0.000127 -0.000498
N -3.235436 1.813985 1.825550 -0.000257 0.000179 -0.000453
N -3.278811 1.792748 7.003981 -0.000158 0.000104 -0.000266
N -3.242164 1.813597 -3.382443 -0.000248 0.000091 -0.000402
N -0.020457 -3.752175 1.838980 -0.000149 0.000065 -0.000240
N -0.021267 -3.697699 7.052598 -0.000104 -0.000094 -0.000413
N -0.018558 -3.742624 -3.448210 -0.000074 0.000044 -0.000153
N -1.628531 -0.961105 1.771327 -0.000307 0.000048 0.000053
N -1.584486 -0.989031 7.065219 -0.000314 -0.000031 -0.000401
N -1.625998 -0.969178 -3.397282 -0.000285 -0.000074 -0.000427
