108
Energy=-711317.012228 Lattice="9.450717 0.000000 0.000000 -4.733674 8.176363 0.000000 0.006056 -0.003806 15.204814" Stress="0.000048 -0.000003 -0.000000 -0.000003 0.000040 -0.000001 -0.000000 -0.000001 0.000062" Properties=species:S:1:pos:R:3:forces:R:3
Al 1.558755 0.869637 2.383263 -0.000352 0.000578 0.000871
Al 1.562802 0.863231 7.468344 0.000501 0.002435 0.002000
Al 1.544484 0.871339 -2.703809 0.001637 0.000771 -0.005232
Al -0.014537 3.590688 2.370117 -0.000802 0.001070 -0.002820
Al -0.014680 3.591480 7.476491 -0.000203 0.000554 0.000348
Al -0.018044 3.592971 -2.694664 -0.000356 -0.000498 0.000753
Al 3.149323 -1.858911 2.389246 -0.000501 -0.000531 -0.001065
Al 3.145117 -1.854607 7.464499 0.002608 -0.000885 0.001987
Al 3.148706 -1.854273 -2.696666 -0.000471 0.000178 -0.000476
Al -4.753025 0.868400 2.386849 0.000382 0.000097 -0.000744
Al -4.753952 0.869177 7.455269 0.000513 -0.000532 0.000592
Al -4.761818 0.863411 -2.692190 0.000384 0.000568 0.000396
Al -6.334860 3.589566 2.381187 -0.000220 -0.000300 -0.001463
Al -6.335597 3.583473 7.468531 0.001273 0.000382 -0.000001
Al -6.341461 3.596030 -2.690304 0.000497 -0.000912 -0.000304
Al -3.164369 -1.858875 2.383504 -0.000650 -0.000138 -0.000545
Al -3.170502 -1.855589 7.456328 -0.000262 0.000077 0.000951
Al -3.169560 -1.853530 -2.689259 -0.000024 0.000413 -0.000255
Al -1.611042 0.869323 2.378711 0.000924 -0.000147 -0.000740
Al -1.612712 0.876200 7.465255 0.001045 -0.000658 0.001186
Al -1.606091 0.869464 -2.691364 0.000854 -0.000216 0.001143
Al -3.176319 3.591212 2.370949 0.000679 -0.000002 -0.006450
Al -3.174035 3.583190 7.481436 0.002879 -0.001305 0.001051
Ga -3.180977 3.600923 -2.678193 0.001081 -0.000707 0.001087
Al -0.024544 -1.853210 2.389334 0.000431 0.000176 -0.000744
Ga -0.010636 -1.848234 7.468813 0.000455 0.000734 0.000809
Al -0.028551 -1.848580 -2.674800 -0.000189 0.000182 -0.003479
Ga -0.018435 1.764623 4.924783 -0.000802 0.000585 0.000561
Al -0.029660 1.775181 -5.222620 -0.000137 0.000375 0.000143
Al -0.039826 1.782823 -0.155875 0.003706 -0.001001 -0.002615
Ga 3.141617 -3.674183 4.923467 -0.000786 0.000129 0.000331
Al 3.137419 -3.673706 -5.224826 -0.000446 0.001137 -0.000291
Al 3.140220 -3.676409 -0.147877 0.003322 0.000980 0.003293
Al 1.574124 -0.943998 4.910679 -0.000210 0.000200 0.002632
Al 1.564447 -0.949337 -5.201020 -0.000150 0.000649 0.000287
Ga 1.569302 -0.943927 -0.156283 -0.001137 0.000151 0.000988
Al 3.125874 1.770449 4.927054 0.000658 -0.000105 0.000393
Al 3.120352 1.780363 -5.220345 0.000112 -0.000532 0.001110
Al 3.116350 1.780415 -0.163569 0.004234 0.001512 -0.000213
Al 6.290290 -3.666239 4.927583 -0.002015 -0.001088 -0.001562
Al 6.281335 -3.669546 -5.216618 -0.000340 0.000166 0.000813
Al 6.277420 -3.672823 -0.161070 -0.000611 0.000153 -0.000111
Al 4.717569 -0.942123 4.924393 -0.000459 -0.000291 0.000276
Al 4.709954 -0.944043 -5.222691 -0.001203 -0.000287 0.000608
Al 4.719042 -0.948183 -0.153003 -0.000620 0.000945 -0.000719
Al -3.189519 1.765637 4.927117 0.000171 0.002805 -0.001636
Al -3.186262 1.778093 -5.223699 0.000011 -0.000151 0.001234
Al -3.186036 1.767804 -0.143242 0.000550 0.001184 -0.001384
Ga -0.028024 -3.676621 4.915594 0.000541 -0.000438 -0.000033
Al -0.028986 -3.670505 -5.212609 0.000428 -0.000196 0.000156
Al -0.055983 -3.660296 -0.139717 0.009577 -0.009210 0.002108
Al -1.604736 -0.941550 4.915899 -0.000732 -0.000758 0.000611
Al -1.600766 -0.939084 -5.207650 -0.000800 0.000151 0.001472
Al -1.605868 -0.949931 -0.148535 -0.002209 0.002976 -0.000843
N 1.592476 0.847481 4.301617 0.000943 0.000082 -0.001401
N 1.548635 0.864859 -5.813451 0.000324 0.000147 0.000530
N 1.562238 0.916644 -0.818082 -0.008167 0.000560 0.013131
N 0.014440 3.609920 4.270405 0.003329 0.001005 0.003923
N -0.021449 3.595969 -5.815376 0.000288 -0.000511 0.000294
N -0.028599 3.594933 -0.765866 0.000789 -0.000730 0.001147
N 3.146727 -1.817705 4.302909 -0.000297 0.001665 0.000149
N 3.133606 -1.852705 -5.819560 0.000033 0.000132 0.000647
N 3.178716 -1.878490 -0.779936 0.000441 -0.001073 0.000711
N -4.755191 0.868135 4.320540 0.000468 0.000497 -0.000742
N -4.759512 0.871260 -5.825756 0.000658 0.000391 -0.001162
N -4.759603 0.867670 -0.764864 0.001140 0.000548 0.000764
N -6.371089 3.567671 4.299206 -0.000745 -0.000727 -0.000367
N -6.334191 3.596517 -5.817961 -0.000003 0.000007 -0.000576
N -6.337386 3.594347 -0.767659 0.001439 0.000706 0.001815
N -3.166405 -1.859230 4.315168 -0.000163 0.000129 -0.000598
N -3.168026 -1.853785 -5.822072 0.000344 0.000162 -0.000524
N -3.170314 -1.855854 -0.765410 0.000618 -0.000475 0.001111
N -1.647608 0.851089 4.301651 0.000594 0.000052 -0.002023
N -1.612521 0.874532 -5.817994 0.001017 -0.000824 -0.000844
N -1.610220 0.870461 -0.759790 0.001607 -0.001357 0.000489
N -3.177497 3.559676 4.260943 0.000580 -0.005616 0.006735
N -3.183137 3.600069 -5.806096 0.000136 -0.000949 0.000399
N -3.154168 3.596346 -0.694705 -0.013619 0.001760 0.000989
N -0.020404 -1.807135 4.310361 0.000475 0.001214 0.000297
N -0.020374 -1.844957 -5.762980 -0.000232 -0.000484 0.001203
N -0.063696 -1.876988 -0.748793 0.000939 0.002102 -0.006330
N -0.023598 1.769061 1.777811 0.000298 -0.000398 -0.001446
N -0.021307 1.771501 6.909202 -0.000027 -0.000053 0.000439
N -0.030742 1.776260 -3.299932 -0.000860 0.000277 0.000443
N 3.141557 -3.675815 1.787984 -0.000172 0.001397 -0.002959
N 3.135614 -3.682338 6.907975 0.000449 0.000461 0.000800
N 3.173004 -3.655902 -3.312619 0.000577 0.001263 -0.000125
N 1.563953 -0.951394 1.831866 -0.000310 -0.000201 -0.001557
N 1.617427 -0.926292 6.851816 -0.004148 -0.000744 -0.008162
N 1.562285 -0.953892 -3.279028 -0.001283 -0.000142 0.001355
N 3.126028 1.775649 1.766140 -0.000621 -0.000487 0.000035
N 3.124176 1.777668 6.855721 -0.000023 -0.000015 -0.001109
N 3.121108 1.780842 -3.298380 0.000644 0.000113 -0.000399
N 6.287305 -3.671278 1.766391 -0.000202 0.000043 -0.000882
N 6.285938 -3.673620 6.855581 0.000014 -0.000163 -0.001218
N 6.280142 -3.670084 -3.294824 -0.000040 0.000376 0.000976
N 4.715755 -0.946839 1.774505 -0.000669 -0.000080 0.000890
N 4.713095 -0.948449 6.853509 -0.000130 -0.000240 -0.001173
N 4.711662 -0.944480 -3.299925 -0.000179 -0.000286 -0.000011
N -3.182319 1.771937 1.774386 -0.000063 -0.000829 0.000672
N -3.179796 1.779248 6.856545 0.000384 0.000265 -0.001664
N -3.184559 1.739444 -3.308185 0.000065 -0.001922 0.000274
N -0.026665 -3.674147 1.796457 -0.000985 0.001698 -0.002770
N -0.004496 -3.722509 6.890659 -0.005046 0.000255 -0.000053
N -0.062735 -3.649460 -3.300686 -0.001103 0.000508 0.001178
N -1.594911 -0.946562 1.774244 -0.000412 -0.000672 0.001309
N -1.627332 -0.923474 6.837932 -0.001294 0.000127 -0.001809
N -1.597030 -0.941877 -3.285974 -0.000562 -0.000394 0.000729
