108
Energy=-8.028681e+05 Lattice="9.439779e+00 0.000000e+00 0.000000e+00 -4.721801e+00 8.171766e+00 0.000000e+00 1.477308e-03 -8.512704e-05 1.517452e+01" Stress="2.898032e-04 -1.440163e-04 1.724811e-04 -1.354267e-04 -3.133893e-04 1.426095e-05 1.598336e-04 6.414826e-06 6.704274e-04" Properties=species:S:1:pos:R:3:forces:R:3 Config_type=AlGaN_super3_8_1_31.xyz
Al 1.555051e+00 8.772705e-01 2.373432e+00 -1.337229e-04 5.767321e-05 8.114958e-05
Al 1.556700e+00 8.777696e-01 7.443075e+00 -3.476474e-07 1.799100e-04 1.472146e-04
Al 1.550812e+00 8.719230e-01 -2.684149e+00 1.218993e-04 -3.150818e-05 2.153087e-04
Al -8.899112e-03 3.584128e+00 2.384195e+00 1.179532e-04 6.977621e-05 4.089338e-05
Al -1.404537e-02 3.586450e+00 7.446398e+00 -2.587832e-05 1.410782e-04 -1.123180e-04
Al -1.145182e-02 3.590612e+00 -2.692713e+00 1.200080e-04 -3.819659e-05 1.502525e-04
Al 3.129732e+00 -1.844889e+00 2.395576e+00 -3.763121e-05 2.151312e-04 1.990199e-04
Al 3.130749e+00 -1.849297e+00 7.442732e+00 1.619303e-04 -8.775681e-05 -1.092101e-04
Al 3.120004e+00 -1.852035e+00 -2.689131e+00 1.110034e-04 -5.479021e-05 -1.225620e-04
Al -4.741823e+00 8.751531e-01 2.393525e+00 -6.051803e-05 2.479067e-05 -2.065716e-04
Al -4.744079e+00 8.734392e-01 7.422199e+00 9.959447e-05 1.325167e-04 -5.077696e-05
Al -4.750097e+00 8.752884e-01 -2.677946e+00 2.494015e-04 6.656640e-05 -1.555363e-05
Al -6.321860e+00 3.586343e+00 2.378822e+00 -2.459029e-04 -2.686644e-05 -7.027024e-05
Al -6.321762e+00 3.583303e+00 7.439639e+00 8.332321e-05 1.580283e-05 9.814250e-06
Al -6.328943e+00 3.589776e+00 -2.680476e+00 2.255265e-05 4.755616e-05 9.566117e-05
Al -3.175948e+00 -1.863042e+00 2.378105e+00 1.999378e-04 -6.886658e-05 -6.268294e-05
Al -3.178214e+00 -1.862191e+00 7.445721e+00 -2.206265e-04 -1.131532e-04 -3.865397e-05
Al -3.159291e+00 -1.862669e+00 -2.679994e+00 -2.263640e-05 -3.093868e-06 -1.049253e-04
Al -1.597842e+00 8.840438e-01 2.367857e+00 3.492068e-05 -9.970830e-05 -1.540151e-04
Al -1.598184e+00 8.854757e-01 7.451861e+00 6.064878e-05 -8.256368e-05 1.233791e-04
Al -1.595548e+00 8.644488e-01 -2.682203e+00 2.067418e-04 -2.339179e-04 2.579777e-05
Al -3.176238e+00 3.578813e+00 2.378877e+00 -4.025510e-04 -2.098979e-04 -3.280078e-04
Al -3.170745e+00 3.580091e+00 7.454747e+00 -3.100580e-04 1.761229e-05 8.134939e-05
Ga -3.172132e+00 3.588309e+00 -2.686329e+00 1.632137e-04 -7.899515e-05 -2.395886e-04
Ga -1.494223e-02 -1.856655e+00 2.375009e+00 -8.898093e-05 4.015782e-05 -8.410729e-05
Ga -1.348325e-02 -1.856715e+00 7.454707e+00 9.367455e-05 -6.386907e-05 1.020331e-05
Al -2.813626e-02 -1.845909e+00 -2.682745e+00 1.057996e-04 -2.143914e-04 -1.283788e-04
Al -1.229471e-02 1.773776e+00 4.912607e+00 1.311553e-06 -7.551614e-05 1.391018e-05
Al -2.340506e-02 1.775224e+00 -5.206485e+00 -2.579119e-05 2.344039e-04 1.608328e-04
Al -1.935008e-02 1.769465e+00 -1.601025e-01 1.316689e-04 5.611561e-06 8.778579e-06
Ga 3.124894e+00 -3.675558e+00 4.912696e+00 -9.359987e-05 5.666446e-05 -1.051992e-04
Al 3.125265e+00 -3.677476e+00 -5.223549e+00 1.227895e-05 7.249255e-05 1.350956e-04
Ga 3.128870e+00 -3.676701e+00 -1.301116e-01 -4.671568e-05 -2.995615e-07 6.167232e-05
Al 1.564708e+00 -9.290941e-01 4.916683e+00 9.886363e-05 1.627444e-04 2.485464e-04
Al 1.546513e+00 -9.404942e-01 -5.194281e+00 -4.269656e-05 -3.149146e-05 7.788307e-05
Al 1.542373e+00 -9.354829e-01 -1.639572e-01 -1.648105e-04 1.470427e-04 4.366418e-05
Al 3.120448e+00 1.778695e+00 4.905498e+00 -9.489290e-05 -2.164389e-05 -9.797581e-05
Al 3.117463e+00 1.784520e+00 -5.212239e+00 1.185350e-04 7.137033e-05 4.714667e-05
Al 3.116774e+00 1.786201e+00 -1.482744e-01 2.011510e-04 1.263104e-04 9.554921e-06
Al 6.280076e+00 -3.679693e+00 4.913696e+00 -1.071046e-04 -8.504280e-05 -8.287479e-05
Al 6.276655e+00 -3.681418e+00 -5.207473e+00 3.835267e-05 -3.342135e-05 6.077253e-05
Al 6.284447e+00 -3.680746e+00 -1.533432e-01 1.429724e-04 2.844317e-05 9.043583e-05
Al 4.696501e+00 -9.411414e-01 4.912480e+00 1.179435e-04 2.058880e-04 1.207836e-04
Ga 4.697618e+00 -9.435424e-01 -5.200832e+00 -1.021045e-04 1.864240e-04 5.174276e-05
Ga 4.701653e+00 -9.373067e-01 -1.504234e-01 1.120548e-05 -5.104117e-06 -8.047106e-05
Al -3.174342e+00 1.777066e+00 4.912919e+00 -2.843097e-04 2.656582e-04 -1.106848e-04
Al -3.168837e+00 1.777608e+00 -5.217590e+00 -2.404289e-05 1.278298e-05 1.906049e-04
Al -3.172249e+00 1.770172e+00 -1.398662e-01 1.792997e-04 -1.403240e-04 7.831214e-05
Al -2.654841e-02 -3.691447e+00 4.915631e+00 2.338822e-05 -2.554024e-05 -3.215574e-05
Al -3.069610e-02 -3.675988e+00 -5.202685e+00 8.405171e-05 4.785948e-05 2.524728e-05
Al -3.876062e-02 -3.671073e+00 -1.552328e-01 -1.314550e-04 -1.493466e-04 -3.068846e-04
Ga -1.603226e+00 -9.389426e-01 4.913954e+00 -2.775306e-04 1.653549e-04 -2.071894e-05
Al -1.593838e+00 -9.412152e-01 -5.197680e+00 -2.966705e-05 -7.838860e-05 1.120469e-04
Al -1.591197e+00 -9.436348e-01 -1.586757e-01 -1.982754e-04 2.271599e-04 -1.127314e-04
N 1.549603e+00 8.716488e-01 4.297387e+00 1.651870e-04 -6.397380e-06 -4.452148e-05
N 1.548811e+00 8.699109e-01 -5.808617e+00 6.475387e-05 -1.432236e-05 -1.289677e-04
N 1.551653e+00 8.737456e-01 -7.623913e-01 1.337798e-04 -6.189064e-05 3.384279e-05
N 2.505900e-02 3.565066e+00 4.296948e+00 -2.433910e-04 -1.627649e-05 -1.226569e-04
N -1.768662e-02 3.588194e+00 -5.810097e+00 -3.328313e-05 -1.082188e-04 3.295063e-05
N 1.813088e-02 3.569256e+00 -7.738920e-01 -3.165338e-05 1.355653e-04 -4.242876e-04
N 3.124627e+00 -1.805779e+00 4.303136e+00 -2.028452e-04 -2.098556e-04 -4.028669e-04
N 3.080443e+00 -1.871577e+00 -5.822809e+00 1.522641e-04 -6.428734e-05 8.773037e-05
N 3.082728e+00 -1.836492e+00 -7.882776e-01 -3.326404e-06 -2.232270e-05 1.720720e-04
N -4.742925e+00 8.718293e-01 4.316791e+00 2.321401e-04 4.706986e-05 1.551590e-04
N -4.747737e+00 9.177279e-01 -5.838903e+00 -2.012691e-05 -1.305176e-04 -7.791964e-05
N -4.746623e+00 9.244728e-01 -7.685535e-01 -9.851827e-05 -9.083786e-05 1.779644e-04
N -6.317908e+00 3.592659e+00 4.301021e+00 1.042147e-04 -5.970132e-05 9.230576e-06
N -6.319222e+00 3.591105e+00 -5.817070e+00 -6.116681e-05 4.007741e-06 -5.904848e-05
N -6.319763e+00 3.590459e+00 -7.615781e-01 -6.134743e-05 -1.927376e-04 -9.981574e-05
N -3.209422e+00 -1.883985e+00 4.291021e+00 8.357981e-05 5.517226e-05 1.917700e-04
N -3.129912e+00 -1.881692e+00 -5.818481e+00 7.381239e-05 1.497883e-04 7.316569e-05
N -3.126571e+00 -1.882499e+00 -7.688204e-01 2.438240e-04 -1.488317e-04 7.658948e-05
N -1.594569e+00 9.230077e-01 4.283111e+00 3.693432e-04 -8.142490e-05 -8.454102e-06
N -1.595789e+00 8.730019e-01 -5.806346e+00 2.941348e-04 -1.858542e-04 -1.272388e-04
N -1.599681e+00 8.727556e-01 -7.577114e-01 1.584645e-04 -7.841852e-05 5.283759e-05
N -3.213503e+00 3.565811e+00 4.287389e+00 1.795972e-05 -2.984460e-05 6.615925e-04
N -3.176447e+00 3.591897e+00 -5.801028e+00 1.762702e-05 -1.309271e-04 1.039541e-04
N -3.209180e+00 3.568945e+00 -7.179626e-01 -4.744902e-05 1.407100e-04 1.238612e-04
N 2.310411e-02 -1.878687e+00 4.350747e+00 -1.013698e-04 -3.065321e-04 8.189807e-05
N -2.085308e-02 -1.854121e+00 -5.746594e+00 -4.434137e-05 2.071699e-05 -7.469265e-05
N -2.365035e-02 -1.852859e+00 -7.544980e-01 1.973850e-04 -2.140920e-04 1.250209e-04
N -1.915369e-02 1.776131e+00 1.762265e+00 -1.590006e-04 -4.672156e-05 -1.081352e-05
N -2.035654e-02 1.773712e+00 6.837644e+00 -1.313115e-04 1.424373e-04 -1.712829e-05
N -2.423469e-02 1.773903e+00 -3.285321e+00 -1.022624e-04 7.334865e-05 -4.287849e-05
N 3.129123e+00 -3.670373e+00 1.850263e+00 2.394719e-04 -6.046180e-05 1.396268e-04
N 3.124823e+00 -3.675664e+00 6.895769e+00 4.426240e-04 1.245908e-04 3.216150e-05
N 3.168327e+00 -3.650796e+00 -3.308367e+00 -2.014685e-04 7.653156e-05 -4.080335e-06
N 1.596498e+00 -9.204236e-01 1.749401e+00 -1.082528e-04 1.708695e-05 -1.228040e-04
N 1.596180e+00 -9.171373e-01 6.825421e+00 -3.741967e-04 -4.589816e-05 -3.250565e-04
N 1.550272e+00 -9.429474e-01 -3.279083e+00 -1.891824e-04 1.966089e-04 -6.600500e-05
N 3.126096e+00 1.777370e+00 1.777230e+00 -1.041395e-04 -2.034496e-04 9.060587e-05
N 3.120241e+00 1.778466e+00 6.826857e+00 -6.389714e-05 -1.471038e-04 -3.206673e-05
N 3.120899e+00 1.778048e+00 -3.290527e+00 1.762469e-05 -8.161867e-05 -1.235633e-04
N 6.274005e+00 -3.673747e+00 1.767727e+00 -8.999541e-05 -1.260452e-05 -5.477048e-05
N 6.273797e+00 -3.673487e+00 6.834786e+00 -5.076543e-05 2.648075e-05 -3.060076e-05
N 6.273083e+00 -3.672681e+00 -3.291359e+00 5.543451e-06 -4.921332e-05 3.888057e-06
N 4.699421e+00 -9.431794e-01 1.826891e+00 -3.491893e-04 1.978248e-04 1.121182e-05
N 4.700683e+00 -9.483155e-01 6.837776e+00 -5.832045e-05 -8.647057e-05 2.416239e-06
N 4.700531e+00 -9.455055e-01 -3.224099e+00 -2.768493e-05 2.713452e-05 -9.020209e-05
N -3.172481e+00 1.771534e+00 1.774770e+00 -6.775265e-05 -8.078462e-06 2.801261e-05
N -3.165443e+00 1.777743e+00 6.833945e+00 8.327279e-05 2.501541e-05 -1.178403e-04
N -3.170612e+00 1.724380e+00 -3.309074e+00 -1.640875e-04 1.581173e-04 -2.199721e-04
N -2.748424e-02 -3.719683e+00 1.754242e+00 2.582651e-04 2.433205e-04 1.401964e-04
N -2.054515e-02 -3.723287e+00 6.828274e+00 -4.199536e-05 -6.680866e-05 3.946950e-05
N -6.809576e-02 -3.649616e+00 -3.293564e+00 -1.678717e-04 8.920284e-05 1.679051e-04
N -1.636878e+00 -9.219016e-01 1.760750e+00 1.011143e-04 -1.014535e-04 7.237191e-05
N -1.637405e+00 -9.192348e-01 6.880746e+00 1.293911e-04 5.364055e-05 -6.162537e-05
N -1.597821e+00 -9.434754e-01 -3.279146e+00 -1.273599e-04 8.771340e-05 6.261633e-05
