108
Energy=-2.633888e+06 Lattice="9.665849e+00 0.000000e+00 0.000000e+00 -4.843495e+00 8.355501e+00 0.000000e+00 6.206190e-02 -1.178684e-01 1.568407e+01" Stress="-4.294229e-03 5.856128e-04 2.285741e-03 5.844677e-04 -3.031325e-03 -3.896437e-03 2.278705e-03 -3.883019e-03 -2.457565e-03" Properties=species:S:1:pos:R:3:forces:R:3 Config_type=AlGaN_super3_48_1_7.xyz
Al 1.615411e+00 8.210049e-01 2.479772e+00 -2.939786e-04 4.311716e-04 -6.303517e-04
Ga 1.621297e+00 8.270401e-01 7.675495e+00 1.128647e-03 -1.436411e-03 6.890503e-04
Ga 1.557243e+00 9.569837e-01 -2.752789e+00 1.092157e-03 -2.154486e-03 -4.087517e-04
Al 1.024167e-02 3.582033e+00 2.470814e+00 2.446292e-04 2.091504e-04 -5.779442e-04
Ga 9.585912e-03 3.601582e+00 7.688425e+00 2.823833e-04 -1.278472e-04 6.596439e-04
Ga -4.535596e-02 3.725739e+00 -2.751594e+00 3.839369e-04 -3.495085e-04 -3.616031e-04
Ga 3.241021e+00 -1.978377e+00 2.473720e+00 -4.333410e-04 2.730138e-04 -5.985884e-04
Ga 3.240903e+00 -1.967288e+00 7.689511e+00 2.721674e-04 -2.996771e-04 3.030811e-04
Ga 3.178678e+00 -1.841611e+00 -2.754998e+00 6.077727e-04 -7.161042e-04 -5.052538e-04
Ga -4.835792e+00 8.190184e-01 2.481894e+00 8.125516e-04 -1.909798e-04 -8.968415e-04
Ga -4.835362e+00 8.300774e-01 7.680970e+00 1.632426e-04 -1.336958e-03 8.634820e-05
Ga -4.894789e+00 9.604200e-01 -2.753342e+00 6.367702e-04 -2.150283e-03 -9.376556e-04
Ga -6.451912e+00 3.584539e+00 2.477593e+00 3.618731e-06 1.404132e-03 -2.015170e-05
Ga -6.440155e+00 3.600991e+00 7.675529e+00 1.520611e-05 -3.628005e-04 5.847562e-04
Al -6.502116e+00 3.731653e+00 -2.761992e+00 2.550337e-04 -3.163783e-04 1.627364e-04
Ga -3.201946e+00 -1.964111e+00 2.452905e+00 6.931898e-04 -3.097264e-04 5.852288e-04
Ga -3.203403e+00 -1.964601e+00 7.690726e+00 1.827369e-05 -4.473050e-04 4.395674e-04
Ga -3.255923e+00 -1.844816e+00 -2.744746e+00 -4.030471e-04 -6.540349e-04 -2.546528e-04
Al -1.599860e+00 8.207343e-01 2.469751e+00 1.899179e-03 1.564122e-03 -2.415075e-03
Ga -1.609656e+00 8.289903e-01 7.686032e+00 2.247780e-03 -1.170239e-03 -3.390387e-04
Ga -1.671045e+00 9.476897e-01 -2.733799e+00 2.335031e-03 -1.100505e-03 8.607771e-04
Ga -3.210114e+00 3.593404e+00 2.470696e+00 9.122081e-04 1.553304e-03 -6.776732e-04
Ga -3.221126e+00 3.610048e+00 7.693273e+00 1.446955e-03 2.046219e-04 -3.713373e-04
Ga -3.290769e+00 3.733577e+00 -2.751924e+00 1.925800e-03 -3.555290e-05 -1.376159e-03
Ga -6.290294e-04 -1.945699e+00 2.443118e+00 1.039453e-03 1.529754e-04 2.113442e-03
Ga 1.109835e-02 -1.959257e+00 7.690622e+00 1.857071e-03 -2.405006e-04 4.119081e-05
Ga -5.868772e-02 -1.839915e+00 -2.747423e+00 2.599000e-03 -4.139746e-04 -1.609805e-03
Ga 1.867681e-02 1.743244e+00 5.041802e+00 -1.625111e-03 1.218575e-04 3.199033e-04
Ga -5.146754e-02 1.866227e+00 -5.373790e+00 -1.695397e-03 1.864471e-04 4.300829e-04
Ga -5.169829e-02 1.871187e+00 -1.077366e-01 -1.626523e-03 -4.477282e-03 2.351081e-03
Ga 3.249187e+00 -3.831379e+00 5.071625e+00 -1.148112e-03 -2.556168e-04 -1.274933e-04
Ga 3.183043e+00 -3.703653e+00 -5.370768e+00 -1.531540e-03 -4.680032e-05 -3.990379e-04
Ga 3.184586e+00 -3.691371e+00 -1.338034e-01 5.315321e-04 -4.786500e-03 2.618644e-03
Ga 1.637084e+00 -1.034340e+00 5.066248e+00 -2.703423e-03 1.914878e-03 -9.606616e-04
Ga 1.572223e+00 -9.192368e-01 -5.372253e+00 -2.219773e-03 1.415737e-03 -8.481318e-04
Ga 1.564166e+00 -9.038155e-01 -1.343103e-01 5.122357e-04 -2.176814e-03 2.177521e-03
Al 3.223055e+00 1.743934e+00 5.064806e+00 -7.405597e-04 3.657773e-05 5.793813e-04
Ga 3.164655e+00 1.875886e+00 -5.369712e+00 -1.749381e-04 1.539482e-05 6.608251e-04
Ga 3.161997e+00 1.889679e+00 -1.455962e-01 1.486365e-03 -4.354992e-03 2.339779e-03
Ga 6.460031e+00 -3.832566e+00 5.064201e+00 -2.478707e-04 2.813997e-04 -1.578857e-05
Ga 6.404227e+00 -3.703541e+00 -5.365517e+00 -3.194138e-04 3.775834e-04 2.839978e-04
Ga 6.407710e+00 -3.691079e+00 -1.447903e-01 7.802255e-04 -4.402594e-03 2.314453e-03
Ga 4.848899e+00 -1.036380e+00 5.080154e+00 -4.727040e-04 1.750042e-03 -8.352959e-04
Ga 4.790433e+00 -9.175768e-01 -5.371472e+00 -5.393353e-04 1.600885e-03 -4.559857e-04
Ga 4.798631e+00 -9.042727e-01 -1.413588e-01 1.195173e-03 -2.848073e-03 1.825311e-03
Ga -3.221789e+00 1.745691e+00 5.065557e+00 -4.270619e-04 1.687912e-04 1.512070e-04
Ga -3.279652e+00 1.872443e+00 -5.373977e+00 -3.629638e-04 3.599818e-04 7.926571e-04
Ga -3.275805e+00 1.874532e+00 -1.271258e-01 3.050538e-03 -4.566673e-03 2.520600e-03
Ga 9.932360e-03 -3.826168e+00 5.072679e+00 -3.848433e-04 8.275961e-04 -2.630832e-04
Ga -5.327340e-02 -3.699518e+00 -5.366532e+00 3.254448e-05 4.103757e-04 2.582946e-04
Ga -5.934580e-02 -3.683941e+00 -1.599926e-01 1.546254e-03 -5.553703e-03 2.997247e-03
Ga -1.595947e+00 -1.033705e+00 5.064007e+00 -6.056501e-04 1.638565e-03 8.961376e-04
Ga -1.656657e+00 -9.130706e-01 -5.372943e+00 -8.558956e-04 1.623952e-03 3.809153e-04
Al -1.646623e+00 -9.196818e-01 -1.358686e-01 -2.505435e-03 2.673070e-03 1.814301e-03
N 1.657322e+00 8.411687e-01 4.406057e+00 3.038908e-03 -4.188681e-04 -9.936966e-04
N 1.557982e+00 9.466171e-01 -6.021191e+00 8.651721e-04 -1.698638e-03 -2.507334e-04
N 1.550949e+00 9.576473e-01 -7.777915e-01 1.400433e-03 -2.451360e-03 6.211623e-04
N 8.177246e-03 3.603889e+00 4.389223e+00 8.594971e-05 3.809827e-05 -1.908168e-03
N -5.130790e-02 3.726257e+00 -6.012030e+00 2.805614e-04 -2.296425e-04 -3.048366e-04
N -5.378593e-02 3.730961e+00 -7.742634e-01 1.007632e-03 -1.471705e-03 4.976716e-04
N 3.241825e+00 -1.970567e+00 4.443065e+00 1.724856e-04 -7.318467e-05 5.036969e-04
N 3.178800e+00 -1.844701e+00 -6.013988e+00 3.700052e-04 -3.277912e-04 -9.139185e-05
N 3.177390e+00 -1.831992e+00 -7.783690e-01 6.528052e-04 -1.248492e-03 1.401686e-03
N -4.868620e+00 8.424241e-01 4.459628e+00 -1.397119e-03 2.839164e-05 1.340889e-03
N -4.894948e+00 9.491859e-01 -6.016907e+00 6.344537e-04 -1.551020e-03 -1.985724e-04
N -4.891072e+00 9.600536e-01 -7.781838e-01 1.052376e-03 -2.086936e-03 1.056279e-03
N -6.438417e+00 3.560715e+00 4.457104e+00 -1.836202e-05 -2.389091e-03 1.081005e-03
N -6.500857e+00 3.727153e+00 -6.024892e+00 7.710221e-05 -8.914524e-05 -3.936486e-04
N -6.503454e+00 3.737691e+00 -8.376485e-01 8.262611e-04 -1.190650e-03 -9.523091e-04
N -3.205509e+00 -1.964545e+00 4.432609e+00 6.611799e-06 -3.554358e-04 -2.606191e-04
N -3.266582e+00 -1.844461e+00 -6.011003e+00 1.478606e-04 -3.500222e-04 -2.940398e-04
N -3.225277e+00 -1.816038e+00 -7.583878e-01 2.474091e-03 5.009117e-04 9.280079e-04
N -1.614056e+00 8.227826e-01 4.387623e+00 2.111923e-03 -1.072165e-03 -1.059324e-03
N -1.672912e+00 9.502128e-01 -6.018204e+00 2.077577e-03 -1.402701e-03 -1.078727e-04
N -1.667975e+00 9.092827e-01 -7.414145e-01 2.653750e-03 -3.791027e-03 -1.611704e-03
N -3.220560e+00 3.608850e+00 4.441176e+00 1.073008e-03 1.883246e-04 6.271573e-04
N -3.284655e+00 3.733504e+00 -6.008943e+00 1.365008e-03 -2.330911e-06 2.944991e-05
N -3.281375e+00 3.739922e+00 -7.758899e-01 1.878539e-03 -1.042546e-03 1.587539e-03
N 8.536302e-03 -1.961093e+00 4.426810e+00 1.815773e-03 -2.786684e-04 1.801524e-04
N -5.042296e-02 -1.839949e+00 -6.011798e+00 1.756982e-03 -2.726644e-04 4.103735e-05
N -8.532506e-02 -1.809195e+00 -7.665664e-01 1.392378e-03 7.325969e-05 2.846982e-03
N 1.285100e-02 1.732478e+00 1.902109e+00 -2.438866e-03 5.406353e-03 -1.492811e-03
N 1.140094e-02 1.746253e+00 7.030689e+00 -1.905763e-03 -5.949581e-05 -4.900694e-04
N -5.372548e-02 1.868021e+00 -3.393066e+00 -2.055397e-03 7.801621e-05 -4.273838e-04
N 3.284086e+00 -3.859202e+00 1.855316e+00 -2.123791e-03 3.607476e-03 -3.051981e-03
N 3.246091e+00 -3.828091e+00 7.050756e+00 -1.600379e-03 2.079506e-05 1.076296e-04
N 3.183022e+00 -3.702998e+00 -3.392829e+00 -1.608868e-03 -7.450962e-05 5.498220e-04
N 1.637875e+00 -1.000920e+00 1.857743e+00 -4.837408e-03 6.123452e-03 -2.080428e-03
N 1.633726e+00 -1.040596e+00 7.046147e+00 -2.164475e-03 1.138613e-03 3.131648e-04
N 1.569624e+00 -9.170103e-01 -3.392562e+00 -2.380375e-03 1.444988e-03 1.025786e-03
N 3.190023e+00 1.717263e+00 1.841353e+00 -3.860422e-03 3.448568e-03 -1.348259e-03
N 3.225505e+00 1.748017e+00 6.994370e+00 -1.218741e-05 1.050597e-04 -2.565221e-03
N 3.165149e+00 1.917410e+00 -3.382312e+00 -7.296544e-05 2.502394e-03 5.279181e-04
N 6.426463e+00 -3.855519e+00 1.847517e+00 -3.386117e-03 3.720321e-03 -1.778772e-03
N 6.457975e+00 -3.823104e+00 7.045157e+00 4.474164e-05 3.521146e-04 -4.847564e-04
N 6.436600e+00 -3.718343e+00 -3.376364e+00 1.825536e-03 -9.016511e-04 3.945329e-04
N 4.847225e+00 -1.046451e+00 1.837363e+00 -2.530173e-03 5.695974e-03 -2.716401e-03
N 4.852529e+00 -1.039404e+00 7.055722e+00 -5.139802e-04 1.409772e-03 2.202123e-04
N 4.793870e+00 -9.152021e-01 -3.389494e+00 -3.036728e-04 1.673734e-03 6.255056e-04
N -3.180619e+00 1.716045e+00 1.864056e+00 -2.054643e-03 4.099802e-03 -2.984690e-03
N -3.216724e+00 1.751102e+00 7.046424e+00 -3.412530e-04 2.669935e-04 -1.448305e-04
N -3.276046e+00 1.873744e+00 -3.390744e+00 -1.356935e-05 2.371893e-04 -4.296227e-04
N 7.425235e-03 -3.833123e+00 1.828977e+00 -2.197685e-03 5.454021e-03 -2.531709e-03
N 1.467339e-02 -3.818717e+00 7.050815e+00 -1.067197e-04 3.334333e-04 -6.006419e-05
N -8.558441e-02 -3.715216e+00 -3.377086e+00 -2.166635e-03 -9.516503e-04 1.047806e-03
N -1.607363e+00 -9.765284e-01 1.796405e+00 5.437927e-05 5.818242e-04 -2.532273e-03
N -1.594696e+00 -1.034921e+00 7.046070e+00 -8.639646e-04 1.550293e-03 -1.807046e-04
N -1.656025e+00 -9.107866e-01 -3.395174e+00 -8.775193e-04 1.787914e-03 -1.799989e-04
