108
Energy=-985969.804532 Lattice="9.464116 0.000000 0.000000 -4.736607 8.187710 0.000000 0.002311 0.010627 15.222465" Stress="-0.000001 0.000005 0.000001 0.000005 -0.000010 0.000000 0.000001 -0.000000 -0.000003" Properties=species:S:1:pos:R:3:forces:R:3
Al 1.538961 0.861673 2.374367 0.001458 -0.000861 0.002069
Al 1.554693 0.864500 7.461899 -0.000043 0.005251 0.002821
Al 1.549783 0.861112 -2.688283 0.000422 0.000404 0.000550
Al -0.035790 3.588412 2.407411 0.001172 0.002671 0.000753
Al -0.031438 3.587093 7.436355 0.000478 0.001305 0.001334
Al -0.043082 3.573833 -2.678953 0.002204 0.001503 -0.001160
Al 3.134759 -1.860780 2.385776 0.000386 0.000029 0.001020
Al 3.129114 -1.857454 7.436822 0.004227 -0.001071 0.003069
Al 3.118037 -1.869704 -2.672214 0.006778 0.003654 -0.001601
Al -4.755217 0.871075 2.387499 0.001585 0.000065 0.000125
Al -4.759316 0.888093 7.449151 0.001659 -0.001050 0.000603
Al -4.765789 0.872181 -2.678433 0.001280 0.002232 -0.000277
Al -6.368771 3.589317 2.401052 0.013045 0.003451 -0.000720
Al -6.339169 3.586939 7.466554 0.000250 0.001287 0.000354
Ga -6.336423 3.582472 -2.686381 0.000961 0.000530 0.000513
Al -3.181006 -1.852505 2.417533 -0.000903 0.000736 0.000496
Ga -3.175835 -1.847190 7.437362 0.000521 -0.000145 0.000731
Ga -3.174317 -1.841511 -2.677761 0.000447 -0.000068 -0.001786
Al -1.609676 0.888720 2.405129 -0.001192 0.000093 -0.000815
Al -1.599513 0.896308 7.453099 -0.000104 -0.001914 0.001091
Al -1.598244 0.879296 -2.703851 -0.000002 -0.000391 0.002360
Al -3.166064 3.593357 2.401028 -0.004789 0.003077 -0.003819
Al -3.167179 3.594456 7.462624 0.000548 -0.000139 0.000999
Ga -3.172722 3.598003 -2.695934 -0.000462 -0.000795 0.001012
Al -0.016433 -1.834304 2.414661 -0.000256 -0.002881 -0.000839
Ga -0.002221 -1.841174 7.465502 -0.000862 0.000285 0.000166
Al -0.008158 -1.838932 -2.704995 -0.001292 -0.000961 0.000709
Al -0.032608 1.775714 4.923451 -0.000048 0.000159 0.001605
Al -0.028154 1.765810 -5.239087 0.000212 0.000787 0.001315
Al -0.002763 1.793710 -0.113084 -0.010627 -0.006637 -0.016105
Al 3.144715 -3.681661 4.916626 -0.001096 0.001679 0.001359
Al 3.131380 -3.691523 -5.245088 0.000315 0.001771 0.001139
Al 3.145071 -3.682033 -0.134938 -0.001629 0.000636 0.002063
Al 1.567623 -0.945071 4.914563 -0.000196 0.000824 0.001015
Al 1.562324 -0.956105 -5.216400 -0.000021 0.001320 0.000701
Al 1.573405 -0.946896 -0.149330 -0.002645 -0.000493 0.000088
Ga 3.118787 1.771774 4.923630 -0.000054 -0.000200 0.001413
Al 3.128937 1.768288 -5.241320 -0.000762 -0.000541 0.000826
Al 3.140206 1.734019 -0.110525 -0.002129 0.010353 -0.008586
Al 6.273486 -3.677181 4.916564 -0.000148 0.001440 0.001319
Ga 6.287197 -3.696883 -5.232899 -0.001125 0.000104 0.000609
Ga 6.270268 -3.685252 -0.116075 0.002421 0.000116 -0.001008
Al 4.711165 -0.947672 4.912483 -0.001024 -0.000049 0.001011
Ga 4.703464 -0.937505 -5.232458 -0.002176 -0.000211 0.002180
Al 4.701079 -0.940021 -0.138074 -0.001132 -0.001252 0.001391
Al -3.166609 1.778839 4.923855 -0.001690 0.000249 0.001237
Al -3.180259 1.779090 -5.246996 -0.000099 -0.000026 0.001706
Al -3.180785 1.770228 -0.147931 0.000106 0.002701 0.002084
Ga -0.014299 -3.674440 4.922213 -0.000699 0.000737 0.000095
Al -0.012873 -3.685278 -5.242184 -0.000384 0.001538 0.000753
Ga -0.005101 -3.671147 -0.113114 -0.000925 0.001080 -0.002224
Al -1.598676 -0.927880 4.899529 -0.000782 0.000159 0.002296
Al -1.576169 -0.932238 -5.219464 -0.001646 0.000553 0.000778
Ga -1.590642 -0.925975 -0.119690 0.001255 0.001460 -0.001423
N 1.507094 0.849748 4.290440 -0.000941 -0.000448 -0.001469
N 1.547738 0.858114 -5.833505 0.000369 -0.000093 0.000015
N 1.557475 0.869162 -0.746168 0.000010 0.000620 -0.000006
N -0.029223 3.592447 4.326344 0.000062 -0.000752 -0.000819
N -0.063205 3.568579 -5.867656 -0.001616 -0.001688 -0.001505
N -0.058915 3.578323 -0.759967 -0.002451 -0.002192 -0.000596
N 3.135689 -1.859970 4.313751 0.000215 -0.000435 -0.001314
N 3.096705 -1.884431 -5.860532 -0.001075 -0.001804 -0.001655
N 3.135749 -1.865759 -0.739829 0.000975 -0.000341 -0.001325
N -4.721747 0.857250 4.300006 0.002427 -0.000606 -0.000165
N -4.758283 0.912605 -5.863890 0.001048 0.002146 -0.001798
N -4.756999 0.865950 -0.748885 -0.000035 0.001405 0.001302
N -6.378087 3.621185 4.300364 -0.000096 -0.000621 -0.002350
N -6.300472 3.572202 -5.846141 0.001868 -0.000977 -0.000338
N -6.331123 3.562491 -0.725271 0.000352 -0.008958 0.005036
N -3.178468 -1.853434 4.333654 -0.000187 -0.000626 0.000485
N -3.132566 -1.834814 -5.817346 0.001976 0.000277 -0.000300
N -3.205105 -1.833263 -0.718926 -0.002290 0.000109 0.002211
N -1.607038 0.889220 4.315650 0.001793 -0.000414 -0.000382
N -1.605789 0.872755 -5.842294 0.001133 -0.000341 -0.001377
N -1.623095 0.914589 -0.784981 0.011383 0.005087 0.003836
N -3.138716 3.579470 4.308509 0.001905 -0.001472 -0.000756
N -3.176855 3.597600 -5.834998 0.000494 -0.001271 -0.000744
N -3.140409 3.584315 -0.716484 0.001645 -0.002908 -0.000446
N -0.015006 -1.805404 4.319345 0.000782 0.000508 0.000033
N -0.016966 -1.851927 -5.784871 0.000941 -0.001506 0.001060
N 0.016264 -1.827990 -0.789684 0.001727 0.000133 0.000306
N -0.033095 1.776743 1.770218 0.001690 0.001806 0.008684
N -0.018939 1.774415 6.848124 0.000536 -0.000130 -0.001387
N -0.021847 1.770817 -3.304155 0.000742 0.000976 -0.000676
N 3.141397 -3.681704 1.795009 0.000527 0.000331 -0.000963
N 3.134880 -3.679144 6.842102 -0.000370 0.000594 -0.001024
N 3.176476 -3.665643 -3.317757 0.001158 0.003064 -0.001396
N 1.557404 -0.955513 1.779395 0.000570 0.001806 -0.001161
N 1.615036 -0.912608 6.834248 -0.004309 -0.002971 -0.004844
N 1.566980 -0.953967 -3.288495 0.000884 0.001306 -0.001210
N 3.121846 1.773600 1.793862 0.000358 -0.001284 0.002382
N 3.125081 1.781359 6.897558 -0.000658 -0.000520 0.000088
N 3.128237 1.729829 -3.318063 -0.000795 -0.002041 -0.001136
N 6.287531 -3.675053 1.861600 -0.007314 -0.000449 -0.000836
N 6.289705 -3.720727 6.836158 -0.000264 -0.001612 -0.001319
N 6.244985 -3.701670 -3.272918 -0.002679 -0.001478 0.001491
N 4.714105 -0.947909 1.793475 -0.002242 -0.000083 -0.001248
N 4.673730 -0.918149 6.830768 -0.002086 0.000608 -0.001727
N 4.679577 -0.908081 -3.263532 -0.008139 -0.007696 0.002968
N -3.181031 1.782172 1.782723 -0.001084 -0.000303 -0.000625
N -3.175899 1.786472 6.849088 -0.000599 0.000154 -0.000854
N -3.186181 1.734647 -3.323517 -0.000688 -0.001022 -0.000393
N -0.024767 -3.651033 1.848390 -0.001031 -0.007569 0.007892
N -0.016515 -3.720697 6.894810 -0.000347 0.000021 -0.000201
N -0.023562 -3.632486 -3.328304 0.000506 -0.000240 -0.001870
N -1.605796 -0.931655 1.864590 0.002143 -0.001851 -0.000651
N -1.587030 -0.891475 6.813246 0.000039 0.001016 -0.003142
N -1.555115 -0.919053 -3.306436 0.000254 0.000177 -0.001180
