108
Energy=-1169070.781967 Lattice="9.486496 0.000000 0.000000 -4.748330 8.211387 0.000000 0.014479 0.009484 15.334248" Stress="-0.000005 0.000001 0.000012 0.000001 0.000004 0.000006 0.000012 0.000006 0.000043" Properties=species:S:1:pos:R:3:forces:R:3
Al 1.566673 0.890280 2.434435 0.000258 -0.003549 -0.002580
Al 1.567919 0.853457 7.518299 -0.003331 -0.001845 -0.002080
Al 1.583287 0.858409 -2.720224 -0.015603 -0.000574 0.003355
Al 0.014270 3.604792 2.475869 -0.009550 -0.000181 -0.011520
Al -0.013762 3.629566 7.518132 0.000024 -0.003744 -0.004341
Al -0.026887 3.601988 -2.729320 -0.000169 -0.003393 0.008074
Al 3.192298 -1.834323 2.445725 -0.012999 -0.013650 -0.005902
Al 3.159235 -1.863391 7.522205 -0.005400 -0.000247 0.000531
Al 3.137536 -1.886743 -2.740706 0.004716 0.004676 0.003304
Al -4.769368 0.888585 2.463318 -0.012470 -0.009713 -0.002707
Al -4.779377 0.880135 7.514979 0.003967 -0.001915 0.000240
Ga -4.801856 0.862361 -2.742596 0.004389 -0.002282 0.004342
Al -6.352300 3.612935 2.470591 -0.002736 -0.000650 -0.006683
Ga -6.343298 3.610428 7.515213 0.000150 0.000037 -0.001470
Ga -6.371671 3.597979 -2.735228 0.003604 0.000539 0.005091
Ga -3.174255 -1.862609 2.416981 0.004281 0.002500 -0.003136
Al -3.171557 -1.852574 7.513598 -0.000056 -0.000576 0.001964
Ga -3.184587 -1.865052 -2.737354 0.002267 0.002559 0.004193
Al -1.589596 0.888973 2.483760 -0.004420 -0.004469 -0.017185
Ga -1.609077 0.887308 7.512375 0.004916 -0.000527 -0.002080
Al -1.611351 0.882413 -2.731696 0.005549 -0.001823 0.003301
Ga -3.247098 3.580335 2.432325 0.008648 0.005444 -0.001944
Al -3.182784 3.635387 7.510544 0.005055 -0.000977 -0.000623
Ga -3.186557 3.629171 -2.730208 0.002949 -0.001172 0.002317
Al 0.025393 -1.852884 2.454010 -0.012111 0.001871 -0.042067
Al -0.014569 -1.851541 7.519244 -0.014052 -0.010385 0.010860
Al -0.015560 -1.832292 -2.744654 0.001050 -0.002256 0.004995
Al -0.004219 1.795611 5.002859 -0.001417 -0.001095 -0.005054
Ga -0.019220 1.774929 -5.280487 -0.001687 0.000136 0.005900
Al -0.033179 1.766805 -0.146929 0.003544 0.004592 0.001979
Al 3.182011 -3.685125 5.003993 -0.015472 -0.006301 -0.006595
Al 3.165265 -3.685540 -5.280172 -0.008550 0.003022 0.000957
Ga 3.164790 -3.692482 -0.152023 -0.001182 -0.000572 0.010791
Ga 1.571025 -0.969436 4.964332 -0.004370 0.004338 -0.000752
Al 1.587734 -0.961124 -5.283069 -0.005548 0.000140 0.002280
Al 1.581261 -0.951936 -0.175792 -0.005696 0.000687 0.012406
Al 3.142512 1.790233 4.989411 0.000993 0.000817 -0.002291
Al 3.125468 1.768775 -5.293894 0.000351 0.001113 0.002588
Al 3.117020 1.777978 -0.155660 0.000332 0.001037 0.013450
Al 6.314248 -3.683061 5.003112 0.002789 0.000468 -0.001390
Ga 6.280928 -3.686467 -5.289641 0.001888 0.002485 0.002288
Al 6.300528 -3.702372 -0.173038 -0.002248 0.000972 0.009631
Al 4.748920 -0.947889 5.002487 -0.000981 0.005142 -0.001284
Al 4.724013 -0.953873 -5.302227 -0.001709 0.000187 0.002053
Al 4.720926 -0.955930 -0.177421 -0.000483 0.001650 0.010508
Al -3.190958 1.794837 5.000499 -0.005428 -0.007317 0.001007
Ga -3.198031 1.778453 -5.289852 -0.002643 0.003774 0.002213
Ga -3.201844 1.767538 -0.164094 0.000834 -0.001843 0.007003
Al -0.016039 -3.675783 4.995683 -0.009685 0.002837 -0.004890
Ga -0.017100 -3.671446 -5.287991 0.000342 0.000310 0.001743
Ga -0.046714 -3.675187 -0.162663 -0.001630 0.002283 0.007742
Al -1.588089 -0.950237 4.991567 0.000148 0.000558 -0.007821
Al -1.598029 -0.925192 -5.290871 -0.001200 -0.019514 0.009028
Al -1.593244 -0.945105 -0.194286 -0.001821 0.002086 0.014121
N 1.562150 0.911523 4.375986 -0.000008 0.002527 -0.004688
N 1.580232 0.854892 -5.892813 0.004659 -0.006922 -0.007072
N 1.549655 0.868461 -0.772631 0.002445 -0.000906 -0.000610
N -0.002538 3.611097 4.408093 -0.002431 0.000861 -0.005202
N -0.074740 3.621129 -5.920988 0.002224 -0.001429 -0.003140
N -0.000394 3.585994 -0.790260 0.005930 -0.005116 -0.004434
N 3.197131 -1.872528 4.384804 0.004644 -0.006840 -0.004587
N 3.153090 -1.871802 -5.884407 -0.001392 0.000844 -0.003475
N 3.150287 -1.843987 -0.794633 -0.001152 0.006064 -0.006196
N -4.768981 0.887735 4.400998 0.001331 -0.009925 -0.002881
N -4.810483 0.861957 -5.898581 -0.003053 -0.004587 -0.004364
N -4.815606 0.856254 -0.769675 -0.005786 -0.004032 0.002714
N -6.340527 3.614654 4.410869 -0.006111 0.002938 -0.003025
N -6.357434 3.579783 -5.870453 0.000433 -0.007625 0.002158
N -6.386110 3.589490 -0.764710 -0.004571 -0.006267 0.002666
N -3.169949 -1.859086 4.415727 0.000199 -0.000314 0.003003
N -3.180067 -1.829551 -5.896416 0.001508 0.006460 -0.004463
N -3.183889 -1.865936 -0.754863 0.000298 -0.000360 0.006923
N -1.606768 0.896913 4.414143 0.003746 -0.003238 -0.003710
N -1.620400 0.815356 -5.864549 0.004037 0.011274 -0.006033
N -1.584445 0.868609 -0.800064 0.003400 -0.004250 -0.002852
N -3.302262 3.551273 4.400365 0.036650 0.021194 0.009416
N -3.150613 3.634330 -5.915093 0.003840 0.001535 -0.001474
N -3.201515 3.617331 -0.770881 0.003336 -0.000846 0.000333
N -0.042130 -1.863508 4.246592 -0.005549 -0.006605 0.051131
N -0.027968 -1.820680 -5.893612 0.003632 0.007060 -0.002273
N -0.026819 -1.826027 -0.802245 0.006685 0.006665 -0.004705
N -0.006838 1.800026 1.813161 -0.006311 -0.003919 0.002156
N 0.026940 1.813504 6.895255 0.001612 0.000116 0.006696
N -0.026510 1.789992 -3.309659 0.004080 -0.004775 0.006328
N 3.163477 -3.717346 1.848392 0.006431 0.012703 0.007200
N 3.168207 -3.679666 6.928741 -0.005128 -0.000723 -0.007673
N 3.191697 -3.677613 -3.355982 -0.000852 0.000903 -0.003563
N 1.589442 -0.944553 1.842605 0.002296 -0.000386 -0.012341
N 1.493422 -1.015699 6.942324 0.033420 0.021978 0.000215
N 1.586337 -0.964046 -3.341899 -0.004408 0.002604 -0.002030
N 3.140959 1.796889 1.848298 -0.000130 -0.000085 -0.009210
N 3.138367 1.753757 6.908559 -0.002103 -0.009407 -0.004442
N 3.089862 1.761845 -3.377676 -0.000963 -0.000778 -0.005791
N 6.306960 -3.730884 1.791299 0.000463 -0.002387 -0.000001
N 6.290362 -3.664607 6.919112 -0.006066 0.004187 -0.003446
N 6.269822 -3.708684 -3.331203 -0.006590 -0.002017 -0.000839
N 4.695342 -0.925070 1.791551 0.000841 0.003608 -0.004434
N 4.738563 -0.948053 6.928556 -0.004748 0.002160 -0.001638
N 4.699729 -0.981549 -3.386491 -0.008231 -0.000900 -0.002301
N -3.250666 1.724888 1.820983 0.025422 -0.000344 0.005130
N -3.217109 1.814558 6.919916 -0.004955 0.002695 -0.002456
N -3.179649 1.776415 -3.329584 0.005243 -0.003924 0.001877
N -0.080921 -3.669533 1.819328 0.000471 0.006236 0.003452
N 0.011205 -3.662248 6.917652 0.003125 0.005637 -0.006629
N -0.031130 -3.653523 -3.329179 -0.000273 0.008239 0.002231
N -1.567557 -0.921666 1.770067 0.008535 0.004578 0.002429
N -1.587475 -0.979338 6.906852 -0.001075 -0.004939 -0.007219
N -1.572824 -0.931885 -3.357283 0.002554 0.005089 -0.002722
