108
Energy=-1443724.637818 Lattice="9.530491 0.000000 0.000000 -4.783117 8.232130 0.000000 -0.026899 0.014510 15.402017" Stress="0.000020 -0.000006 -0.000004 -0.000006 -0.000007 0.000003 -0.000004 0.000003 0.000040" Properties=species:S:1:pos:R:3:forces:R:3
Al 1.583924 0.871926 2.443592 -0.009948 0.011589 0.003687
Al 1.534167 0.870280 7.520334 0.001520 0.001425 0.001439
Al 1.568992 0.877211 -2.729268 0.000521 -0.001348 0.001683
Al -0.030330 3.610164 2.441132 0.000973 0.002240 0.000790
Al -0.060054 3.601929 7.528588 -0.000220 -0.000445 0.000800
Al -0.005926 3.607564 -2.709913 -0.000647 -0.000471 0.001515
Al 3.191362 -1.865753 2.444354 -0.010617 0.003722 0.001802
Ga 3.126789 -1.864603 7.554755 0.000806 -0.001586 0.001016
Ga 3.173564 -1.856750 -2.736979 -0.000555 0.000260 0.000279
Ga -4.820120 0.873605 2.411309 0.003252 0.002224 0.002907
Al -4.806311 0.885903 7.553877 0.001562 0.003139 0.001747
Al -4.795060 0.867418 -2.726622 0.000641 0.000322 0.001073
Ga -6.406271 3.604882 2.386784 0.001248 0.001857 0.004612
Ga -6.392703 3.614704 7.569164 0.000170 -0.000049 0.000268
Al -6.380663 3.623042 -2.712373 0.000357 -0.000536 -0.000002
Ga -3.203009 -1.862459 2.383240 0.002446 -0.001466 0.004153
Ga -3.199889 -1.844662 7.569726 0.001050 -0.001158 0.001128
Al -3.179560 -1.868731 -2.715527 -0.001213 -0.000390 0.000293
Al -1.615382 0.880200 2.446985 0.002450 0.000678 0.001868
Al -1.630650 0.886570 7.536122 -0.001213 0.000502 -0.001908
Ga -1.613444 0.859281 -2.730741 0.001620 0.000170 0.000210
Ga -3.196417 3.629057 2.447972 -0.000854 -0.000357 0.001326
Al -3.215543 3.615268 7.576272 -0.002591 -0.001990 -0.008998
Ga -3.222362 3.621252 -2.722185 0.001456 -0.000887 0.000551
Ga -0.021617 -1.835585 2.418547 0.000955 -0.001899 0.005024
Al -0.029814 -1.835961 7.550745 0.000302 -0.002648 0.002373
Al -0.011636 -1.864411 -2.691389 -0.002573 0.000868 -0.010610
Al -0.050260 1.772523 4.976930 0.000881 0.000604 0.001283
Ga -0.020590 1.762449 -5.313757 -0.000466 0.000778 0.002745
Ga -0.002488 1.784944 -0.113912 -0.002265 0.001689 -0.001065
Al 3.145398 -3.716704 4.992569 0.001038 0.002466 0.002033
Ga 3.166673 -3.715222 -5.295317 -0.000521 0.000252 0.000827
Ga 3.191643 -3.690851 -0.114191 -0.000547 -0.000711 -0.002418
Al 1.553787 -0.949471 4.981335 0.000348 0.000471 0.001598
Al 1.573405 -0.956294 -5.291914 -0.002147 -0.001682 0.001822
Ga 1.587573 -0.946538 -0.127914 -0.001660 0.001190 -0.000241
Al 3.124905 1.775297 5.001732 -0.000986 0.000419 0.002955
Ga 3.170101 1.767858 -5.281787 -0.000713 0.000045 0.001599
Al 3.151632 1.789487 -0.195368 -0.000424 0.001198 0.000918
Ga 6.311576 -3.711448 4.993649 0.000154 0.001018 0.000663
Ga 6.353209 -3.689480 -5.263923 -0.001370 -0.000722 0.001682
Al 6.354752 -3.692181 -0.185261 -0.000679 -0.000168 -0.000225
Ga 4.729522 -0.942287 4.993342 -0.001226 -0.000937 0.001496
Al 4.771618 -0.939915 -5.279540 -0.002094 -0.001251 0.000960
Al 4.761275 -0.948204 -0.171572 0.000692 -0.000907 0.000770
Al -3.217357 1.791238 5.010200 0.000689 -0.001958 0.001843
Al -3.205601 1.775817 -5.301327 0.000467 -0.001695 -0.002386
Ga -3.216962 1.781373 -0.150683 0.000873 0.000401 0.002901
Ga -0.022457 -3.693513 5.017667 -0.000303 0.000868 0.000635
Al 0.001396 -3.669637 -5.281168 0.001821 -0.002563 -0.000744
Al -0.024890 -3.685998 -0.162000 -0.001426 -0.001238 -0.000078
Al -1.612063 -0.933629 4.995245 -0.000995 0.000234 0.002818
Al -1.582003 -0.953627 -5.289877 -0.001584 -0.000679 0.002548
Al -1.603766 -0.953704 -0.164287 -0.002688 -0.001667 0.000924
N 1.550151 0.872198 4.378802 0.001702 0.001955 -0.000622
N 1.573804 0.819758 -5.956684 0.001668 0.000991 -0.001304
N 1.594446 0.892393 -0.811156 0.001884 0.000210 -0.001132
N -0.087195 3.589211 4.362862 0.000352 0.000014 -0.001010
N -0.016918 3.608314 -5.960862 0.001116 0.000590 -0.002268
N 0.011016 3.631017 -0.793620 0.000838 0.000727 -0.000581
N 3.111322 -1.894634 4.372504 -0.000143 -0.000700 -0.001406
N 3.168771 -1.832338 -5.861418 0.001172 0.002041 0.001510
N 3.203692 -1.844791 -0.761039 0.000167 0.000129 0.000247
N -4.816653 0.927578 4.399486 0.001710 0.001076 -0.001535
N -4.750251 0.848615 -5.921442 0.001657 0.000046 -0.002502
N -4.823842 0.851856 -0.797211 -0.001082 0.000137 -0.001288
N -6.400829 3.572697 4.387577 0.000894 -0.001065 -0.003742
N -6.332140 3.638279 -5.862439 -0.000120 0.000312 -0.000090
N -6.372938 3.623534 -0.775851 0.000240 -0.000062 -0.001030
N -3.170368 -1.844420 4.379613 0.001824 0.000197 -0.003159
N -3.180043 -1.821743 -5.855509 0.001116 -0.000049 -0.000463
N -3.185391 -1.858156 -0.772443 0.000022 -0.000257 -0.001098
N -1.641189 0.875123 4.385996 0.000498 0.000172 -0.002145
N -1.647035 0.846940 -5.950493 -0.001344 -0.000328 0.007122
N -1.611652 0.841210 -0.756711 0.001813 -0.000362 -0.000719
N -3.190816 3.595178 4.425957 0.000127 0.000577 -0.002545
N -3.240295 3.581897 -5.933319 -0.002117 0.003591 0.009928
N -3.237058 3.650231 -0.744582 -0.000509 0.000800 0.000826
N -0.039588 -1.817969 4.406573 0.000822 -0.000918 -0.002260
N -0.003527 -1.854479 -5.908971 0.000009 -0.001930 -0.001556
N -0.048257 -1.877021 -0.786602 0.001392 -0.000682 0.004245
N -0.031695 1.800328 1.883294 0.003839 -0.006394 -0.000927
N -0.044648 1.783044 6.918556 0.000120 0.000840 -0.001326
N 0.018069 1.800191 -3.323053 -0.000365 0.002038 -0.001041
N 3.213780 -3.662210 1.874849 -0.000937 -0.002797 -0.005580
N 3.139840 -3.748627 6.922946 0.001986 0.002107 -0.000325
N 3.211540 -3.733310 -3.321772 0.000462 -0.000443 -0.000402
N 1.610478 -0.893468 1.869226 0.005858 -0.015663 -0.006827
N 1.521481 -0.932627 6.910444 -0.001923 0.000364 -0.003151
N 1.532700 -0.932088 -3.359699 -0.000697 -0.000187 0.000631
N 3.098101 1.762802 1.731229 0.001744 0.000016 -0.000297
N 3.132851 1.747125 6.930389 -0.000474 -0.001366 -0.002031
N 3.156211 1.783312 -3.290803 -0.000216 0.001712 0.001597
N 6.294560 -3.722265 1.738603 -0.001771 -0.000047 0.002625
N 6.284711 -3.714520 6.964531 -0.000375 0.000175 -0.001005
N 6.343824 -3.702452 -3.275042 0.000427 0.000356 0.001552
N 4.705458 -0.973527 1.753630 0.000398 0.001329 -0.000330
N 4.730973 -0.906926 6.961345 -0.001314 -0.000324 -0.001405
N 4.800304 -0.928466 -3.353397 0.000870 -0.001090 -0.000964
N -3.168145 1.770743 1.836492 -0.001815 -0.000685 -0.002966
N -3.222666 1.793144 6.945607 -0.000327 -0.000346 -0.001859
N -3.243003 1.763073 -3.376725 0.000047 0.000481 -0.002133
N -0.013522 -3.687311 1.759790 0.000111 0.000452 -0.002136
N 0.010942 -3.665048 6.990151 0.001145 0.001396 0.000913
N -0.048210 -3.665207 -3.345596 -0.000111 0.000166 -0.002481
N -1.604737 -0.897263 1.760113 -0.001606 0.000744 -0.002619
N -1.582670 -0.922118 6.922352 0.000382 -0.000390 -0.001850
N -1.600328 -1.012352 -3.353300 0.003064 0.001125 -0.001978
