108
Energy=-1.947255e+06 Lattice="9.581010e+00 0.000000e+00 0.000000e+00 -4.792431e+00 8.294910e+00 0.000000e+00 -3.808333e-04 -1.549196e-03 1.550828e+01" Stress="1.797933e-05 -2.266913e-05 -4.566686e-05 -3.411327e-05 -8.374983e-05 9.628628e-06 -2.869315e-05 1.311694e-05 -1.361556e-04" Properties=species:S:1:pos:R:3:forces:R:3 Config_type=AlGaN_super3_33_0_12.xyz
Al 1.580587e+00 8.888078e-01 2.447334e+00 3.636649e-05 -2.373713e-05 1.661719e-04
Al 1.574062e+00 8.909227e-01 7.600946e+00 5.773560e-05 -6.219263e-05 1.943340e-04
Al 1.577197e+00 8.946694e-01 -2.747850e+00 2.214733e-04 -5.590018e-05 9.889579e-05
Al -5.089936e-03 3.642705e+00 2.434664e+00 -1.689914e-05 -1.829275e-05 2.414338e-04
Al -1.985035e-02 3.638886e+00 7.592370e+00 -5.861232e-05 -3.775666e-05 1.973695e-04
Al -3.306629e-04 3.651113e+00 -2.724997e+00 2.907413e-05 -2.063042e-05 5.823686e-05
Al 3.178754e+00 -1.873539e+00 2.422192e+00 4.354921e-05 -3.584329e-05 1.691771e-04
Al 3.158010e+00 -1.891191e+00 7.610445e+00 -1.052103e-05 -6.884979e-05 1.761273e-04
Ga 3.172571e+00 -1.881227e+00 -2.721919e+00 -4.722930e-05 -2.845191e-05 2.497008e-05
Al -4.836233e+00 8.734832e-01 2.425855e+00 1.176704e-04 -3.279891e-05 7.231645e-05
Ga -4.840259e+00 8.904960e-01 7.622055e+00 1.824186e-04 -1.455053e-04 5.032126e-05
Ga -4.834950e+00 8.836080e-01 -2.731293e+00 -4.428800e-05 -7.224818e-05 -2.076052e-04
Al -6.428365e+00 3.634389e+00 2.419615e+00 1.327244e-05 -2.904535e-05 2.433211e-04
Al -6.409047e+00 3.640610e+00 7.631878e+00 6.921279e-05 4.876128e-06 3.136574e-04
Al -6.424791e+00 3.653532e+00 -2.747355e+00 1.963698e-04 -2.954544e-04 -2.496869e-03
Ga -3.235221e+00 -1.902251e+00 2.414433e+00 7.447521e-05 -9.190043e-06 3.949982e-05
Ga -3.217649e+00 -1.902042e+00 7.608188e+00 8.124299e-05 -1.278606e-05 5.788432e-05
Al -3.214685e+00 -1.904168e+00 -2.709661e+00 1.430116e-05 -4.242245e-05 -5.067166e-06
Ga -1.608942e+00 8.918902e-01 2.451814e+00 1.797734e-04 -1.502663e-04 -7.335220e-05
Ga -1.597227e+00 8.930291e-01 7.603551e+00 1.592123e-04 -2.104206e-04 -1.707467e-04
Ga -1.602829e+00 8.801909e-01 -2.733141e+00 1.747503e-04 -1.131288e-04 -2.330169e-04
Ga -3.221121e+00 3.650736e+00 2.443010e+00 1.648711e-04 -9.373826e-05 1.495538e-05
Al -3.223534e+00 3.667456e+00 7.617172e+00 2.616982e-05 -8.631754e-05 4.774638e-05
Ga -3.226613e+00 3.665293e+00 -2.741502e+00 9.470957e-05 2.211860e-05 -1.588732e-04
Ga -1.081526e-02 -1.887117e+00 2.444261e+00 1.533995e-04 -7.181020e-05 6.446396e-05
Al -8.868149e-03 -1.896994e+00 7.622207e+00 2.768017e-05 -7.277258e-05 1.365801e-04
Al -2.657708e-02 -1.890027e+00 -2.751900e+00 1.809567e-04 -1.075699e-04 4.137128e-05
Al -9.922365e-03 1.810235e+00 5.022282e+00 -7.592720e-05 7.103999e-05 1.887677e-04
Ga -3.413384e-04 1.813690e+00 -5.313688e+00 -1.778800e-04 1.000829e-04 1.130898e-04
Ga -1.670423e-03 1.818675e+00 -1.469653e-01 -3.017115e-04 2.361790e-05 -2.674820e-05
Ga 3.184473e+00 -3.730095e+00 5.030008e+00 -1.276961e-04 1.116997e-04 2.446511e-05
Ga 3.171628e+00 -3.729056e+00 -5.333951e+00 -1.218165e-04 6.248277e-05 -7.377132e-06
Ga 3.200000e+00 -3.720476e+00 -1.337527e-01 -2.516941e-04 -3.308264e-05 -2.107717e-04
Ga 1.578274e+00 -9.514258e-01 5.040269e+00 -2.367162e-04 1.487918e-04 7.094409e-05
Ga 1.572548e+00 -9.548651e-01 -5.331852e+00 -2.198288e-04 1.863687e-04 -1.150178e-05
Ga 1.581573e+00 -9.519023e-01 -1.469926e-01 -3.312791e-04 1.134288e-05 -6.090367e-04
Ga 3.156026e+00 1.809135e+00 5.009970e+00 2.583328e-05 5.704451e-06 3.681735e-04
Al 3.160647e+00 1.819014e+00 -5.317538e+00 1.819152e-06 2.422220e-04 3.241889e-04
Ga 3.162890e+00 1.810055e+00 -1.382122e-01 -5.653345e-05 -2.729115e-04 -1.567936e-04
Ga 6.365021e+00 -3.749446e+00 5.027492e+00 -3.939148e-06 5.039708e-05 3.434152e-04
Ga 6.376479e+00 -3.741104e+00 -5.305328e+00 4.082295e-05 -5.130050e-05 3.020455e-04
Al 6.362857e+00 -3.728183e+00 -1.681949e-01 -1.935473e-04 2.238590e-04 1.600950e-04
Ga 4.756519e+00 -9.615780e-01 5.014747e+00 -9.032328e-05 1.799673e-04 7.366972e-05
Ga 4.762515e+00 -9.600161e-01 -5.306497e+00 -7.061450e-05 7.158191e-05 -1.707445e-05
Al 4.773748e+00 -9.686460e-01 -1.392818e-01 -1.107171e-05 1.515364e-05 -5.340677e-06
Ga -3.219856e+00 1.801917e+00 5.032099e+00 -3.483850e-05 3.009078e-05 2.768501e-07
Ga -3.232863e+00 1.820368e+00 -5.324679e+00 -8.876256e-06 1.003202e-04 -6.126463e-05
Ga -3.224939e+00 1.796390e+00 -1.357396e-01 -1.356038e-04 -5.763656e-05 7.006133e-04
Ga -3.539529e-02 -3.732402e+00 5.052121e+00 -4.298186e-06 4.537121e-05 1.204075e-04
Al -3.149507e-02 -3.730406e+00 -5.329560e+00 -2.331078e-04 -2.272615e-04 7.504869e-05
Ga -4.209670e-02 -3.723483e+00 -1.618473e-01 8.093413e-05 2.921161e-05 2.735550e-04
Ga -1.612104e+00 -9.586151e-01 5.037283e+00 -1.381489e-04 1.684391e-04 -1.619811e-04
Ga -1.610792e+00 -9.783432e-01 -5.297892e+00 -1.577408e-04 1.244484e-04 -2.056219e-05
Ga -1.627325e+00 -9.761489e-01 -1.694973e-01 -2.493460e-04 4.379021e-05 9.182752e-04
N 1.529989e+00 9.012093e-01 4.367011e+00 9.592577e-05 -9.474424e-05 -1.916085e-04
N 1.615328e+00 9.118155e-01 -5.985604e+00 2.574494e-04 -1.472571e-04 -1.374003e-04
N 1.580294e+00 8.853677e-01 -8.354873e-01 1.459011e-04 -9.095514e-05 -5.835264e-05
N -2.099555e-02 3.600207e+00 4.360054e+00 9.964395e-06 -1.293879e-04 -2.107774e-04
N -1.822655e-02 3.646819e+00 -6.004508e+00 7.772860e-05 -1.098128e-05 -1.458092e-04
N 1.883456e-02 3.671548e+00 -8.108691e-01 1.468543e-04 -9.302648e-05 2.690000e-05
N 3.165403e+00 -1.884499e+00 4.341304e+00 7.323717e-05 -1.575598e-04 -9.725869e-05
N 3.171238e+00 -1.880709e+00 -5.988673e+00 1.137746e-04 -8.985520e-05 -7.872096e-05
N 3.212469e+00 -1.858206e+00 -7.485052e-01 1.459786e-04 -5.080209e-05 6.731820e-05
N -4.819332e+00 8.811761e-01 4.344808e+00 9.195496e-05 -9.340606e-05 -2.063252e-04
N -4.865424e+00 9.063593e-01 -5.912416e+00 6.001244e-05 -6.919342e-05 -2.834860e-05
N -4.822267e+00 8.359177e-01 -7.521022e-01 9.202239e-05 -4.941243e-05 5.175986e-05
N -6.411298e+00 3.650732e+00 4.333455e+00 1.300238e-05 -2.161233e-05 -3.048881e-04
N -6.371514e+00 3.622862e+00 -5.949779e+00 7.640956e-06 1.791545e-05 -3.221854e-04
N -6.453086e+00 3.666030e+00 -8.284122e-01 -6.931648e-05 -4.113691e-05 1.267816e-03
N -3.217466e+00 -1.890686e+00 4.395289e+00 5.071908e-06 -1.500978e-04 -7.779802e-05
N -3.216590e+00 -1.886809e+00 -5.935324e+00 3.104428e-06 -4.136144e-05 -6.225343e-05
N -3.263036e+00 -1.910754e+00 -7.790851e-01 5.126545e-05 -1.370927e-04 -6.375033e-05
N -1.576908e+00 9.086684e-01 4.433066e+00 1.728740e-04 -1.293256e-04 4.835800e-05
N -1.613714e+00 8.831511e-01 -5.928522e+00 2.193765e-04 -1.866633e-04 6.189271e-05
N -1.613822e+00 8.891721e-01 -7.652079e-01 1.949255e-04 -1.536997e-04 1.699402e-04
N -3.221476e+00 3.653022e+00 4.411916e+00 6.360296e-05 -7.603691e-05 3.703668e-05
N -3.260968e+00 3.679433e+00 -5.973027e+00 6.357713e-05 -9.091371e-05 1.498960e-05
N -3.213643e+00 3.654175e+00 -7.659428e-01 7.687772e-05 -1.073150e-04 5.807612e-05
N -1.691728e-02 -1.887388e+00 4.411151e+00 1.870793e-04 -1.639870e-04 4.366685e-05
N -2.230591e-02 -1.930394e+00 -5.968903e+00 1.507984e-04 -5.943182e-05 -6.610793e-05
N -1.353743e-02 -1.882794e+00 -8.363825e-01 1.708590e-04 -1.542672e-04 -1.653229e-05
N 2.482772e-02 1.826196e+00 1.837225e+00 6.216485e-05 1.738509e-04 -5.219388e-05
N 2.602900e-02 1.828385e+00 6.950339e+00 -3.492179e-05 1.843141e-04 -1.567833e-04
N 2.412597e-02 1.835632e+00 -3.330894e+00 -1.314452e-04 1.543902e-04 -6.100416e-05
N 3.220629e+00 -3.707366e+00 1.851688e+00 7.892602e-05 2.224392e-04 1.708392e-04
N 3.173853e+00 -3.727503e+00 7.029604e+00 3.144621e-05 9.573482e-05 -9.044152e-05
N 3.219930e+00 -3.750311e+00 -3.351203e+00 1.440606e-05 2.818599e-05 6.470408e-06
N 1.613614e+00 -9.329992e-01 1.838903e+00 -7.360977e-06 2.207037e-04 5.535601e-04
N 1.574968e+00 -9.592251e-01 7.039335e+00 -1.005718e-04 1.161286e-04 -1.233906e-04
N 1.534734e+00 -9.351746e-01 -3.339601e+00 -2.419340e-04 1.219071e-04 -9.670134e-05
N 3.162744e+00 1.801563e+00 1.855365e+00 7.633313e-05 1.132064e-04 1.979057e-04
N 3.126297e+00 1.833290e+00 6.997692e+00 -1.814145e-04 1.013007e-04 -2.655560e-04
N 3.125279e+00 1.832596e+00 -3.387311e+00 -1.471743e-04 3.682378e-04 3.092427e-04
N 6.364296e+00 -3.782084e+00 1.767248e+00 1.973180e-05 -7.102106e-05 -1.655878e-04
N 6.372737e+00 -3.784070e+00 7.012665e+00 -2.809227e-05 -3.225325e-05 -2.007356e-04
N 6.364884e+00 -3.725629e+00 -3.313258e+00 -5.891811e-05 5.248320e-05 -1.520044e-04
N 4.727923e+00 -9.396124e-01 1.786101e+00 -1.735765e-04 9.191416e-05 -3.492976e-05
N 4.722068e+00 -9.842821e-01 6.993758e+00 -1.897762e-04 3.553705e-05 -1.006511e-04
N 4.812021e+00 -9.884361e-01 -3.335618e+00 2.759645e-05 1.884251e-05 2.935647e-05
N -3.259708e+00 1.776317e+00 1.842616e+00 -4.324930e-05 1.623602e-04 -7.103296e-04
N -3.223525e+00 1.850632e+00 7.013462e+00 -7.813674e-05 2.135651e-04 7.674080e-05
N -3.219433e+00 1.806584e+00 -3.356910e+00 -6.446570e-05 1.099787e-04 1.332761e-04
N -7.011789e-02 -3.751826e+00 1.814095e+00 -5.663978e-05 1.268522e-04 -2.297986e-04
N -3.093908e-02 -3.730810e+00 7.042241e+00 -4.191698e-05 7.872217e-05 -1.262999e-04
N -6.837040e-02 -3.703034e+00 -3.394765e+00 -7.268702e-05 -1.796213e-05 3.883311e-04
N -1.618508e+00 -9.651169e-01 1.807865e+00 -4.964038e-05 2.080429e-04 -9.581703e-04
N -1.573930e+00 -9.891825e-01 7.010355e+00 -9.813619e-05 5.567711e-05 1.408872e-05
N -1.624143e+00 -1.013860e+00 -3.311188e+00 -1.700954e-04 1.048128e-04 3.324744e-05
