108
Energy=-1.397949e+06 Lattice="9.509344e+00 0.000000e+00 0.000000e+00 -4.755828e+00 8.233766e+00 0.000000e+00 -3.252502e-03 1.920742e-03 1.535047e+01" Stress="-3.220172e-04 4.648609e-05 -3.047662e-05 3.590417e-05 -5.660481e-04 4.861662e-05 -3.408886e-05 3.850206e-05 -5.126569e-04" Properties=species:S:1:pos:R:3:forces:R:3 Config_type=AlGaN_super3_21_2_33.xyz
Al 1.573568e+00 8.701599e-01 2.406581e+00 -7.060426e-04 -1.938571e-05 6.055357e-06
Al 1.572075e+00 8.814590e-01 7.528316e+00 7.514037e-04 -6.603276e-04 1.501060e-04
Al 1.568050e+00 8.668257e-01 -2.713622e+00 -8.221180e-04 -2.731553e-04 6.947846e-04
Al -8.861505e-03 3.627062e+00 2.428965e+00 1.696878e-05 2.085141e-04 -1.198098e-04
Al -1.796745e-02 3.624132e+00 7.514270e+00 1.750147e-04 -3.582176e-04 6.679266e-05
Al -2.396075e-02 3.612306e+00 -2.708073e+00 -3.987802e-05 -1.090865e-04 1.568601e-04
Al 3.143545e+00 -1.855515e+00 2.401332e+00 -2.357642e-04 -5.921998e-05 -7.353401e-05
Al 3.141385e+00 -1.870678e+00 7.549613e+00 -4.162144e-04 4.056792e-04 -2.063254e-04
Ga 3.131221e+00 -1.863412e+00 -2.716441e+00 -9.246367e-05 -3.955671e-05 -1.167086e-04
Al -4.793501e+00 8.712863e-01 2.405888e+00 1.583428e-04 4.409802e-05 2.936046e-04
Al -4.797679e+00 8.832822e-01 7.541624e+00 7.891731e-04 3.914921e-04 -9.563395e-04
Al -4.780453e+00 8.876186e-01 -2.711831e+00 -1.419780e-04 9.313714e-05 -1.763500e-04
Ga -6.377166e+00 3.615275e+00 2.402647e+00 9.953153e-05 1.482044e-04 1.011892e-04
Al -6.366054e+00 3.612016e+00 7.524361e+00 1.098762e-04 -1.554394e-05 -2.162279e-04
Ga -6.363311e+00 3.606055e+00 -2.698126e+00 -2.269054e-05 1.105224e-04 1.707386e-04
Al -3.198143e+00 -1.877514e+00 2.396546e+00 1.163392e-03 1.816755e-04 -3.494265e-04
Al -3.197119e+00 -1.880938e+00 7.518988e+00 -1.719653e-05 6.412294e-05 -1.582421e-05
Ga -3.184048e+00 -1.866887e+00 -2.681801e+00 2.943316e-05 -5.980945e-05 5.128346e-05
Ga -1.605152e+00 8.691075e-01 2.401216e+00 5.880922e-05 -6.530831e-05 -4.870659e-05
Ga -1.601103e+00 8.815118e-01 7.531757e+00 -1.409835e-04 -4.562025e-06 1.549632e-05
Al -1.614192e+00 8.781165e-01 -2.699885e+00 1.879402e-03 -4.820742e-04 9.524302e-04
Ga -3.197549e+00 3.624830e+00 2.391910e+00 -1.331122e-05 -6.471385e-06 5.404568e-06
Al -3.201240e+00 3.627697e+00 7.566601e+00 1.108191e-03 -2.290213e-05 -1.902789e-04
Ga -3.191451e+00 3.610807e+00 -2.720811e+00 2.005264e-04 1.776451e-04 1.105213e-04
Al -1.774177e-02 -1.859414e+00 2.380550e+00 6.430413e-06 -3.308797e-04 -3.299191e-04
Al -1.401896e-02 -1.878064e+00 7.553426e+00 1.462057e-04 6.810593e-04 -2.787293e-04
Al -1.183379e-02 -1.855397e+00 -2.702323e+00 -3.237833e-04 9.872120e-05 -1.905098e-05
Al 5.255696e-03 1.802282e+00 4.967850e+00 -3.627649e-04 8.471302e-05 -2.573193e-04
Ga -1.228096e-02 1.792752e+00 -5.245541e+00 3.615927e-06 -9.681128e-06 1.807630e-04
Ga -9.751337e-03 1.787586e+00 -1.635477e-01 -1.212251e-04 -2.398925e-05 -1.086633e-04
Ga 3.162080e+00 -3.702292e+00 4.984258e+00 -6.073322e-05 5.745642e-05 3.416801e-05
Al 3.139407e+00 -3.707419e+00 -5.287676e+00 -5.576318e-04 1.051326e-03 5.600603e-04
Ga 3.151564e+00 -3.701688e+00 -1.347085e-01 2.548799e-05 -1.387421e-04 5.004256e-05
Ga 1.558074e+00 -9.375474e-01 4.975924e+00 1.258145e-05 1.014506e-04 2.169235e-04
Al 1.562156e+00 -9.567837e-01 -5.278818e+00 -1.099476e-04 2.571969e-05 3.939929e-04
Al 1.547762e+00 -9.469317e-01 -1.420780e-01 4.408995e-05 1.795114e-04 -5.687562e-05
Al 3.131936e+00 1.791175e+00 4.980763e+00 -4.222199e-04 -2.399421e-06 -2.221008e-04
Al 3.155091e+00 1.786474e+00 -5.276065e+00 -2.839326e-04 6.256050e-05 -5.369280e-04
Al 3.151964e+00 1.785599e+00 -1.516347e-01 -3.033721e-04 -3.161960e-05 -1.437830e-04
Al 6.314846e+00 -3.709798e+00 4.980989e+00 -3.902490e-04 -2.025959e-04 -2.202042e-04
Ga 6.320710e+00 -3.713087e+00 -5.284724e+00 1.348884e-04 2.491000e-05 7.627251e-05
Al 6.324470e+00 -3.702832e+00 -1.342105e-01 -6.099844e-04 -1.201715e-04 3.253858e-05
Ga 4.730170e+00 -9.509719e-01 4.969875e+00 -1.592148e-04 -2.166000e-06 6.022541e-05
Ga 4.722923e+00 -9.418217e-01 -5.276820e+00 -6.364702e-05 -2.489339e-04 5.740853e-05
Ga 4.735603e+00 -9.337484e-01 -1.298318e-01 -4.822426e-05 -1.542868e-04 -6.053847e-05
Ga -3.207172e+00 1.791703e+00 4.989460e+00 1.091522e-05 -6.390408e-05 1.316136e-04
Al -3.208958e+00 1.801306e+00 -5.264921e+00 6.549496e-04 -6.407773e-07 -1.412412e-04
Al -3.209057e+00 1.781930e+00 -1.618523e-01 2.971648e-04 2.550249e-05 3.701899e-04
Ga -3.710913e-02 -3.696974e+00 4.997249e+00 1.185026e-04 3.899854e-05 -8.967753e-05
Al -1.165064e-02 -3.701663e+00 -5.281334e+00 -5.228025e-04 -2.827495e-04 -8.214382e-04
Al -3.261804e-02 -3.687300e+00 -1.573125e-01 6.707165e-05 1.174279e-04 1.434883e-04
Ga -1.604918e+00 -9.676380e-01 4.970816e+00 6.432881e-05 1.207949e-04 2.440734e-05
Ga -1.590724e+00 -9.605495e-01 -5.253055e+00 -6.040163e-05 -1.080584e-04 8.256909e-05
Al -1.595803e+00 -9.615868e-01 -1.525363e-01 2.475368e-04 3.155563e-04 7.094877e-06
N 1.565538e+00 9.213259e-01 4.330051e+00 8.582473e-04 1.351369e-04 1.065297e-04
N 1.604171e+00 8.560984e-01 -5.900250e+00 4.610892e-05 -1.485140e-04 1.913542e-04
N 1.610967e+00 8.474202e-01 -7.914030e-01 1.466926e-04 -8.797955e-05 -3.310863e-04
N 2.054126e-02 3.600581e+00 4.347025e+00 2.222475e-04 -3.496209e-05 7.582234e-04
N -6.243764e-02 3.634225e+00 -5.927967e+00 3.961785e-04 -2.631723e-04 -4.788777e-04
N 1.781390e-02 3.648824e+00 -8.036639e-01 2.494044e-04 1.642385e-04 5.221653e-05
N 3.139876e+00 -1.866826e+00 4.309122e+00 1.062082e-04 1.485327e-04 -1.560098e-04
N 3.105281e+00 -1.892316e+00 -5.886078e+00 2.015050e-04 -6.734027e-04 -2.005010e-05
N 3.103443e+00 -1.843144e+00 -7.428742e-01 -1.878194e-05 1.750765e-04 8.663521e-05
N -4.825718e+00 9.055481e-01 4.322698e+00 -7.787421e-07 -9.245510e-05 -3.980202e-04
N -4.779136e+00 9.264900e-01 -5.901037e+00 -2.947799e-04 -7.982988e-06 3.696410e-04
N -4.782530e+00 9.259620e-01 -7.967598e-01 7.290616e-05 8.786729e-05 -1.398923e-05
N -6.404902e+00 3.595930e+00 4.391574e+00 5.227783e-05 -1.537023e-04 1.016541e-04
N -6.321276e+00 3.589199e+00 -5.904805e+00 5.489787e-04 2.545025e-04 5.811726e-04
N -6.364657e+00 3.616212e+00 -7.086024e-01 2.670328e-04 -9.546190e-05 -7.060261e-05
N -3.192984e+00 -1.921323e+00 4.318971e+00 -1.162392e-04 1.848626e-06 7.560884e-05
N -3.187564e+00 -1.870124e+00 -5.929645e+00 -3.714182e-05 7.469698e-05 -6.384385e-05
N -3.153063e+00 -1.892861e+00 -7.108101e-01 -5.155242e-05 -1.325305e-04 2.189286e-05
N -1.567779e+00 9.017752e-01 4.382848e+00 8.621460e-05 6.862279e-05 1.060493e-04
N -1.643041e+00 9.014763e-01 -5.851159e+00 -1.718363e-04 1.709247e-04 4.351113e-05
N -1.651144e+00 8.533101e-01 -7.722907e-01 -2.518472e-04 5.410878e-05 -6.162452e-04
N -3.198626e+00 3.624742e+00 4.354826e+00 -1.028854e-05 -9.485410e-05 -7.277992e-05
N -3.193715e+00 3.616383e+00 -5.863096e+00 1.748316e-06 1.373788e-05 2.684634e-05
N -3.233823e+00 3.598894e+00 -7.360692e-01 -1.102555e-04 -8.451558e-05 -1.615531e-04
N -1.800145e-02 -1.871504e+00 4.289148e+00 -1.178333e-04 -1.550958e-04 4.549062e-05
N 2.108591e-02 -1.892565e+00 -5.891299e+00 -1.277942e-05 -1.039922e-04 -3.951086e-05
N -1.554524e-02 -1.865280e+00 -7.725205e-01 3.078569e-05 -2.231605e-04 -1.428239e-04
N 2.263911e-02 1.819111e+00 1.819654e+00 1.832032e-04 -4.499701e-04 -1.191785e-06
N 2.836663e-02 1.811796e+00 6.890633e+00 -6.666596e-04 8.916149e-04 -6.128247e-05
N -1.925485e-02 1.787856e+00 -3.255837e+00 -3.122425e-04 -9.706873e-05 -4.256004e-05
N 3.196757e+00 -3.676954e+00 1.837409e+00 -1.258808e-06 1.296626e-04 1.649589e-05
N 3.144055e+00 -3.697906e+00 6.971042e+00 -7.031921e-04 -9.484162e-05 2.733473e-04
N 3.190559e+00 -3.724364e+00 -3.368171e+00 2.432204e-06 -2.668510e-05 -2.934340e-04
N 1.559534e+00 -9.467279e-01 1.785431e+00 8.330607e-05 1.917999e-05 3.348844e-05
N 1.559917e+00 -9.520453e-01 6.962698e+00 3.534580e-05 -3.741642e-04 2.806340e-04
N 1.516950e+00 -9.285416e-01 -3.357176e+00 1.574468e-04 3.524375e-05 -4.664925e-04
N 3.144182e+00 1.739000e+00 1.765486e+00 4.580922e-04 7.462750e-05 -1.661162e-04
N 3.143766e+00 1.787107e+00 6.906375e+00 1.467342e-04 3.966447e-05 -8.053027e-05
N 3.143807e+00 1.742577e+00 -3.353680e+00 9.404012e-04 3.215268e-05 1.110645e-04
N 6.270861e+00 -3.680404e+00 1.777201e+00 2.338603e-04 1.322842e-04 -1.863562e-04
N 6.317669e+00 -3.699933e+00 6.908952e+00 2.711860e-05 -4.888301e-05 -4.261917e-05
N 6.280587e+00 -3.723044e+00 -3.316555e+00 -7.156524e-07 4.125003e-05 -1.631084e-04
N 4.732827e+00 -9.488578e-01 1.852203e+00 -2.432204e-04 2.156343e-04 9.090461e-05
N 4.726269e+00 -9.513237e-01 6.965359e+00 3.771247e-05 3.999224e-05 1.758351e-04
N 4.735171e+00 -9.077787e-01 -3.303916e+00 1.628718e-05 1.229320e-04 1.963911e-06
N -3.238224e+00 1.760354e+00 1.752516e+00 -3.094639e-04 -4.719633e-05 -1.284440e-04
N -3.238823e+00 1.818971e+00 6.960386e+00 -7.591930e-04 -4.474221e-04 3.167987e-04
N -3.192788e+00 1.739745e+00 -3.344280e+00 -1.489520e-03 3.133713e-04 -3.618844e-04
N -2.995381e-02 -3.650778e+00 1.750226e+00 -4.699597e-05 2.261856e-04 4.202939e-05
N -2.061471e-02 -3.697028e+00 6.980912e+00 -5.807669e-04 -5.393792e-05 3.014568e-06
N -2.708667e-02 -3.649524e+00 -3.361434e+00 -2.415084e-05 3.171277e-04 6.255102e-04
N -1.605696e+00 -9.993760e-01 1.768103e+00 -9.053886e-04 -3.761356e-04 4.480866e-04
N -1.601619e+00 -1.006222e+00 6.947911e+00 1.159551e-04 -2.114288e-04 1.342760e-04
N -1.564558e+00 -9.317779e-01 -3.277755e+00 1.873922e-04 -3.150628e-04 -1.887701e-06
