108
Energy=-2725439.040389 Lattice="9.680279 0.000000 0.000000 -4.840199 8.383726 0.000000 0.006179 -0.004432 15.719822" Stress="-0.000001 0.000000 0.000001 0.000000 -0.000000 -0.000001 0.000001 -0.000001 0.000000" Properties=species:S:1:pos:R:3:forces:R:3
Al 1.586547 0.898401 2.472493 -0.000226 0.000215 0.000208
Ga 1.592465 0.889852 7.708513 0.000106 -0.000028 0.000093
Ga 1.586690 0.895996 -2.762181 0.000103 -0.000147 -0.000103
Al -0.011182 3.680007 2.485171 -0.000086 0.000320 -0.000001
Ga -0.017168 3.688655 7.707692 -0.000016 -0.000026 0.000068
Ga -0.032624 3.691018 -2.775111 0.000114 -0.000197 0.000268
Ga 3.204012 -1.904762 2.473244 -0.000142 0.000339 0.000174
Ga 3.206208 -1.911970 7.717376 0.000059 -0.000004 0.000074
Ga 3.201501 -1.910627 -2.771990 0.000098 -0.000087 0.000091
Ga -4.870545 0.890028 2.476190 -0.000154 0.000358 0.000133
Ga -4.862562 0.889851 7.710150 0.000131 -0.000009 0.000126
Ga -4.867805 0.894640 -2.765262 0.000190 -0.000159 0.000144
Ga -6.494380 3.680593 2.485126 -0.000248 0.000304 0.000156
Ga -6.483557 3.686249 7.693750 0.000111 -0.000052 0.000095
Ga -6.479998 3.687871 -2.760432 0.000139 -0.000161 0.000154
Ga -3.254495 -1.918665 2.486632 -0.000229 0.000285 0.000185
Ga -3.246533 -1.915788 7.697888 0.000075 0.000070 0.000091
Ga -3.251410 -1.901870 -2.764891 0.000151 -0.000071 0.000116
Ga -1.622349 0.900709 2.474186 -0.000081 0.000189 0.000239
Ga -1.630958 0.890295 7.705598 0.000089 -0.000086 0.000111
Ga -1.635462 0.895230 -2.759660 0.000186 -0.000183 0.000125
Ga -3.240109 3.684999 2.476112 -0.000097 0.000143 0.000209
Ga -3.240455 3.687314 7.720978 0.000085 -0.000075 0.000126
Ga -3.243186 3.694633 -2.775297 0.000083 -0.000234 0.000144
Ga -0.016071 -1.896018 2.475241 -0.000206 0.000163 0.000196
Ga -0.018606 -1.903841 7.710120 0.000065 -0.000039 0.000080
Ga -0.024870 -1.900109 -2.763357 0.000131 -0.000135 0.000111
Ga -0.007850 1.833974 5.069273 0.000093 -0.000156 0.000076
Ga -0.030362 1.834574 -5.390863 0.000030 -0.000174 0.000071
Ga -0.017668 1.828554 -0.121297 -0.000304 0.000500 0.000229
Ga 3.223157 -3.772348 5.078960 -0.000009 -0.000041 0.000155
Al 3.202733 -3.764078 -5.391472 -0.000033 -0.000156 0.000097
Ga 3.210074 -3.771220 -0.128607 -0.000111 0.000197 0.000149
Ga 1.594756 -0.966329 5.082836 0.000051 -0.000166 0.000145
Ga 1.593250 -0.977272 -5.386790 0.000009 -0.000182 0.000134
Ga 1.591547 -0.967819 -0.136459 -0.000249 0.000075 0.000116
Ga 3.194622 1.824572 5.078515 0.000055 -0.000259 0.000086
Ga 3.198907 1.827528 -5.389220 0.000084 -0.000195 0.000051
Ga 3.199216 1.820838 -0.128379 -0.000150 0.000251 0.000216
Al 6.424479 -3.773430 5.080184 0.000176 -0.000135 0.000029
Ga 6.418496 -3.765082 -5.388967 0.000082 -0.000103 0.000176
Ga 6.424541 -3.769876 -0.134342 -0.000325 0.000213 0.000229
Ga 4.823462 -0.982285 5.093918 0.000028 -0.000263 0.000109
Ga 4.810047 -0.978973 -5.391759 0.000007 -0.000224 0.000145
Ga 4.818312 -0.974517 -0.142783 -0.000308 0.000286 0.000097
Ga -3.247682 1.822926 5.096167 0.000061 -0.000218 0.000060
Ga -3.247683 1.833355 -5.387099 0.000130 -0.000169 0.000076
Ga -3.250165 1.824030 -0.145680 -0.000106 0.000269 0.000010
Ga -0.028452 -3.769037 5.093728 0.000096 -0.000150 0.000110
Ga -0.019289 -3.765001 -5.391127 0.000139 -0.000073 0.000116
Ga -0.022323 -3.768067 -0.142471 -0.000115 0.000272 0.000112
Ga -1.638778 -0.981649 5.088272 0.000059 -0.000246 0.000113
Ga -1.639920 -0.969177 -5.389492 0.000068 -0.000164 0.000079
Ga -1.637379 -0.973270 -0.137905 -0.000246 0.000191 0.000047
N 1.592795 0.887150 4.393265 -0.000071 0.000282 -0.000048
N 1.585624 0.892272 -6.028819 -0.000006 0.000220 -0.000081
N 1.586804 0.894487 -0.780346 0.000295 -0.000112 0.000017
N 0.024566 3.708825 4.412230 -0.000222 0.000045 0.000019
N -0.066927 3.714174 -6.019147 0.000040 0.000094 -0.000148
N -0.026616 3.685278 -0.790214 0.000161 -0.000199 -0.000286
N 3.206742 -1.905706 4.451193 -0.000087 0.000208 -0.000126
N 3.200277 -1.952911 -6.011442 0.000000 0.000287 -0.000151
N 3.201136 -1.909000 -0.781411 0.000246 -0.000202 -0.000222
N -4.860647 0.887192 4.456632 -0.000070 0.000369 -0.000117
N -4.865814 0.892951 -6.026096 -0.000040 0.000228 -0.000134
N -4.867898 0.893057 -0.779939 0.000218 -0.000213 -0.000227
N -6.517788 3.709187 4.473463 -0.000088 0.000215 -0.000122
N -6.483065 3.690104 -6.038733 -0.000127 0.000170 -0.000118
N -6.479611 3.684805 -0.774650 0.000131 -0.000180 -0.000213
N -3.248136 -1.957821 4.474083 -0.000102 0.000442 -0.000114
N -3.251752 -1.905458 -6.037478 -0.000063 0.000140 -0.000073
N -3.249859 -1.905765 -0.781222 0.000244 -0.000215 -0.000241
N -1.632622 0.889838 4.455331 -0.000091 0.000304 -0.000131
N -1.638501 0.893801 -6.032024 -0.000048 0.000169 -0.000087
N -1.630815 0.894361 -0.772417 0.000110 -0.000145 -0.000204
N -3.246882 3.684696 4.455250 -0.000101 0.000197 -0.000174
N -3.208354 3.713302 -6.008537 -0.000056 0.000111 -0.000074
N -3.244641 3.690993 -0.786832 0.000104 -0.000237 -0.000174
N -0.018592 -1.906180 4.453772 -0.000120 0.000231 -0.000101
N -0.024946 -1.900675 -6.028406 -0.000080 0.000133 -0.000097
N -0.022507 -1.901933 -0.778234 0.000167 -0.000150 -0.000232
N 0.021043 1.853455 1.878463 0.000325 -0.000634 -0.000254
N -0.016178 1.824888 7.058213 -0.000083 0.000101 -0.000076
N -0.024998 1.825320 -3.408827 -0.000107 0.000153 -0.000089
N 3.252038 -3.793808 1.862158 0.000028 -0.000086 -0.000299
N 3.210021 -3.770719 7.060626 -0.000003 0.000017 -0.000128
N 3.203556 -3.764151 -3.466189 -0.000024 0.000103 -0.000116
N 1.591699 -0.920856 1.852078 0.000200 -0.000043 0.000089
N 1.596933 -0.972301 7.068100 -0.000129 0.000011 -0.000103
N 1.589770 -0.969046 -3.403666 -0.000105 -0.000006 -0.000065
N 3.161012 1.801060 1.860259 0.000169 -0.000392 -0.000116
N 3.203867 1.818568 7.061988 -0.000132 0.000008 -0.000093
N 3.200308 1.826465 -3.406660 -0.000089 0.000087 -0.000010
N 6.385905 -3.791145 1.851035 0.000350 -0.000285 -0.000224
N 6.427264 -3.772075 7.007614 -0.000096 -0.000017 0.000034
N 6.428656 -3.765134 -3.406381 -0.000134 0.000040 -0.000200
N 4.819454 -0.972728 1.837573 0.000186 -0.000432 -0.000057
N 4.818157 -0.975359 7.076596 -0.000103 -0.000082 -0.000133
N 4.815112 -0.970486 -3.406107 -0.000150 0.000006 -0.000127
N -3.250288 1.822787 1.834500 0.000135 -0.000290 0.000020
N -3.247252 1.823733 7.077746 -0.000076 0.000054 -0.000098
N -3.250363 1.824922 -3.402414 -0.000134 0.000108 -0.000117
N -0.026123 -3.768418 1.841887 0.000179 -0.000282 -0.000121
N -0.017597 -3.770201 7.076621 -0.000063 0.000056 -0.000123
N -0.026112 -3.764746 -3.405542 -0.000070 0.000062 -0.000135
N -1.640678 -0.971783 1.843628 0.000191 -0.000324 -0.000044
N -1.632885 -0.974504 7.069101 -0.000106 -0.000009 -0.000109
N -1.638092 -0.968246 -3.404941 -0.000142 0.000012 -0.000092
