108
Energy=-2359233.142727 Lattice="9.587021 0.000000 0.000000 -4.813713 8.302767 0.000000 -0.002312 -0.003088 15.429523" Stress="-0.000152 0.000008 -0.000002 0.000008 -0.000117 0.000000 -0.000002 0.000000 -0.000175" Properties=species:S:1:pos:R:3:forces:R:3
Al 1.559884 0.911915 2.389565 -0.003520 -0.000837 0.005926
Al 1.565198 0.885614 7.562827 -0.000219 -0.002409 0.000491
Ga 1.563435 0.878994 -2.705400 0.003046 -0.002200 0.003324
Al -0.056614 3.757880 2.076715 0.032578 -0.062088 0.071229
Al -0.017608 3.640166 7.571587 -0.001569 -0.000615 -0.003515
Ga -0.030734 3.642730 -2.719527 0.001677 0.001974 0.000169
Ga 3.192001 -1.904814 2.391481 -0.004556 0.006101 0.009656
Ga 3.189394 -1.892525 7.567890 -0.002030 -0.002902 0.000186
Ga 3.180494 -1.900494 -2.703426 0.002431 0.000488 0.002863
Ga -4.842212 0.892130 2.439646 0.000220 -0.001758 -0.001904
Ga -4.840605 0.886945 7.575069 0.001142 -0.001662 -0.000930
Ga -4.828565 0.898388 -2.704543 0.001544 -0.003897 -0.002923
Al -6.438287 3.648091 2.400488 0.001495 -0.002693 0.008723
Ga -6.444204 3.644559 7.573920 0.001753 0.001145 0.000128
Ga -6.421936 3.655831 -2.714267 -0.000495 0.000002 0.002306
Ga -3.213241 -1.914306 2.413906 0.003516 0.003464 0.005900
Ga -3.212956 -1.900333 7.577587 0.001567 -0.001215 0.000599
Ga -3.206474 -1.896206 -2.710853 0.000402 0.000148 0.001926
Ga -1.631835 0.915299 2.412221 0.009595 -0.000428 0.002675
Ga -1.636398 0.898472 7.576125 0.006001 -0.001442 -0.002477
Ga -1.639866 0.905173 -2.705010 0.001850 -0.004059 -0.001132
Ga -3.232256 3.656097 2.397274 -0.001163 -0.001362 0.009101
Ga -3.235529 3.654120 7.568183 0.003790 0.003071 -0.000691
Al -3.235298 3.665164 -2.708455 0.001771 -0.001544 0.002182
Ga -0.019549 -1.880907 2.393809 0.004839 0.000736 0.005327
Ga -0.019791 -1.875350 7.567551 0.004665 -0.000850 -0.000130
Ga -0.009586 -1.886554 -2.699245 0.001109 0.000586 0.002997
Ga -0.016378 1.799133 5.004453 -0.002804 0.011204 -0.004535
Ga -0.013667 1.808156 -5.307608 -0.002967 0.000685 0.000712
Al -0.021447 1.788818 -0.159329 -0.001254 -0.002930 -0.000856
Ga 3.197554 -3.741640 5.003740 0.007463 -0.006666 -0.002237
Ga 3.199901 -3.739174 -5.289835 -0.001304 -0.001390 -0.000028
Al 3.192461 -3.744162 -0.153704 -0.010485 0.004128 -0.013478
Ga 1.598700 -0.967086 4.983494 -0.003541 0.004298 0.000326
Ga 1.599642 -0.970229 -5.292544 -0.003645 0.003825 0.000550
Al 1.592618 -0.977360 -0.137107 -0.002924 0.003320 -0.001391
Ga 3.152606 1.804283 4.984752 -0.002878 0.002599 0.001790
Ga 3.153880 1.810690 -5.293387 -0.000393 0.000512 0.001700
Ga 3.152546 1.810213 -0.128109 -0.000879 -0.000034 -0.001332
Ga 6.378181 -3.738363 4.993116 -0.009392 -0.007095 -0.002087
Al 6.378777 -3.732003 -5.297253 -0.001184 -0.000809 0.001206
Al 6.378190 -3.747116 -0.143015 0.008407 0.003925 -0.006286
Ga 4.784177 -0.973715 5.001282 -0.000988 0.001385 0.000161
Ga 4.788706 -0.976418 -5.278444 -0.000487 0.003725 -0.000553
Ga 4.780230 -0.983038 -0.132227 -0.000370 0.005266 -0.007971
Ga -3.235292 1.812642 4.996039 0.001308 0.000816 0.000805
Ga -3.234491 1.820379 -5.280061 -0.000673 -0.000651 0.001927
Ga -3.226514 1.830702 -0.156293 -0.001196 -0.002107 0.000203
Ga -0.020138 -3.726510 4.978879 -0.002202 -0.001360 0.002413
Ga -0.018329 -3.723461 -5.282598 -0.001520 -0.000965 0.001279
Al -0.013423 -3.723220 -0.155065 -0.000887 -0.000880 0.001055
Ga -1.612488 -0.964136 4.995337 -0.002099 0.003967 -0.000426
Ga -1.612724 -0.969504 -5.281066 -0.002464 0.003798 0.000051
Ga -1.603227 -0.973563 -0.126064 -0.002052 0.004314 -0.011435
N 1.560561 0.888378 4.331660 0.002115 -0.006999 -0.012355
N 1.569059 0.883844 -5.945952 0.001648 -0.004210 -0.006381
N 1.540667 0.861426 -0.731326 -0.002819 -0.006061 0.000534
N -0.028635 3.637769 4.390574 -0.001487 0.004790 -0.028724
N 0.002550 3.663818 -5.928333 0.004881 0.003544 -0.004106
N -0.024375 3.636151 -0.733677 -0.000588 0.002849 0.012807
N 3.189644 -1.898350 4.374773 -0.001682 0.000632 -0.007466
N 3.190642 -1.892308 -5.900576 0.000222 -0.000166 -0.000221
N 3.160799 -1.909228 -0.726562 -0.005686 -0.005627 0.002531
N -4.833333 0.885349 4.383873 0.001587 -0.003348 0.000691
N -4.830628 0.890238 -5.896659 0.001508 -0.003656 0.000844
N -4.831714 0.890705 -0.760544 0.000978 -0.003901 0.004016
N -6.429381 3.649745 4.341523 0.003302 0.001170 -0.013111
N -6.454263 3.669371 -5.889249 -0.003600 0.003262 0.002567
N -6.429254 3.679443 -0.736299 0.000727 0.007147 0.002562
N -3.210634 -1.894129 4.378530 0.002278 0.002013 -0.004580
N -3.207325 -1.921204 -5.887928 0.000508 -0.005215 0.002191
N -3.207538 -1.926980 -0.742516 -0.000093 -0.008076 0.001092
N -1.638492 0.899497 4.379919 0.002748 -0.005950 -0.002828
N -1.643795 0.896696 -5.898658 0.003493 -0.003464 0.002184
N -1.610921 0.909627 -0.746652 0.006994 -0.001182 0.000567
N -3.235791 3.657516 4.375008 0.001611 0.001802 -0.006883
N -3.238382 3.658958 -5.905280 0.002702 0.001020 0.000985
N -3.236155 3.691021 -0.772554 0.003353 0.007930 -0.002629
N -0.020449 -1.880298 4.368752 0.003216 0.000360 -0.004407
N -0.019339 -1.879766 -5.900552 0.003101 0.000005 -0.000570
N 0.009928 -1.896330 -0.722770 0.008159 -0.004156 0.000533
N -0.000814 1.843169 1.738033 0.001047 0.002336 0.000636
N 0.008736 1.813984 6.977590 0.001092 0.001055 0.007208
N -0.019980 1.800167 -3.338257 -0.002624 0.000890 -0.000667
N 3.238760 -3.771337 1.761959 -0.043250 0.025825 -0.021541
N 3.222539 -3.755047 6.969059 0.000730 -0.002416 0.005618
N 3.162501 -3.754816 -3.316296 -0.006001 -0.003639 0.002382
N 1.600779 -0.932056 1.774523 -0.002838 0.005648 -0.001917
N 1.598217 -0.937247 6.957385 -0.003432 0.007389 0.001198
N 1.598362 -0.973128 -3.326847 -0.003534 0.002691 -0.001266
N 3.135844 1.827221 1.834566 -0.003492 0.002446 0.002079
N 3.129268 1.790522 6.960473 -0.003939 -0.003190 -0.000493
N 3.160146 1.806166 -3.327124 -0.001422 0.000733 -0.001054
N 6.374230 -3.784068 1.792478 0.015826 0.012141 -0.019138
N 6.352237 -3.750159 6.960347 -0.003788 -0.001182 0.003617
N 6.379755 -3.731781 -3.368614 -0.001362 -0.001898 -0.007082
N 4.788445 -0.969944 1.802257 -0.001084 0.001625 0.004391
N 4.785440 -0.971372 6.960424 -0.000390 0.003895 -0.001697
N 4.784739 -0.969822 -3.319754 -0.002102 0.002865 0.001293
N -3.241076 1.807667 1.803239 -0.000450 0.001670 -0.002067
N -3.236441 1.810861 6.955375 -0.001167 -0.001370 -0.001663
N -3.233204 1.850483 -3.312417 0.000106 0.006837 0.002550
N -0.044421 -3.745355 1.773886 -0.004627 -0.002735 -0.006335
N -0.023144 -3.727226 6.949486 -0.000908 -0.000613 -0.001503
N 0.015428 -3.738272 -3.312858 0.004380 -0.003756 0.001762
N -1.619487 -0.961115 1.790928 -0.002233 0.002727 0.010615
N -1.614762 -0.965328 6.958307 -0.002964 0.003560 -0.001377
N -1.607870 -0.963847 -3.319233 -0.000783 0.003319 0.001037
