108
Energy=-1306398.290608 Lattice="9.499051 0.000000 0.000000 -4.750104 8.223922 0.000000 0.000320 0.000432 15.322150" Stress="-0.000002 -0.000000 0.000000 -0.000000 -0.000004 -0.000000 0.000000 -0.000000 -0.000001" Properties=species:S:1:pos:R:3:forces:R:3
Al 1.560003 0.886392 2.377057 -0.000307 0.000091 -0.000506
Al 1.554346 0.877287 7.521596 0.000019 -0.000066 -0.000243
Al 1.542878 0.875705 -2.684616 0.000116 0.000613 0.000160
Al -0.028937 3.605350 2.388556 0.000221 0.000005 0.000408
Al -0.027569 3.602588 7.526149 -0.000112 0.000088 0.000167
Al -0.017767 3.605327 -2.703922 -0.000027 0.000081 -0.000167
Al 3.149913 -1.870561 2.395306 0.000624 0.000212 -0.000362
Al 3.152057 -1.860697 7.526116 0.000483 0.000093 -0.000068
Ga 3.140828 -1.874619 -2.706493 0.000031 -0.000100 0.000049
Al -4.768572 0.880013 2.397082 -0.000295 -0.000284 0.000388
Al -4.776752 0.864375 7.491178 0.000297 -0.000166 0.000037
Ga -4.774144 0.874437 -2.672374 0.000327 -0.000021 -0.000089
Al -6.356303 3.604437 2.406163 -0.000320 -0.000115 -0.000138
Ga -6.354197 3.608442 7.513388 0.000054 0.000052 0.000239
Al -6.376040 3.616719 -2.696060 -0.000451 0.000594 0.000848
Al -3.190115 -1.856702 2.412540 -0.000377 -0.000310 0.000308
Ga -3.210820 -1.863429 7.511903 -0.000235 0.000211 0.000253
Al -3.178211 -1.876532 -2.703832 -0.000466 0.000191 -0.000491
Al -1.605939 0.883729 2.400172 0.000097 -0.000325 -0.000104
Ga -1.601142 0.896450 7.488059 0.000441 -0.000347 0.000057
Al -1.589626 0.872741 -2.673934 0.000058 0.000205 0.000206
Al -3.179778 3.603306 2.401835 -0.000138 0.000335 0.000004
Al -3.185346 3.614317 7.495214 -0.000021 -0.000316 -0.000061
Ga -3.172568 3.615827 -2.675461 0.000352 -0.000202 -0.000268
Ga -0.026019 -1.859373 2.401621 -0.000009 0.000018 0.000021
Ga -0.007108 -1.867482 7.501467 0.000011 -0.000161 0.000199
Al -0.025150 -1.847016 -2.677843 -0.000096 -0.000204 0.000356
Al -0.030426 1.784691 4.936079 0.000193 -0.000371 -0.000247
Al -0.014409 1.796100 -5.234193 0.000464 0.000213 0.000237
Al -0.030966 1.781749 -0.155348 0.000086 -0.000332 0.001136
Ga 3.144067 -3.702556 4.958876 -0.000386 -0.000203 0.000260
Al 3.160460 -3.691928 -5.284136 -0.000024 -0.000231 -0.000183
Al 3.147896 -3.704595 -0.120819 -0.000242 -0.000081 0.000238
Ga 1.567759 -0.945274 4.953437 -0.000591 0.000431 0.000219
Al 1.570327 -0.945544 -5.252700 0.000146 0.000464 -0.000122
Al 1.558166 -0.940678 -0.141701 0.000021 0.000174 0.000050
Ga 3.146637 1.780175 4.949273 0.000104 -0.000204 0.000239
Ga 3.126326 1.771789 -5.254482 0.000094 -0.000195 -0.000109
Al 3.130248 1.783847 -0.135532 -0.000201 0.000436 0.000732
Ga 6.306416 -3.690250 4.933692 0.000097 0.000108 0.000035
Al 6.283902 -3.697393 -5.230945 0.000365 -0.000436 -0.000040
Ga 6.300503 -3.699733 -0.141424 0.000475 -0.000224 0.000829
Al 4.733770 -0.944499 4.933575 0.000792 0.000587 0.000759
Al 4.716913 -0.964838 -5.253766 0.000277 0.000394 -0.000146
Ga 4.729287 -0.952934 -0.125207 -0.000239 0.000014 0.000997
Al -3.193150 1.783218 4.932122 0.001082 0.000506 0.000560
Ga -3.184177 1.787708 -5.261934 -0.000013 -0.000158 0.000332
Al -3.172822 1.784422 -0.114444 0.000484 -0.000086 -0.000419
Al -0.017212 -3.703039 4.939132 0.000218 -0.000070 -0.000311
Ga -0.012654 -3.687391 -5.227747 0.000033 0.000031 0.000111
Ga -0.018565 -3.695282 -0.144783 -0.000218 0.000080 0.000246
Al -1.615193 -0.938982 4.934667 -0.000213 0.000202 0.000125
Ga -1.603581 -0.949137 -5.221683 -0.000128 0.000101 0.000135
Al -1.602515 -0.933097 -0.154684 -0.000126 -0.000008 -0.000251
N 1.518574 0.899146 4.285099 -0.000356 0.000039 0.000282
N 1.508316 0.852547 -5.883772 -0.000115 -0.000065 0.000208
N 1.556342 0.874747 -0.755484 0.000238 0.000003 0.000078
N -0.029555 3.566196 4.294644 -0.000112 -0.000200 -0.000627
N -0.016942 3.604839 -5.866661 -0.000056 0.000045 0.000018
N -0.068537 3.592250 -0.778065 -0.000150 0.000001 -0.000128
N 3.185754 -1.848794 4.305324 -0.000750 -0.000411 -0.001006
N 3.144940 -1.862159 -5.864139 -0.000094 -0.000040 -0.000054
N 3.103868 -1.895945 -0.724036 -0.000331 -0.000107 0.000022
N -4.733033 0.855504 4.315912 -0.000470 -0.000493 -0.000878
N -4.772043 0.823808 -5.910459 0.000080 -0.000472 -0.000321
N -4.771178 0.924119 -0.698898 0.000196 -0.000165 0.000213
N -6.316376 3.632418 4.312105 0.000146 0.000235 -0.000359
N -6.395285 3.644042 -5.836208 -0.000627 0.000252 0.000147
N -6.362362 3.568592 -0.785670 -0.000102 -0.000338 -0.000560
N -3.187463 -1.817107 4.324462 0.000067 0.000267 -0.000408
N -3.225871 -1.890123 -5.826721 -0.000463 -0.000003 0.000156
N -3.151700 -1.846029 -0.794553 0.000321 0.000268 0.000544
N -1.606886 0.880414 4.332269 0.000470 -0.000221 -0.000086
N -1.557133 0.899509 -5.861816 -0.000218 -0.000326 -0.000202
N -1.608055 0.881160 -0.752076 0.000211 -0.000161 0.000177
N -3.222581 3.591670 4.318738 -0.000139 0.000058 -0.000103
N -3.155118 3.638775 -5.910655 0.000235 0.000262 -0.000169
N -3.140788 3.589253 -0.707167 0.000204 -0.000007 0.000523
N -0.061467 -1.884564 4.376589 0.000241 -0.000268 -0.000015
N 0.016356 -1.842163 -5.849654 -0.000040 -0.000092 -0.000081
N -0.017820 -1.814014 -0.758473 -0.000213 0.000237 -0.000075
N -0.026370 1.785841 1.771794 -0.000148 0.000173 -0.001247
N 0.024385 1.815332 6.858465 0.000027 -0.000036 -0.000213
N -0.021496 1.785272 -3.302779 -0.000126 0.000095 0.000133
N 3.146364 -3.696888 1.798880 -0.000078 0.000186 -0.000262
N 3.150210 -3.692898 6.952865 0.000021 0.000177 0.000287
N 3.187965 -3.722353 -3.368789 -0.000127 -0.000016 -0.000172
N 1.602205 -0.928147 1.772590 0.000137 -0.000112 0.000153
N 1.612260 -0.925493 6.928422 -0.000269 0.000234 0.000257
N 1.522519 -0.925091 -3.327092 -0.000297 -0.000125 -0.000289
N 3.142304 1.790509 1.790196 0.000307 -0.000133 -0.000441
N 3.137980 1.738603 6.929623 -0.000050 -0.000292 0.000037
N 3.099078 1.804004 -3.276000 -0.000279 -0.000541 -0.000003
N 6.310545 -3.690968 1.848294 -0.000290 -0.000066 -0.000909
N 6.264007 -3.719747 6.903704 -0.000013 0.000034 0.000043
N 6.302642 -3.698145 -3.304178 0.000119 0.000114 0.000081
N 4.730501 -0.954167 1.847656 -0.000164 0.000122 -0.000529
N 4.683290 -0.932994 6.859994 -0.000495 -0.000078 -0.000191
N 4.765197 -0.972162 -3.340622 0.000330 -0.000196 0.000229
N -3.182149 1.785671 1.802686 -0.000232 0.000006 -0.000074
N -3.233900 1.811673 6.861867 -0.000271 0.000205 -0.000352
N -3.148353 1.762711 -3.293029 0.000311 -0.000161 0.000057
N -0.022170 -3.739756 1.824978 0.000363 -0.000463 -0.000049
N 0.017238 -3.720531 6.852616 0.000294 -0.000028 -0.000209
N -0.058323 -3.669414 -3.247924 0.000168 0.000420 0.000231
N -1.649206 -0.925801 1.766867 -0.000063 0.000762 -0.000075
N -1.610150 -0.952523 6.842553 -0.000186 0.000316 -0.000478
N -1.603060 -0.947470 -3.242722 0.000010 -0.000209 0.000071
