108
Energy=-1947251.995209 Lattice="9.509333 0.000000 0.000000 -4.760977 8.220830 0.000000 0.007154 -0.017927 15.386795" Stress="-0.000217 0.000028 0.000002 0.000028 -0.000199 -0.000005 0.000002 -0.000005 -0.000149" Properties=species:S:1:pos:R:3:forces:R:3
Al 1.570865 0.892012 2.482778 -0.000181 -0.011634 -0.007476
Al 1.570266 0.890119 7.552205 -0.001144 -0.012166 -0.002874
Al 1.561513 0.906062 -2.767639 0.000279 -0.011962 -0.002739
Al -0.001034 3.607717 2.480263 -0.001978 0.000024 -0.005990
Al -0.002446 3.605327 7.551001 -0.002757 -0.000726 -0.001929
Al -0.006982 3.622625 -2.764609 -0.002464 -0.001015 -0.000632
Al 3.184946 -1.888670 2.479835 -0.001827 0.000780 -0.007117
Al 3.181836 -1.894687 7.553332 -0.002660 0.001143 -0.002209
Ga 3.177827 -1.878069 -2.762184 -0.003480 0.001373 -0.000986
Al -4.798483 0.891047 2.485083 0.000891 -0.011171 -0.007057
Ga -4.799343 0.892249 7.557406 0.001196 -0.013576 -0.002640
Ga -4.803142 0.905708 -2.762153 -0.000375 -0.012507 -0.002210
Al -6.370273 3.608133 2.480301 -0.001233 0.000273 -0.005519
Al -6.367591 3.606850 7.556445 0.000163 0.000860 -0.000357
Al -6.377357 3.625971 -2.770236 0.000961 -0.000393 -0.000955
Ga -3.182176 -1.889806 2.481843 -0.001620 0.001523 -0.006758
Ga -3.179920 -1.895576 7.554959 -0.000386 0.002621 -0.001606
Al -3.185236 -1.879473 -2.763505 0.000188 0.002422 -0.000541
Ga -1.648151 0.894429 2.483149 0.013155 -0.006594 -0.009907
Ga -1.646513 0.893412 7.555650 0.013214 -0.007239 -0.005756
Ga -1.654414 0.906287 -2.758967 0.013704 -0.007522 -0.004507
Ga -3.224934 3.611368 2.479728 0.012563 0.006840 -0.007856
Al -3.224315 3.613333 7.556161 0.010217 0.004759 -0.001749
Ga -3.230605 3.627969 -2.761710 0.011443 0.007320 -0.002008
Ga -0.034952 -1.888543 2.478536 0.012936 0.007899 -0.008170
Al -0.033147 -1.893120 7.555830 0.010317 0.006381 -0.002568
Al -0.044336 -1.874513 -2.767155 0.010737 0.005793 -0.002689
Al -0.001046 1.794320 5.016274 -0.009889 -0.006208 -0.001628
Ga -0.005410 1.811105 -5.299957 -0.011823 -0.008748 -0.002214
Ga -0.004965 1.809947 -0.221859 -0.011971 -0.008281 0.031429
Ga 3.185969 -3.708551 5.018955 -0.011287 -0.005911 -0.001531
Ga 3.178445 -3.691294 -5.302100 -0.012407 -0.006229 -0.001645
Ga 3.184782 -3.690599 -0.215995 -0.011821 -0.006645 0.031699
Ga 1.611270 -0.986580 5.020426 -0.012637 0.007757 -0.004107
Ga 1.605371 -0.971389 -5.301588 -0.013114 0.007708 -0.004683
Ga 1.606435 -0.971583 -0.220611 -0.012761 0.006948 0.029142
Ga 3.138657 1.796471 5.016731 0.000532 -0.002822 -0.000185
Al 3.134652 1.812983 -5.301605 -0.000219 -0.002152 -0.000245
Ga 3.132517 1.809618 -0.225075 0.001004 -0.002308 0.034658
Ga 6.329561 -3.709419 5.018464 -0.000169 0.000064 0.000608
Ga 6.324882 -3.691639 -5.299140 0.000601 -0.001053 0.000982
Al 6.323035 -3.694254 -0.243996 0.000395 0.000161 0.030337
Ga 4.754864 -0.986695 5.018350 -0.000438 0.013731 -0.002385
Ga 4.749314 -0.970088 -5.297581 -0.001345 0.013868 -0.001752
Al 4.750096 -0.974384 -0.235758 -0.000755 0.010817 0.029202
Ga -3.220360 1.798631 5.019973 0.001703 -0.002919 -0.000777
Ga -3.231391 1.815677 -5.298908 0.002166 -0.001224 -0.001080
Ga -3.229310 1.809559 -0.215880 0.002016 -0.001496 0.033113
Ga -0.034551 -3.703650 5.020780 0.001366 0.000477 0.000847
Al -0.041778 -3.688351 -5.303936 0.002033 0.000690 -0.000509
Ga -0.044757 -3.687521 -0.226010 0.002235 -0.000132 0.033878
Ga -1.603752 -0.983771 5.022262 -0.000119 0.014715 -0.002477
Ga -1.612453 -0.971701 -5.297138 0.001701 0.014734 -0.002194
Ga -1.615642 -0.974037 -0.221566 0.000906 0.013912 0.030685
N 1.562247 0.892693 4.410181 -0.016231 -0.005262 -0.009234
N 1.568425 0.909725 -5.909105 0.015246 -0.004964 -0.009256
N 1.562636 0.903736 -0.839974 -0.000597 -0.013973 -0.013727
N -0.003608 3.600502 4.409744 -0.002190 -0.017670 -0.012496
N -0.009526 3.623644 -5.911155 -0.001615 0.000852 -0.019083
N -0.004351 3.624847 -0.837763 0.013191 0.008694 -0.010668
N 3.182866 -1.892772 4.407846 -0.002925 0.000816 -0.019335
N 3.177278 -1.876612 -5.908725 -0.001640 0.001498 -0.019695
N 3.182539 -1.875202 -0.826942 0.012932 0.010179 0.007887
N -4.795540 0.891293 4.410457 0.000982 -0.012763 -0.015419
N -4.808916 0.910477 -5.897516 -0.014617 -0.005280 0.009787
N -4.802375 0.898055 -0.826804 0.000944 -0.028839 0.010553
N -6.367606 3.609968 4.407788 0.000596 0.000900 -0.019079
N -6.368765 3.622016 -5.904278 0.015245 -0.008551 -0.005108
N -6.379662 3.625868 -0.842732 -0.015586 0.008596 -0.009720
N -3.179219 -1.891177 4.417206 0.000014 0.001787 0.000216
N -3.186678 -1.875882 -5.900996 -0.001160 0.001872 0.000409
N -3.192035 -1.881543 -0.836215 -0.016451 -0.007348 -0.003802
N -1.642448 0.896224 4.418859 0.026343 -0.000277 0.011034
N -1.655902 0.908638 -5.900226 0.012978 -0.007822 0.006924
N -1.656225 0.906158 -0.825569 0.013648 -0.007454 0.008368
N -3.223558 3.612128 4.414488 0.012318 0.006933 0.002971
N -3.236428 3.631767 -5.906447 -0.003122 0.015333 -0.009329
N -3.229430 3.626660 -0.825870 0.012749 0.006140 0.005852
N -0.035203 -1.889443 4.414422 0.012108 0.007472 0.002327
N -0.042633 -1.880898 -5.907397 0.011475 -0.010183 -0.008881
N -0.042710 -1.874760 -0.839459 0.012134 0.007995 -0.013397
N 0.005917 1.799186 1.877090 0.003006 0.001047 -0.015427
N 0.005213 1.796943 6.946574 0.004044 0.001303 -0.004494
N -0.001841 1.813067 -3.363833 0.002750 0.001637 0.015196
N 3.192751 -3.701907 1.877682 0.002568 0.002608 -0.014415
N 3.185160 -3.707820 6.956595 -0.009646 -0.004841 0.020758
N 3.185191 -3.695550 -3.366093 0.003498 -0.015825 0.008995
N 1.619769 -0.980780 1.878364 0.000385 0.014081 -0.013504
N 1.612368 -0.988118 6.957664 -0.011376 0.006762 0.022538
N 1.599349 -0.968493 -3.365739 -0.026573 0.015022 0.016729
N 3.141797 1.796189 1.886307 0.000639 -0.000761 -0.013910
N 3.135640 1.798930 6.953995 -0.014869 0.007601 0.012008
N 3.128779 1.814132 -3.372318 -0.014253 0.007410 -0.006362
N 6.328470 -3.710261 1.883700 0.001010 -0.018152 -0.033844
N 6.330518 -3.714975 6.955421 0.000635 -0.018578 0.012254
N 6.322699 -3.690916 -3.362638 -0.000181 0.000238 0.019611
N 4.749320 -0.978427 1.887047 -0.015864 0.019918 -0.031914
N 4.749786 -0.990297 6.953223 -0.015852 0.004762 0.009224
N 4.756088 -0.974959 -3.364311 0.015656 0.004601 0.010127
N -3.229347 1.792784 1.878290 -0.013165 -0.009999 -0.025119
N -3.222565 1.803828 6.955137 0.001869 0.016110 0.005843
N -3.228320 1.812945 -3.365495 0.002583 -0.001959 -0.000726
N -0.042302 -3.707667 1.873782 -0.014009 -0.008158 -0.025356
N -0.034661 -3.705252 6.958016 0.000923 -0.000414 0.019058
N -0.046650 -3.684841 -3.373163 -0.013953 0.008500 -0.006469
N -1.607223 -0.982561 1.870026 0.000236 0.014073 -0.028109
N -1.599898 -0.989388 6.955267 0.015850 0.005012 0.009292
N -1.613218 -0.976922 -3.361921 -0.000443 -0.003640 0.015554
