108
Energy=-2.450785e+06 Lattice="9.581279e+00 0.000000e+00 0.000000e+00 -4.804820e+00 8.291829e+00 0.000000e+00 1.759002e-02 -9.750222e-02 1.543241e+01" Stress="-3.327007e-02 2.630746e-03 7.307970e-04 2.616039e-03 -2.849609e-02 -3.272107e-03 7.178377e-04 -3.275800e-03 -3.676291e-02" Properties=species:S:1:pos:R:3:forces:R:3 Config_type=AlGaN_super3_44_2_3.xyz
Al 1.577954e+00 8.241686e-01 2.449721e+00 6.794262e-04 -5.888913e-03 -3.072098e-03
Al 1.586143e+00 8.337406e-01 7.566650e+00 3.367112e-04 -5.362334e-03 -3.237675e-05
Ga 1.560675e+00 9.489330e-01 -2.733946e+00 -1.340707e-04 -8.450318e-03 -1.275642e-04
Al 5.090544e-04 3.574231e+00 2.452294e+00 -1.960968e-03 -7.371827e-04 -1.164150e-03
Ga -3.047794e-03 3.585280e+00 7.558901e+00 -7.636190e-04 -6.408748e-04 9.538211e-04
Al -2.856296e-02 3.694422e+00 -2.742427e+00 -4.701324e-04 -9.575643e-04 1.064845e-03
Ga 3.203932e+00 -1.955323e+00 2.430729e+00 -2.566704e-04 5.039789e-04 3.305010e-04
Ga 3.203586e+00 -1.939475e+00 7.567782e+00 -7.510602e-04 -9.631086e-04 -3.220172e-04
Ga 3.189417e+00 -1.845683e+00 -2.736609e+00 -2.090647e-03 -4.692736e-04 3.626293e-04
Ga -4.823863e+00 8.321519e-01 2.448336e+00 1.015088e-03 -5.098165e-03 -3.574084e-03
Al -4.821091e+00 8.399230e-01 7.571712e+00 5.553674e-04 -5.534107e-03 1.578198e-04
Ga -4.838287e+00 9.454624e-01 -2.735045e+00 1.329964e-03 -6.219726e-03 2.343385e-03
Ga -6.420698e+00 3.580930e+00 2.449945e+00 1.465800e-03 6.461124e-04 -1.271531e-03
Ga -6.413905e+00 3.586091e+00 7.562783e+00 -7.223527e-04 -2.420429e-04 6.823207e-04
Ga -6.434881e+00 3.696067e+00 -2.732546e+00 2.176178e-04 -2.738046e-06 7.562148e-04
Ga -3.198015e+00 -1.960333e+00 2.430647e+00 -1.204309e-03 2.504006e-03 1.617032e-03
Ga -3.195309e+00 -1.942475e+00 7.566765e+00 -1.137710e-03 -1.085976e-03 1.346511e-03
Ga -3.218549e+00 -1.840579e+00 -2.743521e+00 2.135008e-03 1.002440e-04 4.448051e-04
Ga -1.630480e+00 8.318160e-01 2.446380e+00 7.729523e-03 -3.272821e-03 -4.155850e-03
Ga -1.645796e+00 8.396674e-01 7.578614e+00 8.829171e-03 -2.895943e-03 -2.138160e-03
Ga -1.662217e+00 9.556026e-01 -2.747789e+00 8.062731e-03 -5.397134e-03 -1.281802e-03
Ga -3.226889e+00 3.585543e+00 2.445001e+00 6.339434e-03 4.098658e-03 -2.765471e-03
Ga -3.236151e+00 3.588222e+00 7.575040e+00 7.590896e-03 3.576406e-03 -5.183784e-04
Ga -3.248554e+00 3.697988e+00 -2.739827e+00 6.772604e-03 2.377441e-03 -3.586742e-04
Al -1.490817e-02 -1.951376e+00 2.450188e+00 6.064546e-03 2.338130e-03 -2.833473e-03
Ga -2.098848e-02 -1.934750e+00 7.574752e+00 8.091174e-03 2.646523e-03 -3.216654e-04
Ga -4.068409e-02 -1.832394e+00 -2.740888e+00 6.450553e-03 3.378225e-03 -2.019533e-04
Ga 3.244000e-03 1.749450e+00 5.001651e+00 -7.868361e-03 -2.785595e-03 -5.162513e-06
Ga -2.648003e-02 1.852070e+00 -5.304619e+00 -6.568490e-03 -4.885579e-03 -6.142894e-04
Ga -2.666888e-02 1.873264e+00 -1.688267e-01 -5.695407e-03 -7.331177e-03 1.323123e-02
Ga 3.216053e+00 -3.789859e+00 5.001993e+00 -6.469520e-03 -3.342898e-03 -8.058048e-04
Ga 3.192364e+00 -3.691101e+00 -5.297027e+00 -7.930101e-03 -2.156999e-03 -4.504573e-04
Ga 3.194923e+00 -3.671838e+00 -1.714983e-01 -6.418918e-03 -8.118385e-03 1.188487e-02
Ga 1.616567e+00 -1.034216e+00 5.003164e+00 -7.990391e-03 3.511848e-03 -1.083075e-03
Ga 1.594405e+00 -9.298258e-01 -5.302477e+00 -7.637091e-03 4.344384e-03 -1.961339e-03
Ga 1.600710e+00 -9.179661e-01 -1.553274e-01 -7.832017e-03 4.527812e-04 8.981025e-03
Ga 3.167515e+00 1.748322e+00 5.010432e+00 -1.051673e-04 -3.461217e-05 1.248758e-03
Ga 3.157925e+00 1.854625e+00 -5.312591e+00 -1.749738e-05 -1.971021e-03 1.605445e-03
Ga 3.151551e+00 1.862873e+00 -1.563006e-01 2.143337e-03 -4.708762e-03 1.143257e-02
Al 6.383891e+00 -3.786732e+00 4.999505e+00 -3.984784e-04 2.420456e-04 1.179696e-03
Ga 6.367164e+00 -3.679565e+00 -5.296916e+00 1.813947e-04 6.019191e-04 1.284431e-03
Ga 6.356805e+00 -3.666711e+00 -1.760839e-01 1.022779e-03 -5.531048e-03 1.338785e-02
Ga 4.797938e+00 -1.036176e+00 5.010756e+00 -1.231976e-04 6.067455e-03 -1.024387e-04
Ga 4.784754e+00 -9.237152e-01 -5.306728e+00 -1.386688e-03 7.336367e-03 -8.631727e-04
Al 4.778729e+00 -9.375173e-01 -1.870716e-01 -1.704338e-03 8.263420e-03 1.584179e-02
Ga -3.231627e+00 1.751758e+00 5.010376e+00 1.733389e-03 7.469821e-07 1.006641e-03
Al -3.249570e+00 1.853615e+00 -5.308972e+00 5.098189e-04 -2.271910e-04 8.759961e-04
Ga -3.250209e+00 1.867843e+00 -1.647161e-01 -4.428715e-04 -4.139088e-03 1.008092e-02
Ga -1.961567e-02 -3.780128e+00 5.002921e+00 7.791175e-04 1.557248e-04 7.094937e-04
Ga -3.676099e-02 -3.677706e+00 -5.299891e+00 1.755140e-03 9.954802e-04 -9.419480e-05
Ga -3.665092e-02 -3.659957e+00 -1.673227e-01 1.246102e-03 -3.506428e-03 1.368599e-02
Ga -1.606701e+00 -1.038006e+00 4.999745e+00 -8.309035e-04 7.488900e-03 -5.446015e-04
Al -1.629094e+00 -9.214449e-01 -5.301270e+00 -1.887707e-04 6.357950e-03 -3.914798e-04
Ga -1.632453e+00 -9.112903e-01 -1.655706e-01 1.324765e-03 3.348927e-03 1.072861e-02
N 1.582960e+00 8.309471e-01 4.369548e+00 8.095483e-04 -7.344681e-03 -1.063918e-02
N 1.563289e+00 9.381842e-01 -5.940268e+00 1.450149e-04 -6.884247e-03 -1.065061e-02
N 1.560488e+00 9.513808e-01 -7.798551e-01 3.129136e-04 -8.758700e-03 7.065387e-04
N 1.312055e-02 3.594078e+00 4.380295e+00 8.312368e-03 5.172138e-03 -8.614587e-03
N -2.439205e-02 3.690171e+00 -5.920571e+00 -3.622808e-04 -1.004021e-04 -1.260851e-03
N -2.956155e-02 3.701771e+00 -8.177674e-01 -3.970102e-04 -1.471350e-03 -1.183872e-02
N 3.206425e+00 -1.951277e+00 4.391008e+00 -1.112084e-03 6.979405e-04 -1.640818e-03
N 3.186522e+00 -1.849127e+00 -5.912809e+00 -4.323203e-04 1.074593e-04 -4.239615e-04
N 3.201706e+00 -1.829699e+00 -7.782278e-01 7.500485e-03 5.477137e-03 4.118951e-03
N -4.820487e+00 8.343649e-01 4.396384e+00 4.161440e-04 -6.829812e-03 9.521214e-04
N -4.819387e+00 9.525442e-01 -5.933205e+00 9.988843e-03 -1.820610e-03 -7.106077e-03
N -4.839279e+00 9.246844e-01 -7.679546e-01 7.585599e-04 -1.781858e-02 1.356338e-03
N -6.431166e+00 3.596198e+00 4.405532e+00 -9.016830e-03 5.260945e-03 3.624195e-03
N -6.431353e+00 3.694100e+00 -5.915665e+00 -3.111681e-04 3.696813e-04 -1.536982e-03
N -6.431571e+00 3.703935e+00 -7.786729e-01 2.243148e-04 -1.167476e-03 5.074709e-04
N -3.198572e+00 -1.972847e+00 4.395230e+00 -5.307395e-04 -9.788089e-03 2.353431e-03
N -3.195159e+00 -1.836500e+00 -5.907135e+00 9.208477e-03 5.497389e-03 2.279001e-03
N -3.233438e+00 -1.825770e+00 -7.865869e-01 -8.174476e-03 5.296286e-03 4.258334e-03
N -1.641034e+00 8.377000e-01 4.395443e+00 7.807723e-03 -3.815716e-03 2.986856e-03
N -1.680257e+00 9.306915e-01 -5.896821e+00 -9.534650e-04 -7.931108e-03 9.545914e-03
N -1.662915e+00 9.581786e-01 -7.901838e-01 8.801256e-03 -5.514937e-03 3.005789e-03
N -3.231396e+00 3.588904e+00 4.394971e+00 6.753203e-03 3.456386e-03 1.435869e-03
N -3.251376e+00 3.673518e+00 -5.903463e+00 6.777385e-03 -7.546631e-03 5.173020e-03
N -3.253361e+00 3.707402e+00 -7.853721e-01 7.165855e-03 2.222769e-03 2.106673e-03
N -1.832687e-02 -1.946913e+00 4.370918e+00 7.215209e-03 3.644990e-03 -1.062488e-02
N -5.882993e-02 -1.829394e+00 -5.904231e+00 -2.840207e-03 8.435093e-03 4.586527e-03
N -4.125277e-02 -1.824409e+00 -7.863972e-01 7.387655e-03 2.876526e-03 8.673559e-04
N 2.093951e-02 1.751893e+00 1.852494e+00 -4.577507e-05 6.648089e-03 -5.054498e-03
N 1.512417e-02 1.737845e+00 6.960794e+00 1.587377e-03 -9.479003e-03 4.516472e-03
N -2.243065e-02 1.880578e+00 -3.348027e+00 -6.706393e-03 7.311851e-03 3.957934e-03
N 3.236429e+00 -3.814056e+00 1.835907e+00 1.160732e-03 -2.865703e-03 -6.579350e-03
N 3.208729e+00 -3.786867e+00 6.954530e+00 -7.718174e-03 -2.389443e-03 1.169805e-03
N 3.209395e+00 -3.692648e+00 -3.342267e+00 1.889550e-03 -7.496169e-03 4.785517e-03
N 1.591573e+00 -1.035924e+00 1.849895e+00 -1.496221e-02 1.308132e-02 -2.219446e-03
N 1.615329e+00 -1.008578e+00 6.962205e+00 -8.274244e-03 1.311449e-02 4.337554e-03
N 1.598776e+00 -9.264103e-01 -3.350646e+00 -6.990952e-03 4.540813e-03 2.562776e-03
N 3.150826e+00 1.730656e+00 1.844766e+00 -9.839356e-03 -7.473867e-04 -7.700371e-03
N 3.171718e+00 1.730325e+00 6.970979e+00 6.396708e-04 -1.118056e-02 6.677843e-03
N 3.153166e+00 1.858972e+00 -3.352767e+00 6.736792e-04 -4.594267e-04 -2.381969e-03
N 6.361850e+00 -3.810968e+00 1.828804e+00 -9.154627e-03 3.750530e-04 -8.226133e-03
N 6.384896e+00 -3.781681e+00 6.928073e+00 6.845117e-04 7.642102e-04 -1.280814e-02
N 6.346477e+00 -3.689022e+00 -3.341626e+00 -9.073370e-03 -5.056576e-03 3.223878e-03
N 4.793509e+00 -1.021728e+00 1.813533e+00 -5.297922e-05 4.274252e-03 -2.517150e-02
N 4.796664e+00 -1.006300e+00 6.968165e+00 -9.138133e-04 1.688811e-02 3.756458e-03
N 4.776052e+00 -9.236474e-01 -3.353944e+00 -1.346440e-03 7.545391e-03 4.015924e-04
N -3.227581e+00 1.745012e+00 1.825504e+00 1.150512e-03 3.293488e-03 -9.570944e-03
N -3.248331e+00 1.745118e+00 6.965297e+00 -8.369291e-03 -5.951807e-03 2.938988e-03
N -3.251586e+00 1.862815e+00 -3.377144e+00 1.127344e-04 -2.910384e-04 -1.349693e-02
N -1.626847e-02 -3.770556e+00 1.845615e+00 -6.813957e-04 1.376798e-02 -8.343188e-03
N -1.620777e-02 -3.777356e+00 6.957766e+00 8.028590e-04 7.156586e-04 -9.613509e-04
N -3.678614e-02 -3.674374e+00 -3.348638e+00 5.776236e-04 -3.869769e-05 -5.093780e-04
N -1.580128e+00 -1.056246e+00 1.836315e+00 5.295520e-03 7.071453e-03 -6.464202e-03
N -1.606315e+00 -1.028018e+00 6.952792e+00 -2.917650e-04 7.989830e-03 -3.908750e-04
N -1.626977e+00 -9.213563e-01 -3.376816e+00 -8.700730e-04 7.470750e-03 -1.014820e-02
