108
Energy=-1672602.240046 Lattice="9.547370 0.000000 0.000000 -4.779267 8.266175 0.000000 -0.002463 0.005442 15.421458" Stress="0.000003 -0.000003 -0.000001 -0.000003 0.000001 0.000001 -0.000001 0.000001 -0.000005" Properties=species:S:1:pos:R:3:forces:R:3
Al 1.572812 0.893420 2.391491 0.000694 0.000052 0.000565
Al 1.565449 0.904911 7.577875 0.001355 -0.000431 -0.000470
Al 1.559877 0.887766 -2.712404 0.000189 0.000097 -0.000200
Al -0.014730 3.618752 2.409514 0.000048 0.000154 0.000063
Al -0.011306 3.613555 7.567155 -0.000031 0.000172 0.000202
Al -0.026960 3.612095 -2.711510 -0.000003 0.000067 0.000103
Al 3.170825 -1.857766 2.396824 -0.000109 0.000407 0.001273
Ga 3.170950 -1.858008 7.578224 0.000003 0.000184 0.000063
Ga 3.168080 -1.871643 -2.711418 -0.000102 0.000095 -0.000005
Al -4.812101 0.875807 2.395826 0.000645 0.001093 -0.000469
Al -4.813518 0.883220 7.563097 0.000013 -0.000117 0.000186
Ga -4.799633 0.875671 -2.699386 -0.000064 0.000111 -0.000054
Al -6.395446 3.613698 2.389139 0.000135 -0.000040 0.000128
Al -6.403081 3.613102 7.579741 0.000068 0.000045 -0.000071
Ga -6.397582 3.616823 -2.701371 0.000041 -0.000185 0.000088
Ga -3.231700 -1.880114 2.423219 0.000250 -0.000192 0.000282
Ga -3.223082 -1.876425 7.560156 -0.000128 0.000047 -0.000063
Al -3.217973 -1.872326 -2.708477 -0.000088 0.000034 0.000043
Ga -1.607547 0.907827 2.414773 -0.000275 0.000015 0.000040
Ga -1.605301 0.904754 7.560110 -0.000042 -0.000034 0.000115
Al -1.601095 0.899008 -2.704025 -0.000013 0.000015 0.000206
Ga -3.213656 3.625084 2.410546 -0.000232 -0.000226 0.000262
Ga -3.212518 3.622800 7.548632 0.000071 -0.000088 -0.000026
Al -3.196931 3.622322 -2.684247 0.000017 -0.000072 0.000117
Ga -0.005443 -1.878590 2.390949 -0.000085 -0.000274 0.000135
Ga -0.016768 -1.869402 7.585976 -0.000095 -0.000125 -0.000009
Ga -0.009916 -1.867566 -2.696889 0.000049 -0.000009 0.000151
Al -0.018963 1.803610 4.984608 0.000153 0.000075 -0.000074
Al -0.000730 1.786899 -5.267065 -0.000207 0.000678 -0.000442
Al -0.012627 1.791165 -0.165500 -0.000315 0.000009 -0.000213
Ga 3.179696 -3.716027 4.970575 -0.000024 0.000270 -0.000062
Ga 3.173875 -3.719442 -5.266421 -0.000022 0.000031 0.000135
Ga 3.159907 -3.717537 -0.147231 -0.000035 -0.000065 -0.000124
Ga 1.582479 -0.936676 4.978573 -0.000072 0.000095 -0.000071
Al 1.580934 -0.928249 -5.277430 -0.000058 -0.000074 0.000178
Al 1.581321 -0.936139 -0.139435 0.000148 -0.000375 -0.000519
Ga 3.161884 1.787452 4.979248 -0.000041 0.000004 0.000273
Al 3.143955 1.773915 -5.306120 0.000498 -0.000522 0.000553
Al 3.156084 1.779695 -0.129148 0.000105 0.000741 -0.000346
Ga 6.336837 -3.730099 4.990208 0.000071 -0.000087 0.000072
Ga 6.336622 -3.728524 -5.278227 -0.000197 0.000026 0.000074
Ga 6.340306 -3.722301 -0.149337 0.000154 -0.000111 -0.000003
Al 4.745217 -0.935211 4.975007 -0.000196 -0.000127 0.000068
Al 4.742752 -0.944838 -5.277835 -0.000096 0.000001 0.000023
Al 4.741514 -0.941661 -0.136629 0.000328 0.000440 -0.000860
Al -3.217595 1.781017 4.985404 0.000144 0.000027 -0.000028
Ga -3.214627 1.784022 -5.266500 -0.000022 0.000057 0.000158
Al -3.216632 1.796394 -0.162568 0.001108 0.000196 -0.000005
Ga -0.031734 -3.723643 4.991752 0.000030 -0.000025 0.000032
Ga -0.020802 -3.723781 -5.272199 0.000166 -0.000056 0.000064
Al -0.013813 -3.729161 -0.150036 -0.000041 -0.000047 0.000033
Ga -1.620513 -0.937456 4.988428 -0.000020 -0.000115 -0.000020
Ga -1.614601 -0.947997 -5.252868 -0.000041 -0.000161 0.000070
Ga -1.618549 -0.941822 -0.167745 0.000059 0.000006 -0.000020
N 1.525185 0.910062 4.311594 -0.000127 0.000159 -0.000130
N 1.560709 0.880544 -5.914308 -0.000090 0.000154 -0.000073
N 1.572103 0.880932 -0.776813 -0.000002 -0.000018 0.000071
N -0.022356 3.580228 4.320553 -0.000027 -0.000039 -0.000080
N -0.025811 3.574347 -5.935418 0.000121 -0.000571 0.000395
N -0.025890 3.582215 -0.804671 -0.000021 -0.000043 0.000053
N 3.202553 -1.846670 4.323295 0.000176 0.000083 -0.000854
N 3.162177 -1.832076 -5.855985 0.000022 0.000105 -0.000081
N 3.161600 -1.825677 -0.733284 -0.000287 0.000363 0.000477
N -4.758917 0.859512 4.323230 -0.000086 -0.000227 0.000255
N -4.836628 0.851925 -5.926960 -0.000118 0.000113 -0.000043
N -4.804019 0.881049 -0.716854 -0.000947 -0.001156 0.000256
N -6.392243 3.628288 4.301382 0.000006 -0.000087 -0.000207
N -6.391632 3.579969 -5.924239 -0.000099 0.000354 -0.000209
N -6.351648 3.598236 -0.725173 -0.000137 -0.000275 0.000116
N -3.251398 -1.855779 4.397335 -0.000042 -0.000042 -0.000149
N -3.247682 -1.853962 -5.883532 -0.000031 -0.000033 -0.000170
N -3.258280 -1.852321 -0.794508 0.000000 -0.000004 0.000052
N -1.613080 0.940469 4.401129 0.000172 -0.000070 -0.000082
N -1.569117 0.907772 -5.881365 0.000162 0.000151 0.000072
N -1.610490 0.937439 -0.786061 0.000079 0.000200 0.000169
N -3.211128 3.584932 4.389439 0.000043 -0.000053 -0.000098
N -3.203285 3.626692 -5.909057 -0.000051 -0.000135 -0.000111
N -3.246772 3.610099 -0.770027 0.000174 0.000051 -0.000076
N -0.017557 -1.874966 4.361353 -0.000006 -0.000098 -0.000137
N 0.021635 -1.851389 -5.859525 -0.000121 -0.000084 -0.000008
N 0.029103 -1.898471 -0.716160 0.000055 0.000174 -0.000015
N 0.020597 1.820538 1.753464 -0.000381 0.000138 -0.000094
N 0.026553 1.822711 6.909460 -0.000525 0.000248 -0.000012
N -0.014974 1.793231 -3.336754 -0.000068 0.000136 -0.000008
N 3.205920 -3.690476 1.837812 0.000251 -0.000028 -0.000230
N 3.212785 -3.730358 6.957022 -0.000045 0.000059 -0.000174
N 3.164506 -3.764671 -3.281301 0.000010 0.000063 -0.000094
N 1.615562 -0.923599 1.779159 0.000221 -0.000115 -0.000529
N 1.572565 -0.898875 6.959322 -0.000066 0.000238 0.000160
N 1.573131 -0.901954 -3.362486 0.000038 0.000026 0.000011
N 3.156417 1.790441 1.794541 0.000013 -0.000113 -0.000076
N 3.156361 1.796487 6.982544 -0.000622 -0.000172 0.000226
N 3.117104 1.766115 -3.380758 -0.000160 -0.000068 -0.000250
N 6.341537 -3.758481 1.827495 -0.000156 -0.000008 -0.000156
N 6.345459 -3.764984 6.979663 0.000010 -0.000061 -0.000090
N 6.303186 -3.693955 -3.291798 -0.000008 -0.000046 -0.000090
N 4.714931 -0.929870 1.772055 -0.000909 -0.000650 0.000483
N 4.744502 -0.900546 6.892989 -0.000149 -0.000020 0.000028
N 4.792598 -0.973849 -3.370226 -0.000063 0.000019 0.000021
N -3.246718 1.771924 1.749699 -0.000425 -0.000265 0.000333
N -3.256733 1.765857 6.904153 0.000050 0.000003 -0.000033
N -3.169107 1.817305 -3.286159 0.000086 0.000024 -0.000118
N -0.059348 -3.741707 1.758122 0.000025 0.000001 0.000030
N -0.074067 -3.733872 6.967498 0.000040 -0.000087 0.000007
N 0.021914 -3.742388 -3.300641 0.000001 0.000039 -0.000062
N -1.621878 -0.950396 1.800179 0.000090 0.000059 -0.000037
N -1.613933 -0.951645 6.954541 0.000001 -0.000026 -0.000074
N -1.653516 -0.930787 -3.266785 0.000040 -0.000051 -0.000164
