108
Energy=-1031745.429081 Lattice="9.466916 0.000000 0.000000 -4.736533 8.197412 0.000000 0.005854 0.000244 15.239124" Stress="0.000000 -0.000001 0.000001 -0.000001 -0.000000 0.000000 0.000001 0.000000 0.000000" Properties=species:S:1:pos:R:3:forces:R:3
Al 1.552696 0.877405 2.409135 -0.000032 -0.000044 -0.000013
Al 1.554149 0.877626 7.443829 0.000227 -0.000127 0.000200
Al 1.541183 0.876906 -2.686033 -0.000432 -0.000234 -0.000099
Al -0.023928 3.596126 2.365854 -0.000044 0.000069 0.000241
Al -0.019408 3.587394 7.488036 -0.000240 -0.000239 -0.000036
Al -0.038180 3.594088 -2.683448 -0.000243 -0.000042 -0.000030
Al 3.131241 -1.862879 2.404833 0.000129 0.000008 -0.000032
Al 3.137161 -1.850394 7.460977 -0.000239 -0.000068 0.000017
Al 3.124410 -1.875042 -2.690495 0.000417 -0.000232 0.000168
Al -4.755543 0.880155 2.402636 0.000023 0.000145 -0.000227
Al -4.765251 0.870343 7.446953 -0.000090 -0.000209 -0.000024
Ga -4.769652 0.873808 -2.673003 0.000176 -0.000404 0.000146
Al -6.335252 3.599652 2.367659 0.000009 0.000058 0.000065
Al -6.339534 3.587683 7.475605 0.000115 -0.000251 -0.000086
Ga -6.345382 3.595776 -2.662991 -0.000191 -0.000002 0.000244
Al -3.170287 -1.859299 2.397598 0.000191 -0.000171 0.000168
Ga -3.171633 -1.851051 7.472899 0.000060 0.000221 0.000067
Ga -3.174195 -1.861965 -2.694500 0.000271 0.000213 0.000187
Al -1.598011 0.874685 2.386579 0.000198 -0.000123 -0.000065
Al -1.584365 0.871005 7.450593 0.000294 -0.000315 -0.000199
Al -1.581676 0.873689 -2.669565 0.000409 -0.000137 0.000162
Al -3.176867 3.599848 2.372620 -0.000003 -0.000034 0.000029
Ga -3.172556 3.599271 7.469457 0.000221 0.000038 -0.000014
Al -3.162760 3.613437 -2.664368 0.000793 0.000230 0.000061
Al -0.023126 -1.856961 2.391211 0.000097 0.000119 -0.000217
Al -0.017650 -1.842547 7.451424 -0.000087 0.000084 -0.000102
Al -0.017060 -1.853892 -2.665777 -0.002103 0.001773 0.000168
Al -0.024729 1.770661 4.920704 -0.000119 -0.000011 0.000288
Al -0.022884 1.786479 -5.230192 -0.000022 0.000032 0.000302
Al -0.025145 1.788975 -0.145007 -0.000144 -0.000511 -0.000369
Ga 3.144415 -3.684835 4.918503 -0.000104 -0.000082 0.000097
Al 3.157481 -3.679845 -5.216658 -0.000022 0.000148 -0.000023
Al 3.136792 -3.695258 -0.143394 -0.000151 0.000219 0.000594
Al 1.557823 -0.936462 4.924010 -0.000179 0.000091 0.000163
Ga 1.558428 -0.940413 -5.228436 -0.000417 0.000346 -0.000209
Ga 1.550472 -0.944565 -0.143092 -0.000352 0.000202 0.001069
Al 3.134465 1.770722 4.920651 -0.000082 -0.000021 0.000199
Al 3.116437 1.778260 -5.251681 0.000217 -0.000130 -0.000829
Al 3.122101 1.788959 -0.112950 0.000211 0.000194 0.000469
Ga 6.289752 -3.691250 4.921971 0.000064 -0.000097 0.000133
Al 6.275941 -3.694132 -5.238093 -0.000048 0.000293 -0.000243
Al 6.285471 -3.690432 -0.125690 0.000023 0.000153 0.000518
Al 4.710728 -0.933486 4.911941 -0.000064 -0.000114 0.000150
Al 4.705248 -0.952747 -5.239341 -0.000154 0.000105 0.000134
Ga 4.715852 -0.954356 -0.112687 -0.000146 0.000235 -0.000048
Al -3.176191 1.762255 4.914454 0.000125 -0.000064 0.000017
Ga -3.171745 1.764596 -5.223187 -0.000023 0.000000 0.000170
Al -3.167965 1.791671 -0.137493 -0.000038 -0.000383 0.000293
Ga -0.026219 -3.682109 4.916469 -0.000039 -0.000098 -0.000023
Ga -0.035853 -3.675198 -5.219420 0.000076 0.000016 -0.000292
Al -0.020395 -3.684178 -0.136113 0.000133 0.000081 0.001192
Al -1.593783 -0.931137 4.910432 -0.000237 0.000052 0.000101
Al -1.598156 -0.938211 -5.228667 0.000256 -0.000341 0.000042
Al -1.595952 -0.945400 -0.127357 -0.000092 0.000353 0.000441
N 1.553655 0.875294 4.330598 0.000112 -0.000061 -0.000136
N 1.544978 0.918754 -5.873397 0.000048 -0.000072 -0.000414
N 1.556119 0.926763 -0.769156 -0.000005 -0.000230 -0.000417
N -0.022216 3.550626 4.268311 -0.000005 -0.000233 -0.000392
N -0.030563 3.596344 -5.831876 -0.000067 -0.000077 -0.000218
N -0.024108 3.603848 -0.751848 0.000017 0.000061 0.000053
N 3.131810 -1.816061 4.311277 0.000075 0.000178 -0.000300
N 3.170054 -1.883769 -5.859527 0.000026 -0.000538 0.000311
N 3.137507 -1.907996 -0.781904 -0.000020 -0.000307 -0.000078
N -4.756483 0.877537 4.319852 0.000074 0.000066 -0.000093
N -4.798275 0.848593 -5.868052 -0.000230 0.000226 0.000163
N -4.762651 0.919447 -0.700827 0.000014 0.000137 0.000019
N -6.335725 3.553216 4.272612 0.000023 -0.000100 -0.000306
N -6.376546 3.579506 -5.851517 -0.000198 -0.000195 0.000240
N -6.339864 3.601041 -0.681129 0.000168 -0.000053 0.000179
N -3.172549 -1.816828 4.314044 0.000055 0.000273 -0.000379
N -3.175278 -1.856335 -5.779419 0.000114 -0.000220 0.000001
N -3.135603 -1.884378 -0.715445 0.000192 -0.000255 0.000063
N -1.598002 0.875725 4.307456 0.000291 0.000005 -0.000235
N -1.558175 0.849600 -5.869044 0.000267 0.000152 -0.000178
N -1.597276 0.869829 -0.744148 0.000141 -0.000171 0.000083
N -3.178200 3.554299 4.284291 0.000220 -0.000186 -0.000265
N -3.139066 3.625792 -5.806913 0.000104 0.000149 0.000056
N -3.177486 3.607052 -0.739490 0.000056 0.000003 0.000219
N -0.019325 -1.812396 4.302513 0.000066 0.000157 -0.000128
N -0.062539 -1.832218 -5.880331 -0.000179 0.000156 0.000436
N -0.067740 -1.880509 -0.754103 0.000327 -0.000408 -0.000184
N -0.019582 1.774684 1.772597 -0.000114 0.000405 0.000450
N -0.022008 1.787302 6.844979 -0.000166 0.000090 -0.000106
N -0.026741 1.781979 -3.297615 -0.000061 -0.000073 -0.000128
N 3.136410 -3.678692 1.780393 -0.000169 0.000007 -0.000608
N 3.185902 -3.660469 6.887250 -0.000085 -0.000014 0.000159
N 3.136995 -3.685124 -3.291767 -0.000229 -0.000065 -0.000045
N 1.558579 -0.944402 1.838058 -0.000168 -0.000273 -0.000660
N 1.562429 -0.949118 6.852719 -0.000301 0.000158 -0.000071
N 1.551601 -0.950023 -3.238656 0.000694 0.000824 0.000155
N 3.127810 1.773135 1.798634 -0.000071 0.000022 -0.000381
N 3.135177 1.784274 6.844762 -0.000080 0.000070 -0.000012
N 3.086924 1.759065 -3.343007 0.000018 -0.000075 0.000135
N 6.286791 -3.678724 1.791145 -0.000006 -0.000028 -0.000516
N 6.289178 -3.730296 6.898225 0.000142 -0.000007 0.000042
N 6.245455 -3.714197 -3.327120 0.000067 -0.000061 -0.000040
N 4.711070 -0.949428 1.856852 -0.000186 -0.000154 0.000264
N 4.675646 -0.928455 6.830385 0.000003 0.000445 -0.000146
N 4.665869 -0.970181 -3.327865 -0.000314 0.000107 -0.000258
N -3.175503 1.778564 1.783096 0.000085 0.000274 -0.000227
N -3.174489 1.731539 6.836146 -0.000098 -0.000089 0.000000
N -3.136069 1.801519 -3.244217 -0.000245 0.000100 -0.000029
N -0.016442 -3.677243 1.788690 -0.000011 0.000046 -0.001106
N -0.063101 -3.660101 6.891777 -0.000104 0.000129 0.000052
N 0.015491 -3.658576 -3.240955 -0.000015 -0.000775 -0.000196
N -1.597130 -0.946452 1.791029 -0.000150 0.000057 -0.000442
N -1.558846 -0.923936 6.822592 0.000408 0.000134 0.000184
N -1.554736 -0.919526 -3.311716 0.000871 -0.000706 0.000314
