108
Energy=-1.443724e+06 Lattice="9.509149e+00 0.000000e+00 0.000000e+00 -4.769970e+00 8.227018e+00 0.000000e+00 -1.292233e-03 1.960604e-03 1.535770e+01" Stress="-3.715468e-03 -1.320449e-03 7.084448e-04 -1.322614e-03 -4.172230e-03 1.534054e-04 6.894613e-04 1.589126e-04 -3.127331e-03" Properties=species:S:1:pos:R:3:forces:R:3 Config_type=AlGaN_super3_22_2_4.xyz
Al 1.637442e+00 8.914028e-01 2.426044e+00 -2.164280e-02 -1.269267e-02 3.672762e-03
Al 1.547641e+00 8.637529e-01 7.547209e+00 2.814657e-03 5.505862e-03 2.327097e-04
Al 1.553397e+00 8.819679e-01 -2.740101e+00 4.514904e-03 1.426458e-03 5.244926e-03
Al -4.336137e-02 3.597241e+00 2.399114e+00 1.839107e-03 -1.235424e-03 5.050994e-03
Al -3.008311e-02 3.603967e+00 7.585398e+00 6.163868e-04 2.355812e-03 -1.596531e-03
Al -1.472309e-02 3.621500e+00 -2.718275e+00 -1.648631e-03 -2.724868e-03 -1.445674e-02
Al 3.194077e+00 -1.918133e+00 2.432010e+00 -2.717653e-02 6.089993e-03 -9.442343e-03
Al 3.161176e+00 -1.863035e+00 7.529478e+00 -1.939674e-03 -1.717767e-03 5.778898e-03
Ga 3.160358e+00 -1.885664e+00 -2.720811e+00 2.072924e-03 7.929940e-04 4.058774e-03
Al -4.811905e+00 8.955622e-01 2.384182e+00 5.884131e-03 3.292194e-03 8.703543e-03
Ga -4.789874e+00 8.698421e-01 7.556948e+00 -2.236258e-05 9.706629e-04 1.374217e-03
Ga -4.783862e+00 8.951125e-01 -2.740201e+00 1.110647e-03 -9.375276e-04 1.814641e-03
Ga -6.377883e+00 3.592189e+00 2.391048e+00 2.549652e-03 4.627242e-03 5.403309e-03
Al -6.388433e+00 3.610575e+00 7.563904e+00 1.171066e-03 -1.249421e-03 1.822124e-03
Al -6.376011e+00 3.636109e+00 -2.730803e+00 2.436547e-03 -3.761050e-03 -1.831495e-02
Ga -3.201863e+00 -1.863112e+00 2.429534e+00 3.970277e-03 -1.479295e-03 1.109437e-03
Al -3.176017e+00 -1.881998e+00 7.552513e+00 -5.939616e-03 2.299870e-03 -1.518137e-03
Al -3.175435e+00 -1.867838e+00 -2.752917e+00 -7.529685e-04 -9.944691e-04 1.136350e-03
Ga -1.631309e+00 8.860369e-01 2.425202e+00 3.238888e-03 -1.491736e-04 3.050626e-03
Al -1.616604e+00 8.841166e-01 7.524555e+00 2.154024e-03 -2.488796e-04 5.161587e-03
Ga -1.610517e+00 9.100734e-01 -2.718194e+00 5.547617e-04 -1.019643e-03 1.918649e-03
Al -3.195910e+00 3.621048e+00 2.385261e+00 -1.994386e-03 -2.791989e-03 4.251212e-03
Ga -3.185312e+00 3.620171e+00 7.556798e+00 -4.928740e-04 1.290248e-03 3.077487e-03
Al -3.202950e+00 3.651065e+00 -2.710626e+00 7.437357e-04 -5.032382e-03 -3.019302e-03
Al -9.738379e-03 -1.852062e+00 2.455841e+00 4.647990e-04 -8.888116e-04 -7.624438e-04
Ga -2.616229e-02 -1.844168e+00 7.523884e+00 3.051905e-03 -1.813630e-03 6.221484e-04
Al -1.640134e-02 -1.851673e+00 -2.738651e+00 -5.885674e-04 -4.122705e-03 1.267078e-03
Ga -2.956883e-02 1.766251e+00 4.997054e+00 2.457887e-03 2.544003e-03 4.938297e-04
Al -8.595100e-03 1.796800e+00 -5.263346e+00 -7.086861e-03 -3.936845e-04 -5.364053e-03
Ga -2.365684e-02 1.800820e+00 -1.213220e-01 2.665214e-03 -3.131484e-03 -9.549989e-03
Ga 3.144344e+00 -3.694088e+00 4.953407e+00 1.114424e-03 2.226222e-03 6.331544e-03
Al 3.160819e+00 -3.724489e+00 -5.253727e+00 2.484092e-03 5.487505e-03 -2.556333e-04
Al 3.157962e+00 -3.723602e+00 -1.495047e-01 -4.217580e-04 4.442902e-03 -2.415200e-03
Al 1.569099e+00 -9.462083e-01 4.957532e+00 -2.673127e-03 -4.065989e-04 4.376957e-04
Ga 1.589529e+00 -9.540260e-01 -5.273915e+00 1.019962e-03 6.346035e-04 1.963733e-03
Ga 1.574808e+00 -9.582079e-01 -1.083820e-01 -2.217886e-03 1.960741e-03 1.272740e-03
Al 3.137276e+00 1.761398e+00 5.005527e+00 -3.622741e-03 3.273400e-03 2.124449e-03
Al 3.137907e+00 1.798538e+00 -5.280910e+00 8.292946e-04 -4.162878e-04 6.009318e-03
Al 3.149369e+00 1.776914e+00 -1.895441e-01 -3.913393e-03 -2.095858e-03 -5.309961e-03
Ga 6.324660e+00 -3.705525e+00 5.012024e+00 -1.019849e-03 -2.326802e-04 1.518067e-03
Al 6.321251e+00 -3.704255e+00 -5.271700e+00 1.040280e-03 1.668347e-04 1.988924e-03
Ga 6.320748e+00 -3.722408e+00 -2.128555e-01 -7.071961e-04 2.325960e-03 1.267470e-03
Ga 4.720429e+00 -9.187307e-01 4.974715e+00 -1.694022e-04 6.637397e-04 8.546981e-05
Al 4.744726e+00 -9.693720e-01 -5.287535e+00 -2.069557e-03 -1.223176e-03 3.073990e-03
Ga 4.755592e+00 -9.571391e-01 -1.092124e-01 -4.936426e-03 9.246531e-04 -9.047299e-03
Al -3.207612e+00 1.814356e+00 5.013525e+00 -5.517435e-03 -8.201633e-03 -1.415971e-02
Al -3.203833e+00 1.793790e+00 -5.283680e+00 1.183986e-03 1.764348e-03 8.074147e-03
Al -3.203147e+00 1.801945e+00 -1.424238e-01 -2.175640e-03 -3.290099e-04 -6.867425e-03
Ga -2.262403e-02 -3.710666e+00 4.973170e+00 -6.316059e-04 2.840502e-03 -2.692610e-04
Al -9.871683e-03 -3.710327e+00 -5.253153e+00 -2.363586e-03 7.233167e-04 1.545560e-03
Ga -7.277232e-03 -3.717997e+00 -1.820410e-01 9.594107e-04 5.068041e-03 -7.800377e-04
Al -1.610006e+00 -9.254115e-01 5.001680e+00 7.103480e-04 -5.522213e-03 9.340706e-04
Ga -1.613222e+00 -9.431288e-01 -5.280827e+00 -1.373413e-03 3.072887e-03 1.443863e-03
Ga -1.596575e+00 -9.551143e-01 -1.491480e-01 5.681068e-04 -4.418402e-04 -7.719196e-03
N 1.592802e+00 8.450791e-01 4.360888e+00 4.076290e-03 6.464179e-03 -3.531246e-03
N 1.561063e+00 9.167696e-01 -5.894813e+00 4.691032e-04 -4.334935e-04 -3.578437e-03
N 1.586796e+00 8.886507e-01 -8.095440e-01 1.561971e-03 1.252251e-03 -3.422340e-04
N -3.505871e-02 3.611490e+00 4.323926e+00 1.884204e-03 -4.486889e-04 -5.904310e-03
N -2.605527e-02 3.610516e+00 -5.854600e+00 -2.713201e-04 6.399376e-04 -2.704742e-03
N -8.628747e-02 3.629149e+00 -8.521400e-01 4.124964e-03 -6.383155e-06 1.362699e-02
N 3.103127e+00 -1.834844e+00 4.293917e+00 4.752331e-03 -6.450061e-03 1.421758e-02
N 3.195428e+00 -1.896550e+00 -5.901282e+00 -4.708982e-04 -4.053372e-03 7.656396e-05
N 3.159393e+00 -1.916329e+00 -7.323117e-01 1.827646e-03 -2.587250e-03 8.751722e-04
N -4.807837e+00 9.588248e-01 4.329734e+00 8.157243e-03 -4.974385e-03 1.152937e-03
N -4.783074e+00 8.582940e-01 -5.815779e+00 -5.436498e-04 5.886143e-03 -3.880621e-03
N -4.781116e+00 9.092938e-01 -7.466158e-01 4.449288e-03 3.606312e-04 7.715241e-04
N -6.382943e+00 3.544601e+00 4.383552e+00 -1.062780e-03 3.494686e-03 -5.344566e-03
N -6.365662e+00 3.616184e+00 -5.866094e+00 1.102744e-03 1.132324e-03 -1.836004e-03
N -6.361702e+00 3.548241e+00 -8.800914e-01 -4.087959e-04 3.619223e-03 2.353504e-02
N -3.155578e+00 -1.840627e+00 4.400244e+00 5.531881e-04 -1.210914e-03 -1.031745e-03
N -3.219749e+00 -1.891361e+00 -5.896293e+00 5.754946e-04 -2.738996e-03 -1.907069e-03
N -3.181761e+00 -1.869145e+00 -8.450989e-01 -1.084271e-03 -4.502187e-04 5.332247e-03
N -1.671547e+00 8.629463e-01 4.420849e+00 4.876418e-06 1.417061e-03 -5.973379e-03
N -1.631416e+00 9.353804e-01 -5.919975e+00 7.028287e-03 -1.320992e-03 4.574766e-03
N -1.651786e+00 9.069040e-01 -7.368823e-01 -2.879824e-04 2.263181e-04 -1.323832e-03
N -3.200609e+00 3.565562e+00 4.320479e+00 -4.730056e-04 4.473814e-03 -4.712994e-03
N -3.194412e+00 3.618602e+00 -5.818274e+00 -3.149117e-03 -5.774428e-05 -4.911269e-03
N -3.144251e+00 3.593867e+00 -7.888989e-01 -4.353890e-03 -5.229205e-04 -1.005523e-05
N -3.034527e-02 -1.814329e+00 4.376894e+00 -2.207717e-03 -1.870915e-03 9.252299e-04
N -1.492568e-02 -1.899632e+00 -5.867719e+00 2.942145e-04 -4.581918e-03 -8.022658e-04
N -1.054367e-02 -1.860574e+00 -8.345032e-01 4.532793e-04 -3.816579e-03 2.013431e-03
N 2.256933e-02 1.787952e+00 1.832985e+00 3.811411e-03 3.119148e-03 7.468183e-03
N -2.935162e-02 1.778135e+00 6.989171e+00 7.819961e-04 3.768966e-03 -2.662508e-03
N 2.346469e-02 1.804572e+00 -3.362641e+00 -1.675048e-03 3.794859e-03 2.657883e-03
N 3.162496e+00 -3.729161e+00 1.783963e+00 8.101786e-04 2.620092e-03 3.458643e-04
N 3.198758e+00 -3.668504e+00 6.947641e+00 1.330531e-03 -2.932944e-03 -1.082002e-03
N 3.158485e+00 -3.753736e+00 -3.338664e+00 1.694926e-03 3.486691e-03 -3.626077e-03
N 1.548558e+00 -9.548424e-01 1.905339e+00 1.410872e-02 -7.058317e-04 -1.035639e-02
N 1.615118e+00 -9.188596e-01 6.896779e+00 -4.128536e-04 -5.042015e-03 -2.242508e-03
N 1.543712e+00 -9.336989e-01 -3.303623e+00 -2.594967e-04 1.622055e-03 -6.082809e-04
N 3.138248e+00 1.743861e+00 1.719039e+00 4.844001e-03 4.468246e-03 3.226257e-03
N 3.096416e+00 1.803818e+00 6.933813e+00 7.743756e-04 1.209779e-03 -3.248934e-03
N 3.103301e+00 1.817305e+00 -3.355737e+00 -2.191498e-03 7.343075e-04 -3.697579e-03
N 6.270325e+00 -3.722361e+00 1.778732e+00 1.960797e-03 6.053913e-04 -1.340716e-03
N 6.317282e+00 -3.707967e+00 7.002531e+00 3.419156e-04 4.528986e-04 -1.628793e-03
N 6.328348e+00 -3.686799e+00 -3.339392e+00 -8.524554e-04 -5.047259e-04 -1.049359e-03
N 4.657977e+00 -9.271315e-01 1.871097e+00 1.653952e-02 1.127519e-03 -6.486293e-03
N 4.730549e+00 -9.937959e-01 6.957535e+00 4.961318e-03 -1.158698e-03 -2.744275e-03
N 4.783578e+00 -9.742672e-01 -3.372381e+00 -2.063983e-03 3.260861e-04 -1.291413e-03
N -3.242684e+00 1.811506e+00 1.758698e+00 -3.011568e-03 3.810235e-04 5.065773e-03
N -3.158016e+00 1.767466e+00 6.887776e+00 -5.297939e-03 3.454866e-03 5.545688e-03
N -3.193391e+00 1.866835e+00 -3.363721e+00 -1.558103e-03 -3.797295e-03 -2.527605e-03
N 2.139281e-02 -3.656766e+00 1.811084e+00 -2.522492e-03 -3.234446e-03 3.266917e-03
N -5.274763e-02 -3.719309e+00 6.948191e+00 -2.315571e-03 -1.353386e-03 -2.176473e-03
N -1.316309e-02 -3.681244e+00 -3.327217e+00 -7.114141e-04 4.932359e-04 4.985434e-04
N -1.560116e+00 -9.719024e-01 1.799948e+00 -5.223584e-03 -2.766083e-03 7.911903e-03
N -1.648567e+00 -9.132345e-01 6.921309e+00 -1.325114e-03 -4.583099e-03 -1.667513e-03
N -1.598664e+00 -9.710003e-01 -3.311827e+00 -6.633949e-04 -5.451995e-04 6.748543e-04
