108
Energy=-9.859698e+05 Lattice="9.465271e+00 0.000000e+00 0.000000e+00 -4.737111e+00 8.187933e+00 0.000000e+00 3.637654e-03 1.010656e-02 1.522775e+01" Stress="2.292585e-04 9.139320e-04 2.640888e-04 9.192503e-04 -1.620934e-03 -1.004176e-04 2.638647e-04 -1.063151e-04 3.883856e-04" Properties=species:S:1:pos:R:3:forces:R:3 Config_type=AlGaN_super3_12_0_9.xyz
Al 1.538653e+00 8.607799e-01 2.374711e+00 1.837496e-03 -9.632942e-04 2.501422e-03
Al 1.555818e+00 8.632529e-01 7.464741e+00 -8.301960e-05 5.986806e-03 2.931753e-03
Al 1.549319e+00 8.609146e-01 -2.689041e+00 6.225085e-04 4.284143e-04 6.430176e-04
Al -3.568217e-02 3.587594e+00 2.407106e+00 1.541763e-03 3.352063e-03 1.245079e-03
Al -3.014197e-02 3.586302e+00 7.439084e+00 6.763248e-04 1.281441e-03 1.410481e-03
Al -4.385861e-02 3.572641e+00 -2.679053e+00 2.809593e-03 1.882375e-03 -1.199274e-03
Al 3.135481e+00 -1.861022e+00 2.386441e+00 5.222074e-04 3.368547e-05 1.192697e-03
Al 3.130973e+00 -1.858447e+00 7.439898e+00 3.755788e-03 -5.574089e-04 2.829544e-03
Al 3.117555e+00 -1.870686e+00 -2.673290e+00 7.282768e-03 4.076459e-03 -1.626326e-03
Al -4.756000e+00 8.708869e-01 2.387637e+00 2.032895e-03 2.149848e-04 2.900754e-04
Al -4.759420e+00 8.879369e-01 7.451774e+00 1.772563e-03 -1.088765e-03 6.044861e-04
Al -4.767125e+00 8.712940e-01 -2.680782e+00 1.347748e-03 3.084856e-03 1.588979e-05
Al -6.371660e+00 3.587090e+00 2.404272e+00 1.391124e-02 4.352954e-03 -1.431551e-03
Al -6.338630e+00 3.586629e+00 7.468690e+00 -5.289808e-05 1.293993e-03 5.412685e-04
Ga -6.337098e+00 3.583761e+00 -2.687646e+00 8.646639e-04 3.460931e-04 9.255570e-04
Al -3.180870e+00 -1.851391e+00 2.417889e+00 -1.713385e-03 7.127567e-05 1.218430e-03
Ga -3.175029e+00 -1.847023e+00 7.440021e+00 4.971196e-04 -2.982926e-04 7.297471e-04
Ga -3.174737e+00 -1.840773e+00 -2.679433e+00 4.609084e-04 -1.441342e-04 -1.570668e-03
Al -1.609510e+00 8.882255e-01 2.406199e+00 -1.975972e-03 -2.977296e-04 -8.197330e-04
Al -1.598976e+00 8.953096e-01 7.456118e+00 -9.455262e-05 -1.286074e-03 1.195270e-03
Al -1.599058e+00 8.791209e-01 -2.706662e+00 -2.358347e-04 -4.595418e-04 2.857494e-03
Al -3.164986e+00 3.593162e+00 2.402314e+00 -5.649010e-03 3.087048e-03 -4.107976e-03
Al -3.166210e+00 3.594462e+00 7.465200e+00 1.780741e-04 -1.104870e-04 9.432030e-04
Ga -3.173730e+00 3.598489e+00 -2.696361e+00 -5.579164e-04 -9.074769e-04 1.136964e-03
Al -1.717965e-02 -1.834502e+00 2.415766e+00 -3.753293e-04 -3.250466e-03 -7.970205e-04
Ga -1.772554e-03 -1.840138e+00 7.468359e+00 -7.934448e-04 2.128733e-04 1.060922e-04
Al -8.859038e-03 -1.840128e+00 -2.708059e+00 -1.303747e-03 -1.215946e-04 1.835163e-03
Al -3.199608e-02 1.774899e+00 4.925277e+00 -4.162583e-05 3.479085e-04 1.916010e-03
Al -2.841352e-02 1.765632e+00 -5.241122e+00 2.713608e-04 8.866778e-04 1.355666e-03
Al 1.364839e-04 1.794615e+00 -1.073190e-01 -1.219013e-02 -7.177870e-03 -1.889823e-02
Al 3.146147e+00 -3.682454e+00 4.918630e+00 -1.088380e-03 1.790944e-03 1.343147e-03
Al 3.131765e+00 -3.692055e+00 -5.246774e+00 3.952251e-04 1.828288e-03 1.238103e-03
Al 3.145426e+00 -3.682670e+00 -1.345639e-01 -1.612923e-03 7.637389e-04 2.029678e-03
Al 1.568472e+00 -9.455164e-01 4.915416e+00 -1.935566e-04 7.953983e-04 1.338998e-03
Al 1.562538e+00 -9.563726e-01 -5.218443e+00 2.904584e-05 1.438549e-03 8.261778e-04
Al 1.573511e+00 -9.469149e-01 -1.488558e-01 -2.743212e-03 -7.136175e-04 -7.138198e-05
Ga 3.119347e+00 1.771620e+00 4.925384e+00 -1.951088e-05 -2.976516e-04 1.653506e-03
Al 3.128983e+00 1.768522e+00 -5.243547e+00 -8.534591e-04 -4.936583e-04 1.020484e-03
Al 3.141680e+00 1.731904e+00 -1.086716e-01 -2.212932e-03 1.144277e-02 -9.821625e-03
Al 6.275378e+00 -3.677485e+00 4.918254e+00 -6.026930e-04 1.848489e-03 1.501085e-03
Ga 6.288056e+00 -3.696478e+00 -5.235324e+00 -1.196821e-03 7.641889e-05 7.597252e-04
Ga 6.271191e+00 -3.684733e+00 -1.148619e-01 2.824912e-03 1.669129e-04 -1.292361e-03
Al 4.712646e+00 -9.475967e-01 4.914283e+00 -9.971713e-04 -1.859948e-04 1.086210e-03
Ga 4.704479e+00 -9.370947e-01 -5.234962e+00 -2.214127e-03 -2.450847e-04 2.298707e-03
Al 4.702229e+00 -9.403527e-01 -1.388439e-01 -1.148210e-03 -1.274751e-03 1.472995e-03
Al -3.166334e+00 1.778627e+00 4.925651e+00 -1.884987e-03 2.394007e-04 1.365573e-03
Al -3.181129e+00 1.779549e+00 -5.249358e+00 -1.879510e-04 -7.251104e-05 1.855143e-03
Al -3.182420e+00 1.771541e+00 -1.527573e-01 -5.776041e-04 2.660402e-03 3.579741e-03
Ga -1.408453e-02 -3.674633e+00 4.924766e+00 -6.203873e-04 7.867796e-04 8.282032e-05
Al -1.299713e-02 -3.685176e+00 -5.244410e+00 -4.929529e-04 1.623327e-03 9.229994e-04
Ga -5.024504e-03 -3.669818e+00 -1.114135e-01 -1.296917e-03 1.026511e-03 -2.938325e-03
Al -1.597856e+00 -9.275846e-01 4.901633e+00 -9.790778e-04 -3.232650e-05 2.412628e-03
Al -1.576406e+00 -9.319371e-01 -5.221949e+00 -1.824854e-03 4.867319e-04 8.754244e-04
Ga -1.592206e+00 -9.247939e-01 -1.190181e-01 1.245028e-03 1.346803e-03 -1.292103e-03
N 1.507796e+00 8.492449e-01 4.292122e+00 -1.015716e-03 -2.776479e-04 -1.991161e-03
N 1.547562e+00 8.580612e-01 -5.835611e+00 4.231549e-04 -1.233294e-04 9.850789e-06
N 1.558153e+00 8.688399e-01 -7.452312e-01 -2.582869e-04 7.551905e-04 -7.051558e-05
N -2.817542e-02 3.592091e+00 4.327539e+00 1.310292e-05 -9.288027e-04 -1.022481e-03
N -6.283281e-02 3.568846e+00 -5.869493e+00 -1.769127e-03 -1.779798e-03 -1.613993e-03
N -5.816793e-02 3.578366e+00 -7.585392e-01 -2.587263e-03 -2.450529e-03 -7.240613e-04
N 3.136867e+00 -1.860262e+00 4.315514e+00 2.014220e-04 -5.075500e-04 -1.425318e-03
N 3.097649e+00 -1.884399e+00 -5.862031e+00 -1.273179e-03 -1.917392e-03 -1.832211e-03
N 3.135949e+00 -1.866100e+00 -7.398976e-01 1.044380e-03 -3.461992e-04 -1.399529e-03
N -4.722528e+00 8.573418e-01 4.301540e+00 2.562446e-03 -5.092954e-04 -4.056052e-04
N -4.759585e+00 9.125549e-01 -5.866202e+00 1.162380e-03 2.373384e-03 -1.936925e-03
N -4.757978e+00 8.649771e-01 -7.507055e-01 -3.445986e-04 1.589516e-03 1.427858e-03
N -6.378988e+00 3.621605e+00 4.303248e+00 2.274903e-04 -1.003169e-03 -2.665593e-03
N -6.301673e+00 3.572724e+00 -5.848722e+00 2.094172e-03 -1.057794e-03 -3.272792e-04
N -6.331730e+00 3.564408e+00 -7.256525e-01 4.132602e-04 -9.795739e-03 5.085562e-03
N -3.177903e+00 -1.852977e+00 4.334859e+00 -2.995142e-04 -7.568583e-04 7.273818e-04
N -3.133353e+00 -1.834622e+00 -5.820027e+00 2.172225e-03 3.499657e-04 -3.027058e-04
N -3.205262e+00 -1.833393e+00 -7.197173e-01 -2.510787e-03 1.914979e-05 2.173744e-03
N -1.606907e+00 8.891330e-01 4.317630e+00 1.993451e-03 -2.812564e-04 -6.639818e-04
N -1.606492e+00 8.731731e-01 -5.844265e+00 1.148594e-03 -3.196887e-04 -1.403519e-03
N -1.632047e+00 9.146502e-01 -7.871406e-01 1.477472e-02 5.094206e-03 4.154133e-03
N -3.138815e+00 3.579569e+00 4.310841e+00 1.952043e-03 -1.460449e-03 -9.692879e-04
N -3.177395e+00 3.598191e+00 -5.837294e+00 4.855830e-04 -1.264813e-03 -8.047592e-04
N -3.141073e+00 3.585576e+00 -7.157293e-01 1.582503e-03 -2.725598e-03 -1.000502e-03
N -1.449478e-02 -1.805941e+00 4.321112e+00 8.075896e-04 5.950200e-04 -1.044932e-06
N -1.707819e-02 -1.851236e+00 -5.787353e+00 9.808289e-04 -1.685360e-03 1.119547e-03
N 1.563480e-02 -1.826468e+00 -7.891047e-01 1.688157e-03 2.038282e-04 -1.828725e-04
N -3.331385e-02 1.775633e+00 1.769812e+00 1.826833e-03 1.776364e-03 9.972871e-03
N -1.807685e-02 1.773300e+00 6.850853e+00 5.229737e-04 8.933778e-05 -1.511656e-03
N -2.245541e-02 1.770096e+00 -3.305507e+00 8.699579e-04 1.083390e-03 -6.698413e-04
N 3.142233e+00 -3.682399e+00 1.795897e+00 5.974014e-04 4.539458e-04 -1.013601e-03
N 3.136854e+00 -3.680215e+00 6.844813e+00 -5.704569e-04 7.910648e-04 -1.160658e-03
N 3.176180e+00 -3.666913e+00 -3.318376e+00 1.395442e-03 3.268215e-03 -1.528929e-03
N 1.557354e+00 -9.558836e-01 1.780516e+00 4.962588e-04 1.786972e-03 -1.204686e-03
N 1.614666e+00 -9.102482e-01 6.836088e+00 -3.465452e-03 -4.418659e-03 -4.808706e-03
N 1.566648e+00 -9.548126e-01 -3.289846e+00 1.027922e-03 1.500980e-03 -1.276896e-03
N 3.121623e+00 1.773149e+00 1.792949e+00 2.814020e-04 -1.450399e-03 3.290127e-03
N 3.126270e+00 1.780888e+00 6.899630e+00 -7.046639e-04 -4.704796e-04 1.047088e-04
N 3.128287e+00 1.730525e+00 -3.319468e+00 -9.733100e-04 -2.099793e-03 -1.224043e-03
N 6.290030e+00 -3.673686e+00 1.862696e+00 -8.216744e-03 -1.226829e-03 -7.216267e-04
N 6.291718e+00 -3.720647e+00 6.838582e+00 -3.920476e-04 -1.748551e-03 -1.414619e-03
N 6.246234e+00 -3.700660e+00 -3.275190e+00 -3.312896e-03 -1.869223e-03 1.729261e-03
N 4.715173e+00 -9.477316e-01 1.793955e+00 -2.595403e-03 -1.818965e-04 -1.448123e-03
N 4.675831e+00 -9.186210e-01 6.833479e+00 -2.386769e-03 6.531194e-04 -1.878725e-03
N 4.681542e+00 -9.054788e-01 -3.266108e+00 -8.879764e-03 -9.074541e-03 3.072688e-03
N -3.180678e+00 1.781962e+00 1.781938e+00 -1.277889e-03 -2.131491e-04 -6.037124e-04
N -3.175412e+00 1.786097e+00 6.851688e+00 -6.592631e-04 2.529815e-04 -9.331916e-04
N -3.187165e+00 1.735245e+00 -3.325340e+00 -7.858238e-04 -9.018644e-04 -5.214047e-04
N -2.617537e-02 -3.650152e+00 1.846400e+00 -6.139783e-04 -8.264699e-03 9.473068e-03
N -1.716523e-02 -3.719879e+00 6.897646e+00 3.861050e-04 -1.419757e-04 -2.780509e-04
N -2.342939e-02 -3.630752e+00 -3.328746e+00 4.952144e-04 -1.075858e-03 -2.569940e-03
N -1.609744e+00 -9.351440e-01 1.869305e+00 3.790358e-03 -1.923527e-04 -1.992037e-03
N -1.586651e+00 -8.900142e-01 6.817119e+00 6.070593e-05 4.057879e-04 -3.771306e-03
N -1.555543e+00 -9.192321e-01 -3.308766e+00 3.502262e-04 1.964821e-04 -1.287586e-03
