108
Energy=-940194.492236 Lattice="9.459153 0.000000 0.000000 -4.736085 8.187116 0.000000 -0.000271 0.001477 15.235509" Stress="0.000012 -0.000003 0.000000 -0.000003 0.000003 0.000000 0.000000 0.000000 0.000018" Properties=species:S:1:pos:R:3:forces:R:3
Al 1.553102 0.873296 2.400908 0.000165 0.000416 -0.000314
Al 1.548974 0.875472 7.454505 0.000223 0.000003 0.000120
Al 1.542645 0.865598 -2.688477 0.000052 -0.000271 0.000341
Al -0.008868 3.591734 2.384341 -0.001328 0.001638 -0.000818
Al -0.011367 3.587664 7.457841 -0.000652 0.000595 -0.001918
Al -0.026329 3.582500 -2.663909 -0.000608 -0.000454 -0.000122
Al 3.149276 -1.843239 2.377152 -0.000689 0.001414 0.000890
Al 3.147213 -1.836784 7.470401 -0.000198 0.000316 -0.000075
Al 3.129480 -1.851364 -2.679350 -0.000165 0.000126 0.000300
Al -4.750375 0.862101 2.405090 0.002965 0.001186 -0.002073
Al -4.757405 0.860677 7.452542 0.000265 0.000041 -0.000013
Al -4.750912 0.871336 -2.686304 0.000294 -0.000278 0.000428
Al -6.349195 3.587997 2.416039 -0.000950 0.002572 0.000122
Al -6.343445 3.594924 7.449871 0.000131 0.000152 -0.000701
Al -6.332087 3.594584 -2.680800 0.000369 0.000149 0.000445
Al -3.176415 -1.860358 2.384085 -0.002317 -0.001084 0.001112
Al -3.185525 -1.851651 7.455456 -0.000092 -0.000025 -0.000184
Ga -3.178085 -1.851824 -2.672018 0.000636 0.000386 -0.000019
Al -1.597549 0.864861 2.386942 -0.000167 0.003624 0.000940
Al -1.603912 0.874581 7.467951 0.000243 0.000040 0.000243
Al -1.597913 0.879742 -2.688794 0.000495 -0.000538 0.000618
Ga -3.165373 3.586209 2.396367 -0.000018 -0.000002 -0.000693
Ga -3.189501 3.589653 7.477788 0.000023 -0.000289 -0.000072
Al -3.178635 3.591926 -2.686891 -0.000062 -0.000116 -0.000219
Ga -0.023635 -1.840138 2.406067 0.000848 -0.000135 0.000441
Ga -0.025992 -1.848655 7.470058 0.000358 -0.000147 -0.000001
Al -0.012755 -1.848977 -2.702714 -0.000508 -0.000066 0.002187
Al -0.024590 1.770235 4.921630 -0.000295 0.000151 -0.000022
Al -0.034604 1.763509 -5.227314 -0.000009 0.000676 -0.000086
Al -0.032438 1.773401 -0.146583 0.000070 -0.000088 0.000080
Ga 3.142842 -3.669810 4.936397 0.000045 0.000265 -0.000309
Ga 3.134863 -3.674387 -5.216344 -0.000047 0.000239 0.000285
Al 3.149110 -3.679079 -0.157277 -0.000762 0.000734 -0.000039
Al 1.561933 -0.935189 4.928712 0.000857 -0.000332 0.000833
Al 1.555975 -0.946242 -5.220054 -0.000542 0.000033 0.000124
Al 1.560811 -0.947193 -0.158913 -0.000696 -0.000050 -0.000096
Al 3.125552 1.778819 4.926284 0.000047 0.000277 0.000044
Ga 3.131462 1.772434 -5.228658 -0.000030 -0.000359 0.000151
Ga 3.125628 1.768086 -0.140483 0.000088 0.000477 -0.001084
Al 6.291171 -3.674793 4.928052 0.000233 0.000127 -0.000438
Ga 6.288453 -3.673176 -5.235910 -0.000050 0.000081 0.000074
Al 6.272127 -3.674038 -0.137652 0.002163 -0.001968 0.001922
Al 4.712242 -0.943383 4.920660 -0.000153 -0.000393 0.000000
Al 4.709779 -0.937574 -5.237301 -0.000154 -0.000210 0.000324
Al 4.710136 -0.955020 -0.136607 -0.000828 0.001692 0.001045
Al -3.180585 1.760683 4.933933 0.000496 -0.001059 0.000372
Al -3.176568 1.762657 -5.219303 0.000038 0.000676 -0.000084
Al -3.162840 1.763569 -0.154726 0.000066 0.000445 -0.003643
Al -0.037501 -3.676303 4.923915 0.000361 -0.002045 0.001274
Al -0.025449 -3.673878 -5.201331 0.000324 0.000994 0.000263
Ga -0.016033 -3.672351 -0.157739 -0.000722 0.000609 -0.001104
Al -1.610766 -0.938683 4.929698 0.000801 -0.000546 -0.000215
Al -1.598137 -0.933333 -5.230589 0.000036 -0.000269 0.000037
Al -1.599309 -0.932695 -0.139605 0.000381 -0.000014 -0.001552
N 1.548526 0.871398 4.321930 0.000207 0.000091 -0.000165
N 1.508671 0.846257 -5.856907 -0.000060 0.000124 -0.000229
N 1.509047 0.847024 -0.774127 -0.000110 0.000210 -0.000178
N 0.016314 3.574165 4.302147 0.000181 -0.000301 -0.000018
N -0.024875 3.548513 -5.877518 -0.000081 -0.001213 0.002079
N -0.020426 3.590514 -0.744363 -0.000146 0.000136 0.000541
N 3.132367 -1.809221 4.292041 0.000207 0.000446 0.000156
N 3.132982 -1.807944 -5.849426 -0.000064 0.000194 -0.000213
N 3.137474 -1.857069 -0.755590 0.000072 0.000517 -0.000044
N -4.754819 0.871031 4.325580 0.000540 -0.000114 -0.000682
N -4.715450 0.849513 -5.863989 0.000578 0.000142 -0.000283
N -4.711300 0.841572 -0.771777 -0.000040 -0.000325 -0.000245
N -6.339795 3.598522 4.329702 -0.000067 -0.000055 0.000343
N -6.287551 3.623875 -5.875450 -0.000787 -0.000681 -0.000251
N -6.374212 3.619878 -0.780964 -0.001160 0.000407 -0.000670
N -3.174713 -1.858745 4.313560 -0.000064 -0.000134 0.000462
N -3.174685 -1.808940 -5.857037 -0.000063 0.000243 -0.000219
N -3.173834 -1.855438 -0.691190 0.000189 -0.000475 -0.000551
N -1.602709 0.872788 4.310222 0.000264 -0.000250 -0.000159
N -1.604435 0.874984 -5.840576 0.000396 -0.000008 -0.000303
N -1.597507 0.871392 -0.764896 0.000565 -0.000509 -0.000812
N -3.215445 3.566631 4.366841 -0.000403 0.002131 -0.000256
N -3.227079 3.576952 -5.782707 0.000817 -0.001430 0.000291
N -3.135420 3.571127 -0.767822 0.000186 -0.000036 -0.000569
N -0.016121 -1.852246 4.385574 -0.002083 0.001642 -0.000421
N -0.021306 -1.858523 -5.778867 0.000140 -0.000014 0.000462
N -0.024122 -1.805119 -0.772175 0.000548 -0.000148 -0.002307
N -0.022564 1.773069 1.781982 0.000406 0.000245 0.000064
N -0.029457 1.774793 6.846039 -0.000051 0.000067 -0.000408
N -0.024883 1.779202 -3.300498 -0.000358 0.000510 -0.000221
N 3.176304 -3.640822 1.771871 0.002288 -0.004564 -0.001762
N 3.173101 -3.648193 6.908853 0.000625 -0.000807 0.000130
N 3.141701 -3.677648 -3.233615 0.000018 0.000179 0.000695
N 1.596254 -0.922403 1.760627 0.000399 0.000450 0.000085
N 1.600238 -0.925737 6.841901 -0.000318 0.000487 0.000014
N 1.564154 -0.949226 -3.298606 -0.000337 0.000234 0.000218
N 3.134003 1.784181 1.843352 -0.000330 -0.003328 0.001099
N 3.125473 1.778290 6.855951 -0.000043 -0.000249 -0.000044
N 3.126912 1.775994 -3.243564 0.000013 0.000263 -0.000175
N 6.293648 -3.683037 1.790086 -0.000846 0.000535 -0.000763
N 6.283525 -3.673177 6.854224 0.000028 -0.000110 -0.000013
N 6.279522 -3.724424 -3.264683 0.000482 0.000197 0.000143
N 4.715317 -0.942773 1.785121 -0.000556 0.000176 0.000162
N 4.708679 -0.948990 6.843073 -0.000285 0.000095 -0.000303
N 4.668082 -0.925099 -3.319380 -0.000165 -0.000368 -0.000110
N -3.161473 1.734971 1.742621 -0.005050 -0.002426 0.007540
N -3.178410 1.730627 6.844182 0.000147 -0.000268 -0.000363
N -3.178352 1.774519 -3.296636 0.000189 -0.000114 0.000093
N -0.063894 -3.700365 1.807809 0.001003 -0.000019 0.001337
N -0.064109 -3.696832 6.825727 0.000217 0.000016 -0.000570
N -0.023524 -3.679112 -3.279251 0.000127 0.000108 0.000575
N -1.640387 -0.921848 1.777883 0.002025 -0.001449 -0.001880
N -1.642290 -0.919887 6.844979 -0.000287 0.000099 -0.000225
N -1.563509 -0.921312 -3.313617 -0.000134 0.000057 -0.000199
