108
Energy=-1.397949e+06 Lattice="9.510312e+00 0.000000e+00 0.000000e+00 -4.755963e+00 8.233752e+00 0.000000e+00 -6.301058e-04 3.819201e-03 1.534966e+01" Stress="-3.108650e-04 -6.744595e-05 6.075221e-05 -7.544925e-05 -5.408359e-04 -2.603672e-05 5.501860e-05 -1.910546e-05 -2.385412e-04" Properties=species:S:1:pos:R:3:forces:R:3 Config_type=AlGaN_super3_21_1_59.xyz
Al 1.567612e+00 8.695701e-01 2.390973e+00 -5.821229e-05 -9.726459e-05 7.662629e-06
Al 1.547967e+00 8.840985e-01 7.538160e+00 5.587654e-05 1.808656e-05 5.437669e-05
Al 1.581313e+00 8.691485e-01 -2.695326e+00 -7.743447e-05 -1.765532e-05 -1.413375e-04
Al -3.315555e-02 3.627224e+00 2.416209e+00 -2.906097e-05 -1.634363e-05 4.628867e-06
Al -1.854753e-02 3.610960e+00 7.506015e+00 -2.929476e-05 -3.959382e-05 1.816190e-05
Ga -2.427997e-02 3.624114e+00 -2.692912e+00 -3.408416e-05 2.961140e-06 -2.482519e-05
Al 3.147840e+00 -1.873379e+00 2.369428e+00 3.162147e-05 -2.518365e-05 -3.525625e-06
Ga 3.145433e+00 -1.872217e+00 7.522501e+00 -1.227984e-05 -3.518727e-06 -3.153354e-06
Al 3.143461e+00 -1.860666e+00 -2.664110e+00 5.235997e-05 -5.936662e-05 -6.028177e-06
Al -4.778342e+00 8.728248e-01 2.366227e+00 2.258513e-04 -4.595179e-05 -2.412756e-05
Ga -4.774765e+00 8.815322e-01 7.540542e+00 1.008186e-04 -1.077830e-06 6.842956e-05
Al -4.785687e+00 8.798966e-01 -2.675030e+00 -1.073440e-04 3.479475e-05 3.210809e-05
Ga -6.363866e+00 3.616198e+00 2.414777e+00 4.801320e-06 -6.619303e-06 2.348027e-06
Ga -6.375408e+00 3.622769e+00 7.534004e+00 5.402340e-06 2.230035e-05 5.059477e-05
Al -6.361786e+00 3.605099e+00 -2.712700e+00 1.011572e-04 -3.342660e-05 -1.703677e-05
Al -3.200566e+00 -1.866139e+00 2.387914e+00 2.456342e-05 2.353672e-04 7.717950e-05
Ga -3.191298e+00 -1.878094e+00 7.541899e+00 -2.082594e-05 1.183512e-06 1.664692e-05
Al -3.190215e+00 -1.858936e+00 -2.694316e+00 4.033953e-05 -2.067225e-04 -1.701612e-04
Ga -1.613503e+00 8.800880e-01 2.403577e+00 4.643740e-06 -7.696406e-05 3.143542e-05
Al -1.597742e+00 8.897453e-01 7.506145e+00 1.178719e-04 -5.199923e-05 -8.363659e-06
Al -1.621576e+00 8.661473e-01 -2.675477e+00 1.829291e-04 1.029028e-04 -1.097377e-04
Al -3.183688e+00 3.621547e+00 2.408107e+00 8.461599e-05 -1.106430e-04 3.966074e-05
Ga -3.184388e+00 3.617344e+00 7.505992e+00 2.391832e-05 -5.160033e-05 1.190921e-05
Al -3.195233e+00 3.613616e+00 -2.681024e+00 -1.352599e-05 4.491545e-05 1.020432e-04
Al -1.415299e-02 -1.864699e+00 2.382053e+00 -9.577318e-05 8.378684e-05 -1.185067e-05
Ga -1.930325e-02 -1.859438e+00 7.560300e+00 5.413153e-05 -1.050101e-04 3.932501e-05
Ga -2.255594e-02 -1.858208e+00 -2.707340e+00 2.866453e-05 1.837700e-05 1.137829e-05
Al -2.207469e-02 1.808605e+00 4.965443e+00 -6.835689e-05 1.212001e-05 -2.772903e-06
Ga -1.344900e-02 1.775852e+00 -5.262651e+00 -6.476464e-05 6.525861e-05 6.115528e-05
Ga -2.032148e-02 1.776450e+00 -1.468181e-01 -9.590083e-06 1.998169e-05 1.243040e-05
Al 3.152712e+00 -3.714932e+00 4.931150e+00 -3.689221e-07 -1.747616e-05 -3.753108e-06
Ga 3.143207e+00 -3.692892e+00 -5.245681e+00 -6.052611e-05 7.897731e-05 1.119710e-05
Al 3.135477e+00 -3.692947e+00 -1.314345e-01 -4.163139e-05 2.912282e-05 3.620159e-05
Ga 1.557253e+00 -9.575710e-01 4.937531e+00 -2.978903e-05 -1.391874e-06 1.817165e-06
Al 1.562117e+00 -9.460209e-01 -5.239125e+00 -6.525315e-05 5.641500e-05 3.310332e-05
Al 1.574881e+00 -9.492589e-01 -1.386754e-01 -1.387815e-05 -4.554539e-06 -4.235498e-05
Ga 3.145436e+00 1.793812e+00 4.953625e+00 7.669224e-05 -1.446555e-05 7.589993e-05
Al 3.135758e+00 1.793424e+00 -5.237188e+00 -1.064724e-04 9.672271e-05 2.829578e-05
Al 3.153723e+00 1.771978e+00 -1.556601e-01 8.127967e-05 -3.109623e-05 1.733725e-06
Al 6.303735e+00 -3.702769e+00 4.945283e+00 2.236757e-06 2.750307e-05 2.823337e-05
Al 6.332585e+00 -3.701430e+00 -5.240904e+00 1.573452e-04 -5.290839e-05 -1.170311e-04
Ga 6.317708e+00 -3.687698e+00 -1.428919e-01 3.096842e-05 -3.952013e-05 -3.071115e-05
Ga 4.737704e+00 -9.584939e-01 4.924222e+00 -3.848026e-05 -1.681273e-05 -2.429457e-05
Ga 4.730083e+00 -9.582616e-01 -5.211146e+00 -1.649600e-05 -5.839933e-05 4.373047e-06
Al 4.730514e+00 -9.473426e-01 -1.585401e-01 4.152624e-06 4.432261e-05 -2.072463e-05
Al -3.189740e+00 1.805449e+00 4.944839e+00 2.558166e-05 9.572396e-05 -1.208864e-04
Ga -3.192831e+00 1.787898e+00 -5.227137e+00 5.002911e-05 1.561879e-05 6.324629e-05
Al -3.200923e+00 1.788455e+00 -1.596813e-01 -9.940236e-05 -5.216043e-06 -2.343470e-05
Al -1.189064e-02 -3.697729e+00 4.934031e+00 6.429351e-05 -6.217533e-05 9.545457e-06
Al -3.501232e-02 -3.699069e+00 -5.225802e+00 -3.034685e-05 1.756808e-05 7.201942e-06
Ga -1.034662e-02 -3.704845e+00 -1.490082e-01 3.372753e-05 -5.045267e-07 -4.249339e-06
Ga -1.605378e+00 -9.599753e-01 4.954286e+00 -1.609839e-05 -5.379363e-05 1.650757e-05
Al -1.605609e+00 -9.554371e-01 -5.246985e+00 -1.601735e-05 -3.315522e-05 -8.140699e-05
Al -1.618084e+00 -9.491047e-01 -1.442489e-01 6.314047e-05 3.792937e-05 2.301517e-04
N 1.519134e+00 9.020778e-01 4.300299e+00 1.027415e-04 -2.289651e-05 -3.132354e-06
N 1.604571e+00 8.506976e-01 -5.889259e+00 8.004595e-05 -1.660042e-05 -4.505600e-05
N 1.607792e+00 8.467030e-01 -7.810052e-01 3.139389e-05 6.544604e-05 1.741811e-04
N -2.383867e-02 3.616846e+00 4.340396e+00 -2.169519e-05 -1.009609e-05 -1.342153e-05
N 1.940674e-02 3.644309e+00 -5.910453e+00 -2.940086e-05 -1.718033e-05 -4.019970e-05
N -6.577420e-02 3.645125e+00 -7.349834e-01 3.033824e-05 -3.971863e-05 4.098129e-07
N 3.145903e+00 -1.918637e+00 4.285509e+00 -9.612601e-06 1.798745e-05 -4.975678e-05
N 3.108605e+00 -1.844911e+00 -5.857837e+00 7.883713e-06 2.467787e-06 -3.825408e-05
N 3.143186e+00 -1.871381e+00 -7.372546e-01 1.679539e-05 -3.997632e-05 1.419555e-05
N -4.735980e+00 9.042013e-01 4.284440e+00 -2.105533e-05 2.137642e-06 -6.508670e-05
N -4.817469e+00 8.972908e-01 -5.836427e+00 3.867420e-05 -7.804370e-06 -3.084441e-05
N -4.780640e+00 8.770713e-01 -7.539750e-01 2.668271e-05 -7.227933e-07 1.939342e-05
N -6.364231e+00 3.666678e+00 4.383600e+00 -6.947863e-05 2.923815e-06 -4.226753e-05
N -6.362366e+00 3.619332e+00 -5.817451e+00 -6.822306e-05 2.363479e-05 6.873499e-06
N -6.364577e+00 3.569422e+00 -7.953554e-01 -5.816036e-05 2.331738e-05 -8.086825e-05
N -3.188359e+00 -1.915064e+00 4.295471e+00 8.087506e-06 -1.545571e-05 -1.937867e-05
N -3.155489e+00 -1.895465e+00 -5.826567e+00 2.777220e-05 3.392856e-05 -1.538717e-05
N -3.189092e+00 -1.821610e+00 -7.787589e-01 -1.471296e-04 1.135848e-05 5.406589e-05
N -1.605218e+00 9.252722e-01 4.379942e+00 6.795754e-05 -9.561170e-06 -2.247894e-05
N -1.612793e+00 8.324334e-01 -5.920805e+00 -2.163293e-05 -2.090480e-05 -6.870331e-05
N -1.649893e+00 8.487218e-01 -7.617216e-01 4.294378e-05 -5.181830e-05 4.929791e-05
N -3.189965e+00 3.618738e+00 4.336154e+00 -4.840868e-06 -3.748104e-05 -3.624653e-05
N -3.238715e+00 3.641917e+00 -5.865461e+00 -7.532559e-06 -5.866879e-05 -5.902330e-05
N -3.149073e+00 3.597823e+00 -7.722800e-01 5.889375e-05 6.391660e-06 -6.873614e-05
N -2.368919e-02 -1.910995e+00 4.290191e+00 6.959012e-05 -3.352039e-05 -2.671298e-05
N -2.047386e-02 -1.872099e+00 -5.793413e+00 3.974201e-05 -1.897479e-05 1.815224e-05
N -2.202033e-02 -1.816392e+00 -7.271565e-01 1.064516e-04 -1.570614e-05 -4.145095e-05
N 1.858607e-02 1.814831e+00 1.821765e+00 1.386687e-05 1.754799e-04 -2.860589e-05
N -1.656839e-02 1.792702e+00 6.907204e+00 -5.735218e-05 5.669609e-05 2.476784e-06
N -2.473058e-02 1.735582e+00 -3.274709e+00 -3.303494e-05 -7.403063e-05 5.574731e-05
N 3.145160e+00 -3.705053e+00 1.791840e+00 -4.673165e-06 2.617030e-06 9.258433e-06
N 3.192097e+00 -3.721417e+00 6.854525e+00 1.473278e-05 1.652441e-05 4.599295e-05
N 3.103656e+00 -3.670533e+00 -3.272772e+00 3.034557e-05 6.206062e-05 1.253149e-05
N 1.564846e+00 -9.498340e-01 1.782711e+00 -3.326511e-05 1.729423e-05 -1.095862e-05
N 1.559156e+00 -9.047026e-01 6.914570e+00 -1.581150e-04 1.013459e-04 -3.087333e-05
N 1.611256e+00 -9.292122e-01 -3.323638e+00 -1.407555e-05 6.571709e-05 -1.758422e-05
N 3.144463e+00 1.745479e+00 1.762632e+00 -6.756885e-05 1.605871e-05 -3.503823e-05
N 3.105379e+00 1.765303e+00 6.925785e+00 -4.348602e-05 -2.948617e-05 -2.947030e-05
N 3.146185e+00 1.784972e+00 -3.312395e+00 -3.838481e-07 1.256387e-06 2.708888e-05
N 6.276353e+00 -3.677912e+00 1.825165e+00 -3.274130e-05 -2.373845e-04 -5.703765e-05
N 6.276085e+00 -3.718799e+00 6.863976e+00 2.579044e-05 2.892353e-05 -5.733057e-05
N 6.357765e+00 -3.674443e+00 -3.322126e+00 -7.384796e-05 2.109371e-04 1.526290e-04
N 4.734085e+00 -9.544426e-01 1.771286e+00 -2.481827e-05 1.062134e-05 4.973326e-06
N 4.736586e+00 -9.515773e-01 6.893735e+00 -7.187304e-05 1.019823e-05 -6.056319e-05
N 4.727055e+00 -9.541592e-01 -3.228193e+00 9.774945e-06 -5.451268e-05 2.700363e-05
N -3.232314e+00 1.820110e+00 1.758032e+00 -8.069618e-05 3.725623e-05 9.935183e-05
N -3.158075e+00 1.767250e+00 6.861734e+00 -2.072865e-05 -1.612400e-05 8.396808e-05
N -3.192841e+00 1.788057e+00 -3.243384e+00 2.576445e-05 -3.262694e-06 -2.346572e-05
N 2.124158e-02 -3.681621e+00 1.822009e+00 -2.599815e-06 -5.877421e-05 -5.445012e-05
N -2.393695e-02 -3.688575e+00 6.851128e+00 -3.029489e-05 5.725793e-05 -2.843502e-05
N -1.934330e-02 -3.747686e+00 -3.309468e+00 -7.969196e-05 -1.431933e-07 2.191802e-05
N -1.610707e+00 -9.982432e-01 1.771748e+00 -1.497874e-05 -1.784424e-05 -4.957600e-05
N -1.604903e+00 -9.126349e-01 6.927082e+00 -8.422049e-05 1.953320e-05 2.690499e-05
N -1.652170e+00 -9.225461e-01 -3.332340e+00 -6.276758e-05 7.748518e-06 1.467648e-04
