108
Energy=-757092.614300 Lattice="9.434021 0.000000 0.000000 -4.718672 8.169018 0.000000 -0.002449 -0.001467 15.152726" Stress="-0.000001 -0.000000 -0.000000 -0.000000 -0.000001 -0.000000 -0.000000 -0.000000 -0.000001" Properties=species:S:1:pos:R:3:forces:R:3
Al 1.550181 0.878235 2.387213 -0.000256 0.000055 0.000050
Al 1.552792 0.876755 7.422514 0.000049 -0.000231 0.000120
Al 1.553891 0.883041 -2.683949 0.000097 0.000159 0.000112
Al -0.021574 3.591300 2.377051 -0.000052 -0.000131 -0.000040
Al -0.022811 3.589548 7.420533 -0.000058 0.000057 0.000118
Al -0.013487 3.590992 -2.678982 -0.000080 -0.000050 0.000152
Al 3.128034 -1.861843 2.382104 -0.000142 -0.000079 -0.000225
Al 3.124644 -1.859558 7.433190 0.000055 0.000002 0.000068
Al 3.142039 -1.850439 -2.683290 0.000213 -0.000021 0.000084
Al -4.747294 0.868693 2.354370 0.000156 0.000182 0.000323
Al -4.753550 0.868816 7.439472 -0.000051 0.000051 0.000006
Al -4.751864 0.857418 -2.665207 -0.000324 -0.000168 0.000025
Al -6.319509 3.588216 2.378604 -0.000016 0.000002 -0.000181
Al -6.320189 3.582523 7.419598 0.000036 0.000041 0.000116
Al -6.324875 3.584719 -2.671320 -0.000290 -0.000083 -0.000015
Al -3.164722 -1.860174 2.363725 0.000003 0.000002 -0.000107
Al -3.170199 -1.859378 7.436088 0.000104 -0.000112 0.000148
Al -3.175764 -1.853642 -2.674686 -0.000012 -0.000130 -0.000075
Al -1.591524 0.867418 2.366881 0.000257 -0.000129 -0.000114
Al -1.589915 0.869920 7.423794 0.000179 -0.000101 -0.000104
Al -1.587762 0.867992 -2.658529 0.000218 -0.000165 -0.000094
Al -3.166353 3.595059 2.364012 0.000126 -0.000173 -0.000261
Al -3.164355 3.595676 7.426367 0.000021 0.000113 0.000122
Ga -3.163818 3.594609 -2.653492 0.000304 -0.000035 -0.000187
Al -0.029589 -1.857127 2.390995 -0.000367 -0.000010 -0.000078
Ga -0.024243 -1.854257 7.426803 0.000388 0.000063 -0.000058
Ga -0.030018 -1.848041 -2.679397 0.000363 -0.000009 -0.000024
Al -0.015143 1.776903 4.897274 -0.000203 0.000189 0.000194
Al -0.013457 1.776925 -5.204781 -0.000115 0.000238 -0.000060
Al -0.023846 1.785495 -0.147081 0.000014 -0.000016 0.000514
Al 3.123877 -3.672397 4.900049 -0.000097 0.000115 -0.000032
Al 3.133716 -3.661004 -5.210276 -0.000113 0.000151 -0.000090
Al 3.137637 -3.673262 -0.138206 0.000321 0.000266 0.000724
Al 1.547170 -0.944852 4.887693 -0.000306 0.000254 0.000102
Al 1.561509 -0.939209 -5.200050 0.000194 0.000050 -0.000180
Ga 1.559111 -0.942699 -0.134000 -0.000453 0.000371 0.000676
Al 3.107103 1.783915 4.901583 -0.000295 0.000228 0.000180
Al 3.112290 1.780657 -5.199461 0.000026 0.000059 0.000023
Al 3.122949 1.785570 -0.150605 -0.000360 -0.000157 0.000160
Al 6.269884 -3.677030 4.898764 0.000069 0.000056 0.000068
Al 6.269864 -3.670692 -5.203778 0.000095 0.000046 0.000128
Al 6.266962 -3.671635 -0.153267 0.000012 -0.000025 0.000235
Ga 4.693402 -0.956066 4.906619 -0.000102 0.000199 0.000078
Al 4.692236 -0.954396 -5.202387 -0.000184 0.000084 -0.000122
Al 4.704314 -0.950026 -0.148159 -0.000302 0.000050 -0.000199
Ga -3.166193 1.783999 4.904150 -0.000074 0.000113 -0.000006
Ga -3.165428 1.773808 -5.201682 -0.000121 0.000115 0.000042
Al -3.167063 1.769174 -0.141575 -0.000013 -0.000043 0.000650
Al -0.029164 -3.669550 4.887738 0.000016 0.000087 -0.000153
Al -0.030350 -3.671568 -5.209222 -0.000031 -0.000408 -0.000274
Al -0.035460 -3.680035 -0.120192 0.000065 0.000643 0.000347
Al -1.589564 -0.952392 4.889976 -0.000208 0.000084 0.000005
Al -1.599261 -0.945701 -5.195620 0.000123 -0.000108 -0.000152
Al -1.607583 -0.944507 -0.136699 0.000047 0.000045 0.000225
N 1.548431 0.874406 4.302002 0.000122 -0.000161 -0.000027
N 1.550833 0.872565 -5.807350 -0.000120 -0.000296 -0.000022
N 1.549043 0.918189 -0.771102 -0.000014 -0.000043 0.000040
N -0.023290 3.591647 4.300475 0.000011 -0.000181 -0.000077
N -0.019428 3.591120 -5.808924 0.000070 -0.000187 -0.000071
N -0.022396 3.591226 -0.756762 0.000067 -0.000030 0.000056
N 3.086914 -1.881954 4.286098 -0.000194 -0.000170 0.000023
N 3.122203 -1.854203 -5.804532 0.000068 -0.000047 0.000142
N 3.165891 -1.878769 -0.769169 0.000164 -0.000370 0.000089
N -4.785593 0.892357 4.262864 0.000306 -0.000403 -0.000660
N -4.786819 0.847064 -5.807560 -0.000030 -0.000153 -0.000016
N -4.744153 0.866112 -0.742369 0.000155 0.000019 0.000249
N -6.318501 3.588974 4.296105 -0.000035 0.000012 0.000026
N -6.315734 3.590527 -5.813303 -0.000189 -0.000144 -0.000143
N -6.312309 3.592914 -0.751701 0.000017 0.000091 0.000179
N -3.128588 -1.881677 4.274876 0.000298 -0.000179 -0.000229
N -3.163692 -1.856484 -5.798480 -0.000010 -0.000097 0.000046
N -3.165824 -1.855589 -0.751785 0.000027 -0.000057 0.000231
N -1.556426 0.848357 4.279366 0.000770 -0.000406 -0.000127
N -1.548863 0.846117 -5.822318 0.000590 -0.000455 -0.000088
N -1.590896 0.867919 -0.739554 0.000212 -0.000040 0.000283
N -3.166933 3.639493 4.275717 0.000078 -0.000020 0.000045
N -3.164943 3.643680 -5.816477 0.000129 -0.000093 -0.000001
N -3.167373 3.597720 -0.677373 -0.000510 -0.000298 0.000304
N -0.025874 -1.855414 4.307991 0.000188 -0.000145 0.000153
N -0.019817 -1.852134 -5.745604 -0.000321 0.001091 -0.000012
N -0.062626 -1.877707 -0.709648 0.000010 -0.000715 0.000500
N -0.019615 1.777933 1.773750 -0.000160 0.000191 -0.000532
N -0.021611 1.776448 6.817964 -0.000152 0.000056 -0.000010
N -0.024742 1.776995 -3.280961 -0.000207 0.000097 0.000034
N 3.130699 -3.670146 1.775988 0.000012 0.000193 -0.000529
N 3.124659 -3.671171 6.821366 -0.000021 0.000075 -0.000011
N 3.165831 -3.649135 -3.296969 -0.000027 0.000165 -0.000052
N 1.549919 -0.944738 1.844046 0.000631 0.000019 -0.000933
N 1.592831 -0.923560 6.805791 -0.000122 0.000358 -0.000322
N 1.597797 -0.919472 -3.285661 -0.000378 -0.000147 0.000010
N 3.114908 1.778805 1.765683 0.000194 -0.000101 -0.000285
N 3.119879 1.776454 6.819049 -0.000078 -0.000185 -0.000027
N 3.124143 1.779802 -3.278343 0.000000 -0.000063 0.000011
N 6.265788 -3.674367 1.767760 0.000061 0.000071 -0.000290
N 6.266240 -3.669340 6.822105 -0.000019 0.000015 -0.000069
N 6.269417 -3.668885 -3.277746 0.000040 -0.000008 0.000019
N 4.694531 -0.951567 1.770138 -0.000086 0.000081 0.000256
N 4.695510 -0.949023 6.880309 -0.000013 0.000156 0.000155
N 4.698349 -0.945433 -3.281381 0.000097 0.000150 -0.000031
N -3.166743 1.772335 1.778183 -0.000055 0.000063 -0.000574
N -3.171460 1.775429 6.885150 0.000083 -0.000264 -0.000056
N -3.168932 1.729193 -3.229019 0.000357 0.000075 0.000040
N -0.030947 -3.671086 1.793173 0.000179 0.000136 -0.000492
N -0.025047 -3.718977 6.801476 -0.000053 -0.000141 -0.000029
N -0.063403 -3.699056 -3.309447 0.000076 -0.000107 0.000318
N -1.595307 -0.947721 1.777522 -0.000199 0.000165 -0.000368
N -1.639151 -0.926201 6.801828 -0.000486 0.000360 -0.000121
N -1.640769 -0.917812 -3.288528 -0.000464 0.000280 0.000030
