108
Energy=-2359234.838562 Lattice="9.637455 0.000000 0.000000 -4.825626 8.339091 0.000000 0.019054 -0.008459 15.613632" Stress="-0.000000 -0.000001 0.000004 -0.000001 -0.000002 -0.000001 0.000004 -0.000001 -0.000002" Properties=species:S:1:pos:R:3:forces:R:3
Al 1.583574 0.889313 2.461777 0.000157 -0.000511 0.000308
Al 1.585267 0.904738 7.631842 0.000396 -0.000446 0.000635
Ga 1.577097 0.885443 -2.735748 0.000527 -0.000689 0.000940
Al -0.009739 3.654733 2.460807 0.000145 -0.000130 0.000535
Al 0.002159 3.652562 7.637517 0.000082 -0.000205 0.000644
Ga -0.030538 3.669425 -2.744130 -0.000021 -0.000084 0.000588
Ga 3.197711 -1.881136 2.463112 -0.000069 -0.000236 0.000018
Ga 3.220020 -1.896938 7.635071 0.000142 -0.000204 0.000583
Ga 3.178982 -1.898153 -2.735614 0.000271 -0.000271 0.000663
Al -4.853013 0.881023 2.475549 0.000143 -0.000466 0.000123
Ga -4.846410 0.876911 7.642726 0.000357 -0.000591 0.000385
Ga -4.848542 0.899066 -2.751357 0.000454 -0.000559 0.000076
Ga -6.464824 3.654654 2.451128 -0.000141 0.000113 0.000166
Al -6.459156 3.661713 7.646652 0.000062 -0.000159 0.000275
Ga -6.458240 3.668265 -2.737074 -0.000016 -0.000120 0.000677
Ga -3.245844 -1.899394 2.464012 0.000239 -0.000454 0.000001
Al -3.231932 -1.907148 7.635479 0.000176 -0.000094 0.000392
Ga -3.238074 -1.902059 -2.736304 0.000184 -0.000158 0.000794
Ga -1.621220 0.902972 2.474311 0.000911 -0.000660 -0.000122
Ga -1.607559 0.891822 7.638402 0.000987 -0.000662 -0.000024
Ga -1.641278 0.901475 -2.745123 0.000641 -0.000786 -0.000027
Ga -3.234875 3.663365 2.463840 0.000444 -0.000224 0.000091
Ga -3.230390 3.665452 7.652169 0.000442 -0.000033 0.000344
Al -3.242122 3.667795 -2.747366 0.000305 -0.000375 0.000671
Ga -0.009255 -1.881322 2.456294 0.000700 -0.000200 0.000010
Ga -0.021594 -1.896146 7.656607 0.000715 -0.000254 0.000278
Ga -0.015693 -1.892190 -2.742416 0.000485 -0.000165 0.000082
Al -0.002942 1.818178 5.047158 -0.000510 -0.000013 0.000706
Ga -0.022938 1.818534 -5.375089 -0.000586 0.000175 0.001054
Ga -0.008386 1.814916 -0.122086 -0.000592 0.000127 -0.000028
Ga 3.223497 -3.756277 5.052211 -0.000647 0.000078 0.000240
Ga 3.192314 -3.749801 -5.357367 -0.000232 -0.000046 0.000546
Ga 3.199656 -3.747731 -0.136123 -0.000593 0.000216 -0.000211
Ga 1.599216 -0.951173 5.058923 -0.000865 0.000280 0.000097
Ga 1.583832 -0.955105 -5.374680 -0.000835 0.000466 0.000290
Al 1.587115 -0.962673 -0.124996 -0.000138 0.000402 0.001077
Ga 3.181275 1.799694 5.048180 0.000287 -0.000323 0.000914
Ga 3.168737 1.819636 -5.380433 -0.000177 0.000190 0.000852
Ga 3.179633 1.803792 -0.112895 -0.000368 0.000215 -0.000290
Ga 6.397128 -3.751646 5.075334 -0.000182 -0.000051 0.000828
Ga 6.396479 -3.742285 -5.398449 0.000050 -0.000088 0.000910
Al 6.397876 -3.751285 -0.126877 0.000353 0.000105 0.001340
Al 4.809344 -0.965599 5.053754 -0.000376 0.000389 0.000499
Ga 4.798217 -0.970370 -5.361370 -0.000185 0.000139 0.000552
Ga 4.793947 -0.971259 -0.131218 -0.000264 0.000342 0.000210
Ga -3.234249 1.801217 5.048251 -0.000388 -0.000203 0.000667
Ga -3.246471 1.821726 -5.351315 -0.000040 -0.000102 0.000292
Ga -3.242970 1.816173 -0.131410 -0.000467 0.000214 -0.000174
Ga -0.018979 -3.747782 5.067713 0.000063 0.000046 0.000485
Ga -0.031874 -3.748743 -5.349232 -0.000379 -0.000062 0.000600
Ga -0.017277 -3.742047 -0.154254 -0.000308 -0.000016 -0.000430
Ga -1.628317 -0.964096 5.065131 -0.000396 0.000563 0.000064
Ga -1.644296 -0.965828 -5.365837 -0.000513 0.000320 0.000221
Ga -1.621379 -0.975675 -0.137184 -0.000876 0.000572 0.000570
N 1.544271 0.906994 4.385562 -0.000012 -0.000106 -0.000662
N 1.568869 0.893884 -6.061040 0.000506 -0.000485 -0.000895
N 1.582011 0.838733 -0.750518 0.000367 -0.000459 -0.000472
N -0.010869 3.617063 4.388420 0.000196 -0.000311 -0.000931
N -0.036982 3.665231 -6.053513 0.000018 0.000002 -0.000800
N 0.016311 3.687368 -0.759146 0.000294 0.000079 -0.000321
N 3.237805 -1.870550 4.450668 0.000436 0.000031 -0.000301
N 3.189594 -1.892637 -5.997323 0.000217 -0.000152 -0.000601
N 3.147487 -1.870664 -0.744610 -0.000143 0.000046 -0.000314
N -4.843494 0.836570 4.401763 0.000217 -0.000239 -0.000875
N -4.853046 0.887718 -5.991247 0.000274 -0.000138 -0.000326
N -4.848868 0.888443 -0.775619 0.000267 -0.000241 -0.000215
N -6.452476 3.667073 4.428292 -0.000165 0.000097 -0.000549
N -6.456126 3.670647 -6.047364 0.000166 0.000092 -0.000689
N -6.498261 3.684045 -0.742895 -0.000301 0.000249 -0.000400
N -3.268815 -1.878281 4.446062 -0.000145 -0.000025 -0.000293
N -3.244834 -1.886199 -6.057342 0.000088 -0.000004 -0.000663
N -3.235335 -1.945479 -0.747724 0.000209 -0.000392 -0.000265
N -1.579924 0.913391 4.456292 0.000860 -0.000205 -0.000148
N -1.640113 0.895756 -5.994362 0.000710 -0.000342 -0.000306
N -1.630406 0.892078 -0.763448 0.000825 -0.000314 0.000061
N -3.233508 3.669338 4.435492 0.000408 0.000058 -0.000504
N -3.248319 3.673656 -5.988947 0.000385 0.000081 -0.000267
N -3.235968 3.664665 -0.823145 0.000530 0.000095 -0.000383
N -0.013018 -1.890552 4.433206 0.000619 -0.000136 -0.000333
N -0.031206 -1.890498 -5.982039 0.000623 -0.000269 -0.000175
N 0.024540 -1.863629 -0.755975 0.000513 -0.000152 -0.000022
N 0.023180 1.834488 1.862918 -0.000260 0.000589 0.000262
N 0.032048 1.835270 6.985855 -0.000308 0.000542 -0.000824
N -0.022968 1.814124 -3.389182 -0.000537 0.000330 -0.000731
N 3.240038 -3.772721 1.852537 0.000201 -0.000145 0.000228
N 3.251245 -3.781225 7.033721 -0.000007 0.000119 -0.000358
N 3.152594 -3.771707 -3.362793 -0.000519 0.000169 -0.000524
N 1.592850 -0.918357 1.805037 -0.000815 0.000558 -0.001251
N 1.597690 -0.921178 7.040467 -0.000719 0.000747 -0.000059
N 1.586211 -0.962951 -3.396359 -0.000667 0.000598 -0.000392
N 3.188862 1.759569 1.876143 0.000336 -0.000274 0.000470
N 3.155825 1.832206 7.043548 -0.000524 0.000474 -0.000514
N 3.175345 1.816869 -3.392515 -0.000073 0.000277 -0.000886
N 6.363661 -3.770097 1.800948 -0.000429 -0.000045 -0.001333
N 6.412395 -3.752205 7.072692 -0.000030 0.000134 -0.000282
N 6.400729 -3.746982 -3.409710 0.000129 0.000092 -0.000851
N 4.800282 -0.918997 1.845453 -0.000048 0.000742 0.000070
N 4.851619 -0.991493 6.976471 -0.000035 0.000253 -0.000727
N 4.795709 -0.971105 -3.376801 -0.000448 0.000466 -0.000347
N -3.281477 1.788257 1.855143 -0.000227 -0.000060 0.000329
N -3.231914 1.807270 7.018390 -0.000413 0.000289 -0.000393
N -3.243102 1.862682 -3.366353 -0.000205 0.000785 -0.000224
N -0.018115 -3.746656 1.820278 -0.000066 -0.000056 0.000454
N -0.054102 -3.773918 7.044610 -0.000583 -0.000107 -0.000309
N 0.011245 -3.770807 -3.355105 0.000298 -0.000078 -0.000352
N -1.629256 -0.963842 1.840780 -0.000320 0.000415 -0.000486
N -1.659463 -0.994049 7.041650 -0.000880 0.000346 -0.000072
N -1.634622 -0.967522 -3.378522 -0.000369 0.000671 -0.000239
