108
Energy=-8.486435e+05 Lattice="9.445445e+00 0.000000e+00 0.000000e+00 -4.724298e+00 8.177028e+00 0.000000e+00 -8.600948e-03 -5.282436e-03 1.518965e+01" Stress="4.641562e-04 -8.123198e-05 -4.032935e-04 -8.368184e-05 -2.240901e-04 -2.622023e-04 -4.185467e-04 -2.655887e-04 8.576557e-04" Properties=species:S:1:pos:R:3:forces:R:3 Config_type=AlGaN_super3_9_1_63.xyz
Al 1.551722e+00 8.693062e-01 2.422328e+00 -2.666976e-04 -3.544147e-05 -1.503685e-05
Al 1.552401e+00 8.746700e-01 7.443413e+00 -5.722305e-05 1.637621e-04 3.726620e-05
Al 1.552915e+00 8.724003e-01 -2.718780e+00 1.013607e-05 -1.305338e-05 -2.192131e-04
Al -9.336415e-03 3.597766e+00 2.418474e+00 5.658504e-05 2.346548e-04 5.319238e-05
Al -2.809914e-02 3.591681e+00 7.442237e+00 -4.156836e-05 9.086171e-06 -7.019905e-05
Al -2.009147e-02 3.589706e+00 -2.714761e+00 5.304059e-05 -2.826124e-05 1.530286e-04
Al 3.134306e+00 -1.846329e+00 2.413777e+00 1.104728e-04 7.355632e-05 5.295679e-05
Al 3.130294e+00 -1.859159e+00 7.444612e+00 3.537868e-05 -4.061840e-05 -4.778532e-05
Al 3.126916e+00 -1.850455e+00 -2.709947e+00 -9.200553e-06 1.170063e-04 -1.065390e-04
Al -4.744502e+00 8.597631e-01 2.402904e+00 1.620673e-04 7.832738e-06 -7.875305e-05
Al -4.755839e+00 8.649253e-01 7.432370e+00 9.211817e-05 -2.134695e-05 5.987019e-05
Al -4.750702e+00 8.687678e-01 -2.689244e+00 -2.814277e-04 1.079554e-04 2.525912e-04
Al -6.335914e+00 3.597563e+00 2.390430e+00 -6.468531e-05 2.442785e-04 -2.143553e-04
Al -6.335460e+00 3.580012e+00 7.458735e+00 6.132342e-06 2.068087e-05 -1.893317e-05
Al -6.316928e+00 3.593185e+00 -2.699907e+00 7.994208e-08 -5.495637e-05 -1.062731e-04
Al -3.173168e+00 -1.859371e+00 2.379959e+00 -1.145921e-05 -8.159622e-05 -8.915987e-05
Al -3.182286e+00 -1.857751e+00 7.443616e+00 1.531594e-04 1.006479e-04 -9.140849e-05
Ga -3.173227e+00 -1.854820e+00 -2.677955e+00 2.580342e-05 -5.238491e-05 6.828657e-05
Al -1.601053e+00 8.607400e-01 2.399646e+00 -1.271774e-04 -1.643177e-05 -3.131073e-06
Al -1.600529e+00 8.698831e-01 7.435022e+00 1.668254e-06 -8.561541e-05 9.524186e-05
Al -1.587335e+00 8.728651e-01 -2.685195e+00 2.889907e-05 3.822926e-05 3.725068e-04
Ga -3.173999e+00 3.586818e+00 2.388332e+00 -7.344694e-05 -1.461961e-05 -1.251669e-04
Al -3.164595e+00 3.586848e+00 7.450731e+00 9.229073e-05 -6.753342e-05 -1.677233e-04
Al -3.174285e+00 3.600477e+00 -2.685369e+00 -4.768538e-05 1.038777e-04 2.655531e-05
Al -3.217538e-02 -1.848245e+00 2.392255e+00 1.612494e-04 2.061090e-04 -4.179045e-05
Ga -2.792315e-02 -1.848950e+00 7.463689e+00 -6.241455e-05 -7.166165e-06 -2.258120e-05
Al -1.680818e-02 -1.856378e+00 -2.702862e+00 1.648299e-04 -6.563818e-05 7.658123e-05
Al -2.676026e-02 1.776306e+00 4.920624e+00 -4.128338e-05 1.184086e-05 -7.575786e-05
Al -1.369646e-02 1.778732e+00 -5.227019e+00 -8.559822e-05 -1.789575e-05 8.543901e-06
Ga -2.847130e-02 1.781055e+00 -1.380929e-01 -6.486153e-05 1.146355e-04 -7.367601e-05
Al 3.137985e+00 -3.670782e+00 4.932642e+00 2.350584e-04 1.103084e-04 2.349368e-05
Al 3.133824e+00 -3.664818e+00 -5.219496e+00 -7.226917e-06 -2.154434e-07 -6.263970e-05
Ga 3.137588e+00 -3.667782e+00 -1.566577e-01 -4.070308e-05 -3.572563e-05 -9.561879e-06
Al 1.556959e+00 -9.406291e-01 4.917231e+00 -2.769931e-05 -1.153926e-05 -1.968605e-04
Al 1.561789e+00 -9.431119e-01 -5.211068e+00 -1.146123e-04 -3.345371e-05 -1.357072e-05
Ga 1.550450e+00 -9.545003e-01 -1.478483e-01 -6.461101e-06 -1.189014e-04 -1.919929e-05
Al 3.118634e+00 1.772133e+00 4.919527e+00 6.666952e-06 1.407750e-04 -8.523369e-05
Al 3.122409e+00 1.778954e+00 -5.219458e+00 -8.270817e-05 3.482659e-05 7.519034e-05
Ga 3.138822e+00 1.784604e+00 -1.458018e-01 2.815141e-05 1.037171e-04 -3.593057e-05
Al 6.265799e+00 -3.671839e+00 4.926232e+00 -5.404313e-05 3.920830e-05 -9.117049e-05
Al 6.277779e+00 -3.673788e+00 -5.234318e+00 1.301934e-05 -2.583469e-05 -3.109345e-05
Al 6.281916e+00 -3.667222e+00 -1.401869e-01 2.542104e-04 4.201162e-05 4.151957e-05
Al 4.701229e+00 -9.515705e-01 4.920033e+00 -4.138759e-05 -3.606168e-05 -8.543958e-05
Al 4.697019e+00 -9.506766e-01 -5.236078e+00 3.924184e-05 2.075049e-05 -1.027454e-04
Al 4.709206e+00 -9.433130e-01 -1.317192e-01 2.060011e-04 -3.011348e-04 1.836775e-04
Al -3.170101e+00 1.762082e+00 4.937910e+00 4.978178e-05 -1.165580e-04 3.055767e-05
Ga -3.168004e+00 1.776637e+00 -5.214928e+00 -1.501615e-06 -2.007966e-05 -8.622714e-05
Al -3.175880e+00 1.762483e+00 -1.639580e-01 1.814379e-04 1.715468e-04 -2.414667e-04
Ga -3.314533e-02 -3.675790e+00 4.929476e+00 -7.502252e-05 1.824144e-05 -4.158746e-05
Al -2.277300e-02 -3.673070e+00 -5.210604e+00 -8.773317e-05 -4.528885e-05 7.422894e-05
Al -3.603310e-02 -3.668425e+00 -1.602581e-01 -1.876335e-04 2.193221e-04 1.740519e-04
Al -1.611027e+00 -9.421627e-01 4.907110e+00 -6.349083e-05 7.761275e-05 -1.261436e-04
Al -1.594877e+00 -9.466717e-01 -5.212394e+00 1.071871e-04 3.324318e-05 -8.162983e-05
Al -1.601438e+00 -9.500897e-01 -1.384022e-01 -2.300785e-05 -4.065131e-04 -1.261580e-05
N 1.548079e+00 8.701261e-01 4.331767e+00 4.331450e-05 2.739000e-05 3.674406e-05
N 1.555782e+00 8.707853e-01 -5.821737e+00 2.165805e-05 -2.434163e-05 -3.820098e-05
N 1.552092e+00 8.723029e-01 -8.152430e-01 6.169872e-05 1.429292e-05 2.416213e-04
N -2.282791e-02 3.595912e+00 4.333991e+00 5.681145e-05 4.368116e-05 9.127816e-05
N -2.313392e-02 3.596137e+00 -5.826479e+00 4.079135e-06 -1.330169e-05 5.139204e-05
N 2.453240e-02 3.617754e+00 -8.035772e-01 -1.855676e-04 -2.186434e-04 -2.443244e-04
N 3.127373e+00 -1.857354e+00 4.328204e+00 2.742648e-05 2.385884e-06 9.386097e-05
N 3.126782e+00 -1.855912e+00 -5.826057e+00 1.907005e-05 -1.011255e-05 2.819536e-05
N 3.173089e+00 -1.826166e+00 -8.009000e-01 -2.123770e-04 -2.494397e-05 1.357099e-04
N -4.744554e+00 8.676848e-01 4.326330e+00 1.939917e-05 3.074187e-05 2.610590e-05
N -4.785238e+00 8.497073e-01 -5.846568e+00 3.355978e-05 6.391193e-05 -2.288701e-04
N -4.710000e+00 8.384456e-01 -7.752826e-01 4.473965e-05 2.784922e-04 -1.514742e-04
N -6.369229e+00 3.573380e+00 4.298961e+00 2.940398e-05 -2.958823e-04 3.539108e-04
N -6.317917e+00 3.593040e+00 -5.816631e+00 2.889838e-05 -3.382793e-05 1.779080e-05
N -6.324409e+00 3.641930e+00 -7.816344e-01 -9.865640e-05 8.056249e-05 2.421204e-04
N -3.175984e+00 -1.861181e+00 4.305873e+00 8.423535e-06 8.136055e-06 7.152298e-05
N -3.166343e+00 -1.852794e+00 -5.824732e+00 3.695464e-05 -1.806032e-06 -1.488592e-05
N -3.172444e+00 -1.855247e+00 -6.926391e-01 7.937954e-05 5.540593e-05 2.027035e-05
N -1.603699e+00 8.703658e-01 4.318391e+00 -2.480664e-05 8.392337e-06 2.485967e-05
N -1.552498e+00 8.463786e-01 -5.844435e+00 3.415408e-05 -4.392262e-05 -2.285633e-04
N -1.629614e+00 8.423895e-01 -7.695330e-01 -1.266929e-04 3.364753e-04 -2.953741e-04
N -3.132289e+00 3.566553e+00 4.358664e+00 -1.964257e-04 -4.887219e-05 -6.535905e-05
N -3.165801e+00 3.643308e+00 -5.829704e+00 7.731498e-05 -1.742353e-05 1.224486e-04
N -3.212602e+00 3.575196e+00 -7.630558e-01 7.397830e-05 -6.737266e-05 1.321974e-04
N -2.668833e-02 -1.809998e+00 4.305508e+00 2.721197e-05 -6.014774e-05 -6.421231e-06
N -1.853060e-02 -1.852040e+00 -5.755471e+00 4.321753e-05 1.313286e-04 4.198747e-05
N -6.445227e-02 -1.874820e+00 -7.801121e-01 1.018037e-04 -1.479892e-04 1.472610e-05
N -2.307760e-02 1.779334e+00 1.848138e+00 1.010680e-04 -1.964678e-04 -1.576469e-04
N -2.523225e-02 1.775535e+00 6.841106e+00 -5.965963e-08 5.247943e-05 8.260657e-05
N -2.549708e-02 1.777474e+00 -3.307902e+00 -7.046606e-05 2.498914e-05 2.591295e-05
N 3.173188e+00 -3.647347e+00 1.818931e+00 -4.601002e-05 -1.449357e-04 -8.610094e-06
N 3.126241e+00 -3.673751e+00 6.848784e+00 -1.057467e-06 5.770925e-05 5.309602e-05
N 3.126108e+00 -3.673223e+00 -3.295528e+00 4.245885e-05 8.335142e-06 8.863924e-06
N 1.554668e+00 -9.469495e-01 1.838572e+00 -2.711875e-04 -6.648538e-05 -7.477442e-05
N 1.589598e+00 -9.258637e-01 6.829543e+00 4.555710e-06 -2.167684e-04 5.631695e-05
N 1.555555e+00 -9.473800e-01 -3.296267e+00 -1.443938e-05 -4.456442e-06 -2.731479e-05
N 3.125277e+00 1.774455e+00 1.838560e+00 5.794201e-05 -1.194822e-04 1.875165e-05
N 3.119782e+00 1.777932e+00 6.837772e+00 1.766895e-05 6.157728e-05 3.261355e-05
N 3.132077e+00 1.780368e+00 -3.298857e+00 -6.198436e-05 1.977649e-05 -8.126317e-06
N 6.270105e+00 -3.678593e+00 1.781471e+00 1.010003e-06 4.175196e-05 5.873989e-05
N 6.272479e+00 -3.675115e+00 6.849040e+00 1.522632e-05 2.640017e-05 3.369629e-05
N 6.278864e+00 -3.714692e+00 -3.325167e+00 -1.220255e-05 3.999206e-05 4.087024e-06
N 4.694767e+00 -9.461891e-01 1.791885e+00 4.106003e-05 7.800943e-05 5.853612e-05
N 4.697545e+00 -9.531900e-01 6.838811e+00 1.390369e-05 6.915813e-05 8.173114e-05
N 4.666244e+00 -9.214980e-01 -3.327179e+00 -3.361318e-05 -3.090008e-04 2.471203e-05
N -3.173596e+00 1.724430e+00 1.755239e+00 4.409972e-06 -2.001562e-04 2.843111e-04
N -3.175591e+00 1.772639e+00 6.854282e+00 -1.213119e-05 1.283617e-05 4.506833e-05
N -3.169753e+00 1.778678e+00 -3.237688e+00 3.772648e-04 -2.081453e-04 -2.369840e-04
N -6.729303e-02 -3.648881e+00 1.764309e+00 1.318135e-04 -8.508054e-05 -8.587147e-05
N -3.048310e-02 -3.722252e+00 6.892212e+00 -6.554105e-05 4.878688e-05 4.394519e-05
N -1.984213e-02 -3.676306e+00 -3.292876e+00 4.479072e-06 3.295390e-05 1.208287e-05
N -1.596333e+00 -9.455957e-01 1.785216e+00 3.959150e-06 3.833895e-05 7.344273e-05
N -1.643329e+00 -9.290607e-01 6.817759e+00 -2.170541e-04 -1.065622e-04 3.104683e-04
N -1.560400e+00 -9.216917e-01 -3.305098e+00 -2.657520e-04 1.599854e-04 -1.516652e-04
