108
Energy=-1672600.471854 Lattice="9.490164 0.000000 0.000000 -4.751688 8.214217 0.000000 -0.000438 0.000150 15.307030" Stress="-0.000161 0.000018 0.000001 0.000018 -0.000136 0.000003 0.000001 0.000002 -0.000139" Properties=species:S:1:pos:R:3:forces:R:3
Al 1.549258 0.932756 2.448426 0.006097 -0.022938 -0.007904
Al 1.559505 0.886687 7.506459 -0.001220 -0.008684 0.001136
Al 1.549633 0.879045 -2.738347 0.002507 -0.006689 0.004654
Al -0.023021 3.612447 2.397692 0.010050 -0.008037 0.014192
Al -0.017851 3.609784 7.511445 -0.001674 -0.000633 0.001766
Ga -0.020544 3.601602 -2.734974 -0.000665 0.001531 0.007304
Al 3.166866 -1.870301 2.433597 -0.003903 -0.004604 -0.001966
Ga 3.165818 -1.881550 7.506509 -0.003257 -0.000960 0.001593
Ga 3.157082 -1.878684 -2.731767 0.000501 -0.000489 0.008345
Al -4.789393 0.891664 2.425368 -0.000544 -0.008782 -0.000510
Ga -4.785858 0.894838 7.515906 0.001045 -0.007812 0.003215
Ga -4.785562 0.890363 -2.741983 0.003094 -0.007021 0.004559
Al -6.308795 3.626127 2.397326 -0.021943 -0.001279 0.009677
Ga -6.364775 3.606396 7.519223 0.001600 0.002305 0.000573
Ga -6.355075 3.612316 -2.739223 0.000260 0.000108 0.004068
Al -3.181162 -1.878235 2.421426 -0.001998 -0.001590 0.000686
Ga -3.182018 -1.876218 7.513122 0.003524 0.000647 0.002994
Ga -3.172624 -1.869766 -2.729405 -0.000023 0.000531 0.008403
Ga -1.641287 0.883761 2.424633 0.009523 -0.004370 0.000030
Ga -1.641874 0.904434 7.504204 0.010433 -0.007158 -0.000536
Al -1.630185 0.894624 -2.734026 0.004671 -0.004268 0.003192
Al -3.228350 3.570770 2.459277 0.015142 0.020851 -0.007329
Al -3.200403 3.615405 7.503932 0.006219 0.005566 0.002670
Al -3.205822 3.621203 -2.743249 0.006805 0.000207 0.004545
Al -0.021976 -1.854377 2.446044 0.002224 -0.004547 -0.004571
Ga -0.025822 -1.863331 7.500742 0.006789 0.003674 -0.000343
Al -0.024998 -1.861349 -2.729204 0.005409 0.001810 0.005159
Ga -0.022605 1.786063 4.976552 -0.007446 -0.000463 -0.002415
Ga -0.013986 1.794863 -5.271787 -0.005871 -0.003120 0.000745
Al -0.008253 1.791275 -0.200756 -0.006113 -0.004083 0.014113
Al 3.163020 -3.704414 4.977819 -0.006702 0.001428 -0.002880
Al 3.167734 -3.700865 -5.274822 -0.006868 -0.002093 0.001949
Ga 3.154232 -3.704833 -0.136197 -0.003535 -0.000606 0.001600
Al 1.588898 -0.968497 4.974982 -0.005721 0.002212 -0.002977
Ga 1.599629 -0.968212 -5.263076 -0.007235 0.005417 0.000638
Ga 1.588969 -0.966206 -0.142191 -0.009051 0.003493 -0.002273
Ga 3.132372 1.785145 4.968247 0.000072 0.001035 -0.000510
Al 3.129393 1.790955 -5.271043 0.000993 -0.000756 0.001798
Al 3.130344 1.797971 -0.194488 -0.002169 -0.002710 0.015708
Ga 6.300447 -3.689787 4.971385 -0.001083 -0.001672 -0.002485
Al 6.303216 -3.692373 -5.268737 0.000385 -0.000297 0.001591
Ga 6.318153 -3.703030 -0.129997 -0.003642 0.001558 0.003145
Ga 4.744823 -0.962678 4.965160 -0.002620 0.006312 -0.002750
Al 4.740853 -0.969714 -5.263905 -0.001843 0.008035 0.000363
Ga 4.737625 -0.961611 -0.121743 -0.001886 0.005711 -0.003697
Al -3.221117 1.807822 5.022668 0.005805 -0.005548 -0.019354
Al -3.207907 1.803482 -5.269779 -0.001935 0.000385 0.004007
Ga -3.212557 1.810341 -0.151075 0.001496 -0.001869 -0.004949
Ga -0.021372 -3.686642 4.972977 -0.002670 0.001286 -0.000825
Ga -0.024120 -3.692583 -5.268781 0.000413 -0.001263 0.001258
Al -0.030112 -3.691936 -0.200253 0.002018 0.004127 0.015187
Al -1.600292 -0.960395 4.968292 -0.001958 0.005821 -0.000662
Ga -1.607218 -0.958418 -5.258449 -0.001386 0.007337 0.001568
Ga -1.592866 -0.960529 -0.141736 0.000262 0.006914 -0.006239
N 1.554512 0.854160 4.359975 -0.000035 -0.015074 -0.009702
N 1.574630 0.892113 -5.885916 0.009538 -0.001976 -0.008764
N 1.557794 0.902104 -0.803984 0.001758 0.004051 -0.000376
N -0.049633 3.625395 4.357525 -0.005702 0.000262 -0.013985
N -0.016059 3.630915 -5.874668 -0.000524 0.010728 -0.006795
N -0.015802 3.594543 -0.773537 0.000163 -0.011577 0.000462
N 3.145933 -1.887564 4.366751 -0.011518 -0.004794 -0.006344
N 3.182150 -1.888984 -5.853254 0.009409 -0.005462 0.005591
N 3.164554 -1.878756 -0.766024 -0.000105 0.000820 -0.005362
N -4.759364 0.902751 4.353132 0.010733 -0.001108 -0.008776
N -4.783590 0.888745 -5.843736 0.002395 -0.006615 0.011404
N -4.801894 0.896957 -0.778805 -0.008140 -0.001816 0.004971
N -6.362971 3.612557 4.361899 0.003854 0.000767 -0.021759
N -6.375891 3.603374 -5.849212 -0.009489 -0.005204 0.007937
N -6.342564 3.604031 -0.780869 0.010589 -0.005763 0.010441
N -3.159139 -1.864419 4.353319 0.011079 0.007378 -0.013546
N -3.194122 -1.882549 -5.849850 -0.009398 -0.005054 0.005825
N -3.178085 -1.874500 -0.765969 -0.000477 0.000494 -0.002977
N -1.660945 0.871720 4.387958 -0.004467 -0.005191 0.007572
N -1.658377 0.904169 -5.860763 -0.001254 0.000577 0.004222
N -1.622394 0.905593 -0.799532 0.016283 0.000770 -0.003465
N -3.188447 3.599739 4.383536 0.015193 -0.004066 -0.009602
N -3.188316 3.607925 -5.881428 0.016193 -0.003953 -0.005912
N -3.225246 3.629675 -0.806321 -0.002705 0.008272 -0.005726
N -0.026800 -1.843281 4.374124 0.005540 0.013199 -0.007259
N -0.028754 -1.864055 -5.869301 0.006697 0.003499 -0.000092
N -0.028851 -1.885050 -0.798636 0.006054 -0.009009 -0.008176
N 0.011341 1.798012 1.826552 -0.004915 0.001348 -0.020010
N 0.003678 1.802534 6.926444 0.003225 0.002011 0.007269
N -0.014543 1.767896 -3.325656 -0.006292 -0.014993 0.007593
N 3.265129 -3.682258 1.817779 -0.046244 -0.002261 0.010575
N 3.165642 -3.719234 6.900992 -0.006951 -0.013228 -0.005028
N 3.145142 -3.710033 -3.353885 -0.015960 -0.006994 -0.009118
N 1.563149 -1.025544 1.803679 0.003071 0.023281 0.020721
N 1.595325 -0.948301 6.895127 -0.007158 0.015844 -0.008912
N 1.573619 -0.958116 -3.317825 -0.017934 0.010563 0.008416
N 3.134263 1.804119 1.838158 0.000422 -0.002457 -0.017731
N 3.113842 1.782789 6.916019 -0.008944 -0.006754 -0.000109
N 3.111420 1.782894 -3.357464 -0.011187 -0.006683 -0.007573
N 6.273407 -3.697858 1.834416 0.021309 0.000865 0.007272
N 6.289627 -3.703117 6.916576 -0.009825 -0.005909 0.001924
N 6.309295 -3.693107 -3.357808 -0.000559 -0.000002 -0.012775
N 4.730267 -0.966679 1.826907 0.001995 0.012038 0.016364
N 4.741929 -0.963579 6.907720 -0.001877 0.009826 -0.001582
N 4.740327 -0.967229 -3.356079 -0.002011 0.007368 -0.011442
N -3.233697 1.802778 1.795297 -0.005931 0.003334 0.010762
N -3.212790 1.827103 6.884016 -0.001076 0.008871 0.000476
N -3.191175 1.811797 -3.348040 0.011210 0.004672 -0.003808
N -0.037900 -3.676511 1.832703 0.013991 -0.002000 -0.014614
N -0.013032 -3.699877 6.917761 0.010270 -0.006918 0.002998
N -0.009963 -3.677475 -3.327188 0.009821 0.007179 0.009236
N -1.603967 -0.998981 1.796065 -0.000450 0.001071 0.016503
N -1.604868 -0.961440 6.885512 -0.001806 0.008767 -0.013074
N -1.582451 -0.949388 -3.316486 0.009764 0.013045 0.008603
