108
Energy=-1809928.764996 Lattice="9.565021 0.000000 0.000000 -4.791737 8.279614 0.000000 -0.004082 0.004595 15.458273" Stress="-0.000001 -0.000001 -0.000001 -0.000001 -0.000001 0.000001 -0.000001 0.000001 -0.000003" Properties=species:S:1:pos:R:3:forces:R:3
Al 1.563994 0.878814 2.417648 -0.000264 0.001486 -0.001617
Al 1.559116 0.867420 7.584512 0.000560 -0.000482 0.001354
Al 1.563634 0.872427 -2.732770 0.000471 -0.000300 0.001660
Al -0.039105 3.627214 2.430308 0.000136 -0.001108 -0.000613
Al -0.037802 3.627894 7.575883 -0.000313 0.000455 0.000833
Ga -0.017827 3.620074 -2.716750 -0.000258 -0.000326 0.000681
Al 3.167594 -1.878559 2.448311 0.000194 -0.000598 0.000334
Ga 3.144552 -1.876037 7.564782 0.000198 -0.000459 0.000860
Al 3.155679 -1.870935 -2.735662 -0.000152 -0.000168 0.000560
Ga -4.831498 0.872726 2.403736 0.001094 0.000371 0.000011
Al -4.813805 0.892631 7.596459 0.000668 0.000170 0.000331
Ga -4.824769 0.881818 -2.710387 0.001220 0.000055 0.000641
Ga -6.411042 3.627828 2.446045 -0.000149 -0.000660 -0.000191
Ga -6.398023 3.636669 7.571489 0.000336 0.000537 -0.000204
Al -6.402355 3.634632 -2.720976 0.000447 -0.000167 0.000076
Ga -3.212409 -1.864880 2.418565 0.000234 -0.000445 0.000347
Ga -3.203404 -1.872449 7.573411 0.000333 -0.000196 0.000276
Ga -3.199700 -1.881856 -2.696920 0.000013 0.000038 -0.000322
Al -1.599790 0.879478 2.425701 0.000703 0.000166 0.000431
Ga -1.619465 0.895276 7.588203 0.000776 -0.001045 0.000190
Ga -1.600343 0.882934 -2.730673 0.000610 0.000099 0.000849
Ga -3.201861 3.654157 2.459293 0.000533 -0.000717 -0.000790
Al -3.217086 3.646797 7.565556 0.000007 -0.000027 0.000330
Ga -3.223534 3.651098 -2.729997 0.000747 -0.000894 -0.000193
Ga -0.016405 -1.855901 2.446300 0.000214 -0.000435 0.000615
Al -0.004067 -1.865102 7.551454 0.000273 -0.000793 0.001312
Al -0.006046 -1.871724 -2.722848 0.000777 -0.000365 0.000424
Ga -0.022380 1.789784 4.988759 -0.000776 0.000488 0.001692
Al -0.017422 1.788127 -5.321201 -0.000232 0.000524 0.001083
Al -0.015045 1.782892 -0.127601 -0.000209 0.000148 0.001572
Al 3.163149 -3.715805 5.008039 0.000431 0.000336 0.000556
Ga 3.170352 -3.733474 -5.314998 -0.000326 0.000198 0.000137
Ga 3.183202 -3.712131 -0.132401 -0.000315 0.000772 -0.000176
Al 1.565968 -0.965519 4.991247 -0.000232 0.000412 0.001134
Al 1.565073 -0.953895 -5.297866 -0.000614 0.000492 0.001302
Ga 1.584294 -0.947995 -0.156454 -0.001074 0.000753 0.000478
Ga 3.151763 1.786220 5.024809 -0.000618 0.000018 0.000807
Ga 3.152266 1.783495 -5.303941 -0.000083 -0.000278 0.000816
Al 3.141764 1.794413 -0.167803 -0.000055 0.000130 0.000809
Ga 6.348657 -3.715109 5.002586 -0.000535 -0.000608 -0.000388
Ga 6.352837 -3.732988 -5.293947 -0.000373 0.000198 0.000785
Ga 6.361965 -3.729869 -0.135693 0.000072 0.000335 0.000034
Ga 4.752970 -0.962117 5.009320 -0.000689 -0.000018 0.000556
Ga 4.757481 -0.951284 -5.300124 -0.000334 0.000433 0.000242
Al 4.751306 -0.962026 -0.146066 -0.000151 -0.000412 0.000274
Ga -3.213533 1.805276 5.008332 0.000230 0.000184 0.000178
Al -3.211640 1.805225 -5.321836 -0.000248 0.000007 0.000713
Ga -3.207257 1.784621 -0.126881 -0.000160 -0.000061 0.000072
Al -0.007158 -3.695500 5.031164 -0.000145 -0.000230 -0.000254
Ga -0.004351 -3.707365 -5.307923 -0.000100 0.000219 0.000648
Ga -0.032927 -3.713225 -0.160889 -0.000403 0.000112 -0.000036
Al -1.596642 -0.957310 5.008217 -0.000656 0.000307 0.000801
Ga -1.587302 -0.950666 -5.301709 -0.000882 0.000384 0.000791
Al -1.606653 -0.944791 -0.150502 -0.000652 -0.000586 0.000339
N 1.568897 0.834075 4.331295 0.000810 -0.000755 0.000758
N 1.527659 0.843954 -5.943841 0.000092 -0.000139 -0.001060
N 1.557148 0.923415 -0.796451 0.000576 0.000298 -0.001778
N -0.074549 3.657677 4.346400 -0.000637 0.000385 -0.000300
N -0.025521 3.590032 -5.960375 0.000079 -0.000776 -0.001091
N -0.028440 3.581598 -0.740330 0.000065 -0.000877 -0.000313
N 3.126931 -1.903334 4.380604 -0.000543 -0.000341 -0.000680
N 3.121289 -1.856932 -5.913711 -0.000251 -0.000052 0.000018
N 3.204522 -1.859965 -0.817237 0.000619 0.000139 -0.000116
N -4.817729 0.882466 4.370834 0.000654 -0.000092 -0.000776
N -4.770747 0.904274 -5.947245 0.000854 0.000155 -0.000776
N -4.848729 0.856442 -0.723219 -0.000200 0.000578 0.000044
N -6.360012 3.658505 4.425298 0.001021 0.000631 0.000279
N -6.398126 3.639357 -5.923282 0.000253 -0.000132 -0.000261
N -6.405857 3.592954 -0.806370 0.000194 -0.000698 -0.000072
N -3.167606 -1.847639 4.400614 0.000910 0.000436 -0.000544
N -3.200672 -1.878553 -5.915920 0.000271 -0.000075 -0.000593
N -3.207120 -1.832377 -0.713554 0.000251 0.000586 0.000514
N -1.622260 0.834566 4.351753 0.000882 -0.000810 -0.001094
N -1.619720 0.927998 -5.889290 0.000539 0.000044 -0.000392
N -1.575461 0.866068 -0.740270 0.001025 -0.000184 -0.000982
N -3.219972 3.694168 4.434313 -0.000254 -0.000012 0.000601
N -3.217968 3.599652 -5.967669 0.000464 -0.000775 -0.001021
N -3.213183 3.638160 -0.763877 0.000369 -0.000415 0.000394
N -0.024224 -1.874906 4.435109 0.000476 -0.000489 -0.000211
N 0.027913 -1.851219 -5.976047 0.000901 -0.000414 -0.001438
N -0.055953 -1.848523 -0.804665 0.000480 0.000083 0.000097
N -0.019983 1.792820 1.813418 -0.000815 0.001073 -0.000357
N 0.017987 1.818980 6.978951 0.000103 0.000521 -0.000873
N 0.022576 1.772594 -3.399829 0.000187 0.000195 -0.001390
N 3.210947 -3.689876 1.847007 -0.000071 0.000637 0.000403
N 3.172880 -3.766794 6.940518 0.000259 -0.000073 -0.000775
N 3.178255 -3.680822 -3.336602 -0.000153 0.001170 -0.000185
N 1.619219 -0.936577 1.836392 0.000312 -0.001288 -0.000667
N 1.536793 -0.928678 6.917648 -0.001030 0.000986 -0.001733
N 1.574558 -0.959818 -3.349415 -0.000634 0.000309 -0.000921
N 3.110895 1.784060 1.755617 -0.000605 -0.000358 -0.000437
N 3.153774 1.745824 7.006449 -0.000394 -0.000434 -0.000490
N 3.120314 1.817612 -3.316408 -0.000945 0.000393 -0.000443
N 6.318128 -3.745543 1.841512 -0.000288 0.000199 -0.000462
N 6.310298 -3.742995 6.973899 -0.000240 -0.000296 -0.000383
N 6.396654 -3.743484 -3.316369 0.000473 0.000179 -0.000389
N 4.712060 -0.990856 1.773529 -0.000929 -0.000112 -0.000609
N 4.757345 -0.907411 6.982798 -0.000601 0.000170 -0.000537
N 4.728731 -0.982335 -3.326021 -0.000720 -0.000201 -0.000297
N -3.170642 1.782752 1.846098 -0.000280 -0.000306 0.000128
N -3.256949 1.823145 6.989952 -0.000881 0.000490 0.000050
N -3.215820 1.798323 -3.398749 -0.000619 -0.000042 -0.000742
N -0.020461 -3.712726 1.809200 -0.000256 0.000447 0.000227
N 0.022714 -3.688185 6.948947 0.000292 0.000513 0.000081
N -0.057421 -3.690397 -3.317765 -0.001127 0.000729 -0.000041
N -1.605627 -0.911606 1.768476 -0.000550 0.000427 -0.000594
N -1.571324 -0.971121 6.927262 -0.000261 0.000293 -0.000611
N -1.567034 -0.984086 -3.328158 -0.000404 -0.000369 -0.000313
