108
Energy=-985969.886352 Lattice="9.466710 0.000000 0.000000 -4.741650 8.191012 0.000000 -0.002672 -0.005561 15.265301" Stress="0.000011 -0.000003 -0.000000 -0.000003 0.000010 -0.000002 -0.000000 -0.000002 0.000033" Properties=species:S:1:pos:R:3:forces:R:3
Al 1.565000 0.863423 2.416860 -0.005339 0.005016 -0.010227
Al 1.547861 0.867913 7.504336 -0.000639 -0.000150 0.001251
Al 1.553182 0.863754 -2.714866 0.000777 -0.001101 0.000855
Al -0.038702 3.621515 2.452088 0.006341 -0.007577 -0.006471
Al -0.011985 3.593814 7.474328 0.000361 -0.000998 0.000714
Al -0.028688 3.588159 -2.712305 0.000254 0.000027 -0.002009
Al 3.138343 -1.855489 2.387451 0.000857 0.002557 -0.000920
Al 3.143389 -1.859114 7.501668 0.000046 0.000464 0.000668
Al 3.135199 -1.851065 -2.701620 -0.000340 0.002106 -0.000293
Al -4.786540 0.866288 2.387467 0.006953 0.000312 -0.004495
Al -4.762407 0.865157 7.507136 0.000583 -0.000654 0.001708
Al -4.765843 0.871686 -2.705540 -0.000089 -0.001020 0.000520
Al -6.342786 3.600343 2.396055 -0.000642 -0.000536 0.001632
Al -6.346169 3.604923 7.497828 -0.000787 -0.000149 0.000959
Ga -6.329915 3.592983 -2.702546 -0.000365 -0.000812 0.000074
Al -3.168829 -1.863333 2.401675 -0.000271 0.000461 0.000555
Al -3.169189 -1.866739 7.495696 -0.000183 0.000073 0.000395
Ga -3.176379 -1.851033 -2.709950 -0.000521 0.000076 0.000128
Ga -1.614981 0.869576 2.415059 0.001425 -0.001564 -0.001872
Al -1.607047 0.862831 7.484285 0.002147 0.000358 0.000931
Al -1.605553 0.877301 -2.715524 0.000627 -0.000396 0.000478
Ga -3.196840 3.607974 2.423427 -0.001042 -0.001521 -0.002813
Ga -3.193163 3.600123 7.479145 0.001670 -0.000461 0.001132
Al -3.183250 3.597864 -2.703354 -0.000752 0.000673 0.000887
Al 0.002227 -1.850824 2.392289 -0.012045 -0.002582 -0.002406
Al -0.029921 -1.856236 7.496879 0.001148 0.000861 0.001804
Al -0.006444 -1.849268 -2.711625 0.001210 0.000052 0.000085
Al -0.028509 1.782571 4.953643 -0.003465 0.001271 0.003434
Al -0.021087 1.774367 -5.247212 -0.000677 -0.000401 0.000829
Ga -0.026896 1.766057 -0.157299 0.001069 -0.001265 -0.001042
Al 3.142584 -3.692651 4.961181 0.002279 0.002815 0.000465
Ga 3.145947 -3.681224 -5.226483 -0.000345 0.000609 0.000142
Ga 3.130826 -3.676833 -0.163956 -0.001144 -0.000574 -0.001710
Ga 1.552431 -0.960223 4.948034 -0.001282 -0.000990 0.002970
Al 1.559575 -0.945822 -5.244121 -0.001137 0.000891 0.001436
Al 1.566408 -0.954474 -0.171005 -0.002125 0.003209 0.001307
Ga 3.129308 1.794757 4.948410 0.001550 0.001393 0.002379
Al 3.130204 1.781194 -5.253828 0.000078 -0.000685 0.001009
Al 3.142864 1.762804 -0.132495 -0.001577 0.001272 -0.005268
Al 6.299494 -3.680338 4.945518 0.000185 0.000852 -0.000401
Al 6.301497 -3.681741 -5.262421 -0.000229 0.000005 0.001910
Ga 6.296145 -3.680375 -0.125855 0.000304 -0.000846 0.003394
Ga 4.730430 -0.954240 4.949910 0.000706 -0.000436 0.000930
Al 4.719540 -0.940003 -5.252773 -0.000601 0.000946 0.001048
Al 4.716162 -0.932746 -0.150481 -0.000694 0.000598 0.002381
Al -3.179036 1.772822 4.961837 0.000522 0.003128 0.000015
Al -3.187870 1.774676 -5.232949 -0.000049 -0.001618 0.000379
Al -3.193365 1.770904 -0.180274 -0.003628 0.002943 0.003227
Al -0.032636 -3.668112 4.957055 0.001391 -0.001306 -0.002763
Al -0.025543 -3.669795 -5.240413 -0.001282 0.000599 0.001165
Al -0.020762 -3.670055 -0.164039 -0.000383 -0.000497 0.005681
Al -1.595206 -0.954985 4.964261 -0.000719 0.000404 -0.000902
Al -1.590797 -0.945185 -5.255237 -0.000134 0.000975 0.000366
Al -1.593365 -0.950804 -0.164867 0.000287 0.001770 0.004105
N 1.511116 0.893588 4.312268 0.001669 -0.001105 -0.000268
N 1.549490 0.872893 -5.842336 0.000467 -0.000735 -0.000330
N 1.593312 0.850552 -0.785812 0.001782 -0.001961 -0.002078
N -0.027378 3.597612 4.365018 0.000260 0.000377 -0.000122
N 0.013671 3.576833 -5.873278 0.000577 -0.000596 -0.000815
N -0.020347 3.595918 -0.819171 -0.000174 0.000892 -0.000488
N 3.143252 -1.901457 4.305604 -0.001401 -0.001847 -0.002482
N 3.139471 -1.818773 -5.854471 -0.000145 0.000758 -0.000904
N 3.147455 -1.813943 -0.782575 -0.001019 0.001955 0.000597
N -4.721812 0.895741 4.293933 -0.000507 0.000118 0.000265
N -4.756875 0.878754 -5.844970 0.000692 -0.001071 -0.000112
N -4.763284 0.871070 -0.774197 -0.000372 -0.001330 -0.000056
N -6.331967 3.644690 4.314439 -0.000673 0.000067 0.001517
N -6.331477 3.604693 -5.845746 -0.000350 0.000486 -0.000843
N -6.300092 3.577831 -0.727985 -0.000429 -0.002330 0.001336
N -3.129492 -1.878132 4.326273 0.000488 -0.000634 0.000023
N -3.169842 -1.859140 -5.845234 0.000228 0.000398 -0.000776
N -3.175742 -1.821690 -0.731800 -0.000393 0.001764 -0.000272
N -1.607044 0.872037 4.399739 0.001173 -0.001567 0.000736
N -1.608447 0.880850 -5.852399 0.000878 -0.000976 -0.000198
N -1.654600 0.854938 -0.787936 0.003340 -0.003822 -0.003697
N -3.174239 3.608064 4.403857 -0.005154 -0.002548 0.003389
N -3.226015 3.580493 -5.815242 0.001443 -0.000021 0.000679
N -3.236243 3.585898 -0.779629 0.003016 -0.002289 -0.002434
N -0.060349 -1.876509 4.316653 0.001004 -0.000000 -0.001270
N -0.017680 -1.856769 -5.848376 0.000306 0.000078 -0.000804
N -0.017742 -1.857624 -0.779416 0.000495 0.001239 0.000919
N 0.004646 1.799604 1.800844 0.002437 0.005032 0.011902
N -0.021912 1.771796 6.881382 -0.000431 0.000053 -0.000722
N -0.024389 1.775984 -3.317695 -0.000888 -0.000161 -0.000161
N 3.167155 -3.660607 1.807494 0.001167 0.000832 0.004793
N 3.184583 -3.657876 6.875708 -0.001606 0.000148 -0.000858
N 3.141083 -3.673982 -3.248906 -0.000909 -0.002272 0.000346
N 1.557324 -0.935974 1.774683 0.003035 -0.004893 0.000803
N 1.561973 -0.956630 6.931487 -0.001145 0.000613 0.000149
N 1.564840 -0.953753 -3.317532 -0.001299 0.000748 -0.000055
N 3.116217 1.780442 1.782453 0.002089 -0.001480 0.004365
N 3.128718 1.778941 6.935077 -0.000062 -0.000211 0.000226
N 3.128330 1.737207 -3.336252 0.000571 -0.001201 -0.001160
N 6.289786 -3.689398 1.867201 -0.004814 0.001638 -0.002615
N 6.296865 -3.680792 6.876964 0.000308 -0.000139 -0.000861
N 6.257311 -3.703869 -3.347477 -0.000254 0.000153 -0.002609
N 4.717265 -0.955277 1.790298 -0.002179 0.001432 -0.001344
N 4.718224 -0.952076 6.932616 -0.000458 0.000512 0.000303
N 4.677910 -0.928193 -3.335394 -0.001081 0.001634 -0.000506
N -3.219144 1.768895 1.745813 -0.004797 -0.002234 -0.000630
N -3.190727 1.728276 6.872357 -0.000141 -0.000444 -0.001489
N -3.187840 1.779141 -3.308385 0.000825 0.000168 0.000075
N -0.066154 -3.669291 1.780196 0.003703 0.007987 -0.005261
N -0.068488 -3.652595 6.870810 -0.000256 0.000246 -0.002156
N 0.018954 -3.652678 -3.326109 0.000912 0.000849 -0.000545
N -1.609041 -0.982659 1.768024 0.007505 -0.004190 -0.002021
N -1.597734 -0.955812 6.891670 -0.000284 0.000334 -0.001207
N -1.554380 -0.927327 -3.336705 0.000567 0.000970 -0.000029
