108
Energy=-528213.610894 Lattice="9.463450 0.000000 0.000000 -4.735866 8.194369 0.000000 0.044870 -0.018458 15.198558" Stress="0.000095 0.000019 0.000013 0.000019 0.000124 -0.000004 0.000013 -0.000004 0.000110" Properties=species:S:1:pos:R:3:forces:R:3
Al 1.576151 0.884762 2.430221 0.002512 -0.012929 -0.004671
Al 1.582572 0.880308 7.457812 -0.000229 -0.010330 -0.002182
Al 1.541300 0.902353 -2.714445 -0.001580 -0.009538 -0.003165
Al 0.013393 3.596543 2.416143 -0.001719 0.002847 -0.002057
Al 0.017015 3.592971 7.457730 -0.001541 -0.000774 -0.000557
Al -0.025271 3.609846 -2.709515 -0.001977 -0.002326 -0.000760
Al 3.181137 -1.883973 2.423698 -0.002269 0.002201 -0.003812
Al 3.188103 -1.888192 7.456684 -0.001614 0.000989 -0.001590
Al 3.148756 -1.870667 -2.718792 -0.001522 0.000261 -0.001685
Al -4.752615 0.883706 2.418696 0.000190 -0.011178 -0.003627
Al -4.748652 0.882490 7.458118 0.001413 -0.009719 -0.001383
Al -4.790901 0.900201 -2.710728 0.003505 -0.008774 -0.001172
Al -6.317138 3.595570 2.419796 -0.000551 0.000692 -0.002228
Al -6.314202 3.594905 7.458503 -0.000193 0.000023 -0.000285
Al -6.356263 3.611848 -2.709099 -0.000490 -0.000015 0.000773
Al -3.144313 -1.880410 2.418125 -0.013783 -0.004845 0.002731
Al -3.143960 -1.885648 7.457409 -0.000288 0.001690 -0.001078
Al -3.193384 -1.868461 -2.716731 0.001500 0.002442 -0.001348
Al -1.616481 0.884129 2.423814 0.006622 -0.008060 0.002296
Al -1.617186 0.885123 7.458556 0.010495 -0.006013 -0.002877
Al -1.660383 0.904000 -2.725194 0.010412 -0.005345 -0.054764
Al -3.185318 3.599482 2.420857 0.008503 0.005299 -0.003598
Al -3.181804 3.597078 7.458377 0.009120 0.003522 -0.001382
Al -3.223232 3.612775 -2.710353 0.009649 0.001438 -0.001370
Al -0.025111 -1.884031 2.445476 0.010102 0.005169 -0.007195
Al -0.011564 -1.883621 7.459048 0.008886 0.005280 -0.002298
Ga -0.054687 -1.867252 -2.716658 0.009058 0.007558 -0.004670
Al 0.015655 1.785254 4.945078 -0.009464 -0.005089 -0.001351
Al -0.025886 1.801780 -5.229504 -0.008810 -0.005240 -0.001292
Al -0.022634 1.802551 -0.169731 -0.008420 -0.005052 -0.001385
Al 3.187249 -3.697464 4.944107 -0.009101 -0.003069 -0.001655
Al 3.144076 -3.680463 -5.228308 -0.009127 -0.003659 -0.001644
Al 3.147923 -3.678048 -0.177176 -0.008101 -0.003911 0.010367
Al 1.622003 -0.984426 4.947286 -0.010437 0.005692 -0.004347
Al 1.580824 -0.965053 -5.230694 -0.011109 0.005979 -0.003778
Al 1.584265 -0.966759 -0.214205 -0.009833 0.006126 0.020729
Al 3.147626 1.786458 4.944139 0.000309 -0.001521 -0.000906
Al 3.105428 1.803780 -5.228097 0.000210 -0.001937 -0.000574
Al 3.110081 1.803327 -0.177077 0.002487 -0.002262 0.011423
Al 6.318128 -3.694811 4.942729 0.000019 0.001272 -0.000518
Al 6.275380 -3.677935 -5.227885 -0.000072 0.000162 -0.000200
Al 6.281076 -3.673109 -0.175050 0.002060 -0.000601 0.012109
Al 4.753795 -0.981620 4.943806 -0.000757 0.008760 -0.001966
Al 4.710277 -0.964010 -5.229716 -0.001305 0.009877 -0.001695
Al 4.708638 -0.965822 -0.181048 -0.000177 0.010334 0.011867
Al -3.182813 1.788225 4.942284 0.001878 -0.001184 -0.001076
Al -3.226400 1.806243 -5.229869 0.001374 -0.000807 0.000371
Al -3.211124 1.800727 -0.182667 -0.001529 0.000079 0.003289
Al -0.012678 -3.694903 4.946967 0.001277 0.000718 -0.001032
Al -0.055177 -3.677795 -5.229986 0.001744 0.001401 -0.001271
Al -0.048540 -3.677446 -0.172782 0.001832 0.001025 0.012643
Al -1.577751 -0.979987 4.948002 -0.000916 0.010146 -0.003848
Al -1.623047 -0.961291 -5.232224 0.000629 0.010011 -0.001716
Ga -1.628297 -0.915417 -0.222230 0.001126 0.004466 0.020520
N 1.579763 0.883702 4.350929 -0.000268 -0.009567 0.000595
N 1.539049 0.898859 -5.824785 0.000259 -0.010094 0.001847
N 1.542151 0.900415 -0.790716 -0.001767 -0.010355 0.005371
N 0.015672 3.595046 4.343362 -0.001231 -0.001211 -0.002256
N -0.026584 3.611505 -5.824561 -0.001198 0.000044 0.000014
N -0.021930 3.612542 -0.780731 -0.001153 -0.001113 0.002576
N 3.187878 -1.887872 4.347841 -0.001751 0.000841 -0.000877
N 3.144286 -1.869906 -5.825676 -0.001528 0.000521 0.000232
N 3.147361 -1.870963 -0.797602 -0.001891 0.000278 0.003585
N -4.750674 0.882618 4.344245 0.001308 -0.009167 0.000342
N -4.793197 0.900323 -5.824196 0.000866 -0.010072 0.002066
N -4.786639 0.899058 -0.785261 -0.000085 -0.009505 0.005243
N -6.315989 3.595559 4.345083 0.000073 -0.000263 -0.000997
N -6.358489 3.612804 -5.824549 -0.000292 0.000038 0.000747
N -6.352663 3.615281 -0.782226 0.000003 -0.000015 0.001872
N -3.144486 -1.884521 4.344359 -0.001802 0.000200 0.000896
N -3.188861 -1.868066 -5.825767 -0.000798 0.000645 0.000179
N -3.195869 -1.866455 -0.794996 -0.013763 -0.008102 -0.002443
N -1.617313 0.885933 4.347757 0.011038 -0.004671 0.003113
N -1.661455 0.903458 -5.824503 0.010722 -0.005957 0.003668
N -1.699127 0.921711 -0.985190 0.019167 0.008294 0.092195
N -3.182995 3.598322 4.345575 0.009004 0.003390 0.000331
N -3.225666 3.615393 -5.824877 0.009425 0.004284 0.001741
N -3.219502 3.614148 -0.784633 0.008653 0.005158 0.005278
N -0.013644 -1.886793 4.357874 0.008828 0.005324 0.002496
N -0.055744 -1.865366 -5.823354 0.009060 0.004686 0.001530
N -0.052507 -1.862489 -0.785703 0.022891 -0.002773 0.018891
N 0.014624 1.786497 1.814277 -0.014564 -0.007303 -0.014208
N 0.016710 1.783735 6.862865 -0.008656 -0.004942 0.001508
N -0.024661 1.802164 -3.313329 -0.006311 -0.004161 0.000374
N 3.181617 -3.693650 1.810710 -0.009733 -0.003892 -0.009315
N 3.187510 -3.698455 6.862142 -0.009186 -0.003923 0.001551
N 3.145176 -3.681350 -3.310420 -0.009106 -0.003360 0.003608
N 1.605519 -0.977326 1.854931 -0.011160 0.005617 -0.018754
N 1.622842 -0.984715 6.864101 -0.010568 0.006225 0.003607
N 1.590815 -0.960472 -3.315933 0.001959 0.013086 0.001175
N 3.144364 1.786294 1.813113 -0.001387 -0.000125 -0.011291
N 3.149410 1.786030 6.862060 0.000500 -0.001192 -0.000470
N 3.107146 1.804926 -3.308733 0.000629 -0.001427 0.001202
N 6.318535 -3.691032 1.810503 -0.002732 -0.001176 -0.010796
N 6.319215 -3.695418 6.861297 0.000133 -0.000271 0.000055
N 6.275772 -3.678450 -3.309615 0.000518 -0.000169 0.001843
N 4.750062 -0.978554 1.809932 -0.004094 0.009468 -0.009679
N 4.754674 -0.981722 6.861837 -0.001363 0.010088 0.001820
N 4.710603 -0.964279 -3.313002 -0.001762 0.010353 0.002814
N -3.184404 1.788474 1.812044 0.005196 -0.001959 -0.016059
N -3.182273 1.787883 6.861366 0.001524 -0.000867 -0.000821
N -3.225323 1.806055 -3.312169 -0.001667 0.000869 -0.004295
N -0.016785 -3.690030 1.820072 0.000645 0.000413 -0.012383
N -0.011818 -3.694635 6.863578 0.001274 0.000203 -0.000123
N -0.053890 -3.688314 -3.314271 0.001509 -0.016044 -0.004450
N -1.621691 -1.001294 1.887668 0.017970 0.026687 -0.020593
N -1.577569 -0.979884 6.864219 0.000161 0.010243 0.001797
N -1.631465 -0.958024 -3.319078 -0.013496 0.015440 -0.005459
