108
Energy=-1443724.745125 Lattice="9.517334 0.000000 0.000000 -4.763189 8.238799 0.000000 -0.006561 0.006588 15.365430" Stress="-0.000000 -0.000001 -0.000002 -0.000001 -0.000002 0.000001 -0.000002 0.000001 0.000003" Properties=species:S:1:pos:R:3:forces:R:3
Al 1.564488 0.885699 2.435497 -0.000724 -0.000934 0.000142
Al 1.550047 0.875342 7.509356 -0.000298 -0.000481 0.000440
Al 1.567310 0.877741 -2.712892 0.000231 -0.000160 -0.000018
Al -0.026851 3.614472 2.427041 0.000045 0.001016 0.000579
Al -0.042702 3.604786 7.512130 0.000061 -0.000002 0.000180
Al -0.003668 3.615726 -2.694732 -0.000155 0.000110 0.000327
Al 3.153058 -1.866774 2.430239 0.000009 -0.000205 -0.000450
Ga 3.129039 -1.864331 7.545488 -0.000047 0.000001 0.000189
Ga 3.157636 -1.854193 -2.729692 0.000078 0.000020 0.000027
Ga -4.798052 0.875415 2.415343 0.000202 -0.000098 0.000374
Al -4.779631 0.891332 7.536177 -0.000193 -0.000110 -0.000780
Al -4.788153 0.869553 -2.712816 0.001616 -0.000445 0.000683
Ga -6.383067 3.608873 2.393463 -0.000062 0.000208 0.000446
Ga -6.367840 3.612160 7.551108 -0.000031 0.000058 0.000057
Al -6.369728 3.623418 -2.703174 0.000914 0.000466 -0.000043
Ga -3.195931 -1.866423 2.390003 0.000074 -0.000110 0.000336
Ga -3.185864 -1.853027 7.554773 -0.000240 -0.000142 0.000273
Al -3.188332 -1.870460 -2.706654 0.000630 0.000793 0.000022
Al -1.597346 0.874356 2.440279 -0.000004 -0.000330 0.000023
Al -1.611348 0.884003 7.525202 -0.000141 0.000125 0.000070
Ga -1.606477 0.863709 -2.729295 0.000033 -0.000240 0.000049
Ga -3.182218 3.625033 2.434446 -0.000165 0.000054 0.000115
Al -3.193401 3.613225 7.535449 -0.000349 -0.000467 0.000354
Ga -3.214900 3.618329 -2.720536 0.000042 -0.000105 -0.000199
Ga -0.020740 -1.850625 2.418239 -0.000243 -0.000053 0.000322
Al -0.020639 -1.843545 7.541936 0.000723 -0.001583 0.000326
Al -0.030165 -1.871323 -2.725288 -0.000713 -0.000135 0.000432
Al -0.031583 1.784067 4.968987 0.000073 0.000132 0.000211
Ga -0.025436 1.774018 -5.287778 0.000058 0.000235 0.000267
Ga -0.009286 1.788851 -0.125568 -0.000298 0.000041 -0.000062
Al 3.148913 -3.706436 4.982040 0.000055 -0.000055 0.000257
Ga 3.145552 -3.708903 -5.278075 -0.000353 -0.000187 -0.000010
Ga 3.167412 -3.694732 -0.135314 -0.000265 0.000332 0.000057
Al 1.558211 -0.941280 4.971062 0.000016 0.000008 0.001092
Al 1.548098 -0.954822 -5.274543 0.000024 -0.000345 0.000492
Ga 1.564391 -0.949896 -0.144771 -0.000348 -0.000015 0.000367
Al 3.138000 1.779037 4.993888 0.000034 -0.000025 0.000168
Ga 3.163578 1.769357 -5.259990 0.000006 0.000025 0.000309
Al 3.147908 1.793325 -0.180957 0.000418 0.000014 -0.000186
Ga 6.311625 -3.708814 4.978954 -0.000099 0.000091 -0.000150
Ga 6.325011 -3.693975 -5.241079 -0.000042 0.000054 0.000381
Al 6.334447 -3.695928 -0.176145 -0.000005 0.000061 -0.000008
Ga 4.726481 -0.945017 4.980484 -0.000178 -0.000040 0.000226
Al 4.751431 -0.937245 -5.263868 -0.000427 -0.000008 -0.000220
Al 4.746777 -0.951939 -0.158800 -0.000064 0.000065 0.000162
Al -3.187341 1.788521 4.996830 0.000034 -0.000223 0.000035
Al -3.202643 1.771682 -5.294166 -0.000586 0.002223 -0.000626
Ga -3.208980 1.777409 -0.144564 0.000141 -0.000065 0.000106
Ga -0.013442 -3.694567 5.005021 0.000074 0.000196 0.000164
Al -0.010721 -3.686085 -5.280743 0.000353 -0.000262 0.000874
Al -0.042006 -3.693936 -0.167684 -0.000020 -0.000006 -0.000077
Al -1.597260 -0.930952 4.993671 -0.000247 0.000027 0.000088
Al -1.598221 -0.960393 -5.271402 0.000079 0.000287 0.000180
Al -1.613814 -0.967358 -0.167539 0.000064 -0.000233 0.000301
N 1.564080 0.883083 4.366660 0.000045 -0.000146 -0.000289
N 1.567787 0.825760 -5.937426 0.000106 0.000273 -0.000523
N 1.596777 0.895346 -0.806098 0.000115 0.000012 -0.000240
N -0.069882 3.598729 4.348391 0.000081 -0.000168 -0.000454
N -0.019958 3.617738 -5.949092 0.000261 -0.000033 -0.000275
N 0.015017 3.636558 -0.789515 0.000141 -0.000032 0.000101
N 3.105783 -1.894141 4.355739 0.000047 0.000296 -0.000371
N 3.150474 -1.820685 -5.835794 0.000111 0.000094 -0.000006
N 3.190346 -1.843957 -0.761008 0.000187 0.000082 -0.000138
N -4.787044 0.931269 4.393927 0.000315 0.000102 -0.000044
N -4.743859 0.851538 -5.918789 0.000221 -0.000302 0.000981
N -4.819967 0.849511 -0.791256 -0.000170 0.000122 0.000107
N -6.368506 3.574113 4.375498 0.000189 -0.000127 -0.000207
N -6.330348 3.638517 -5.847991 -0.000235 -0.000187 -0.000344
N -6.365971 3.622823 -0.772795 -0.000071 -0.000144 -0.000120
N -3.149862 -1.841589 4.369984 0.000243 0.000159 -0.000110
N -3.188706 -1.825980 -5.838554 -0.000120 -0.000149 -0.000371
N -3.194011 -1.865095 -0.770663 -0.000011 -0.000066 -0.000135
N -1.615254 0.875540 4.371439 0.000288 -0.000227 -0.000217
N -1.649806 0.845827 -5.911634 0.000632 -0.000547 -0.000330
N -1.605573 0.832466 -0.759773 0.000178 -0.000049 -0.000175
N -3.162658 3.597922 4.410095 0.000084 0.000103 -0.000199
N -3.237537 3.592995 -5.906400 0.000056 -0.000772 0.000425
N -3.236866 3.646446 -0.746439 -0.000094 -0.000242 -0.000010
N -0.029023 -1.820977 4.394298 0.000099 0.000110 -0.000316
N -0.019061 -1.864351 -5.894780 -0.000126 -0.000325 0.000151
N -0.059829 -1.889337 -0.795611 0.000155 -0.000099 -0.000112
N -0.021778 1.790174 1.868965 0.000292 -0.000656 -0.000411
N -0.029870 1.788963 6.903608 -0.000039 0.000022 -0.000113
N 0.021030 1.814523 -3.309219 0.000307 0.000170 0.000021
N 3.198161 -3.673951 1.843333 -0.000170 -0.000275 -0.000458
N 3.145506 -3.742037 6.907450 0.000410 0.000325 -0.000512
N 3.197197 -3.733884 -3.309789 0.000256 0.000116 0.000099
N 1.607741 -0.924434 1.839811 -0.000145 0.000482 -0.000249
N 1.519562 -0.929557 6.893224 0.000122 0.000442 -0.001004
N 1.515025 -0.928994 -3.349594 0.000389 0.000473 -0.000349
N 3.101274 1.762635 1.738004 0.000254 0.000215 -0.000091
N 3.142807 1.744205 6.910041 0.000593 0.000079 -0.000155
N 3.155630 1.787297 -3.273517 -0.001710 0.000452 -0.000031
N 6.278398 -3.726652 1.748107 -0.000139 -0.000066 0.000035
N 6.280651 -3.719354 6.944944 0.000072 0.000028 -0.000368
N 6.325769 -3.701848 -3.256676 -0.000163 -0.000163 -0.000145
N 4.693473 -0.974756 1.760884 -0.000162 0.000103 0.000096
N 4.730312 -0.907927 6.944368 0.000011 0.000206 -0.000308
N 4.787103 -0.927346 -3.346520 -0.000056 -0.000088 -0.000154
N -3.152994 1.764529 1.825914 -0.000318 -0.000027 -0.000142
N -3.197160 1.791882 6.924615 0.000051 -0.000162 -0.000376
N -3.238520 1.763470 -3.376724 -0.000337 -0.000293 0.000240
N -0.018999 -3.696481 1.747630 -0.000124 0.000093 -0.000299
N 0.019083 -3.669261 6.976507 -0.000384 0.000869 -0.000023
N -0.061165 -3.673777 -3.354108 -0.000340 -0.000323 -0.000277
N -1.604522 -0.902402 1.749065 -0.000078 0.000232 -0.000306
N -1.567807 -0.926061 6.910367 -0.000444 0.000497 -0.000273
N -1.604231 -1.006749 -3.353602 -0.000669 -0.000065 0.000101
