108
Energy=-1.123296e+06 Lattice="9.476364e+00 0.000000e+00 0.000000e+00 -4.739352e+00 8.203317e+00 0.000000e+00 -1.957151e-03 -3.473500e-02 1.527533e+01" Stress="8.159948e-05 -8.640559e-05 -8.736531e-05 -8.728130e-05 -4.913264e-04 -1.506239e-03 -9.189747e-05 -1.511114e-03 5.852373e-04" Properties=species:S:1:pos:R:3:forces:R:3 Config_type=AlGaN_super3_15_1_28.xyz
Al 1.554127e+00 8.674274e-01 2.398952e+00 1.889857e-04 1.443170e-04 -6.742620e-05
Al 1.554210e+00 8.577247e-01 7.463424e+00 -2.250397e-05 -1.945560e-05 -2.870517e-04
Al 1.559333e+00 8.779886e-01 -2.670099e+00 4.033237e-05 -2.777413e-05 4.455801e-05
Al -3.893761e-02 3.597825e+00 2.386424e+00 -1.184964e-04 -3.865762e-05 -1.685850e-04
Al -2.272848e-02 3.579829e+00 7.472713e+00 1.243134e-04 1.469345e-05 -4.725782e-05
Al -1.622593e-02 3.615989e+00 -2.664651e+00 -1.075662e-04 -3.842154e-05 1.924802e-05
Al 3.129662e+00 -1.878364e+00 2.379924e+00 1.119939e-04 5.012894e-05 1.468336e-04
Al 3.131821e+00 -1.875580e+00 7.497985e+00 -2.826371e-06 9.456888e-05 -8.182538e-05
Ga 3.138277e+00 -1.845551e+00 -2.682389e+00 -2.718652e-05 -3.970092e-05 -5.857288e-06
Al -4.766855e+00 8.686182e-01 2.415600e+00 -1.015221e-04 5.969716e-05 -5.065432e-05
Al -4.762160e+00 8.586860e-01 7.481426e+00 -1.283684e-04 3.120117e-05 -1.111247e-04
Al -4.756974e+00 8.793761e-01 -2.699131e+00 5.290189e-05 5.696443e-05 7.660311e-05
Ga -6.335468e+00 3.594735e+00 2.384973e+00 7.606302e-05 -1.748022e-04 -5.386330e-05
Al -6.340064e+00 3.585329e+00 7.485790e+00 4.676411e-05 -7.099300e-05 -2.589859e-06
Ga -6.346079e+00 3.614410e+00 -2.673846e+00 2.902866e-05 1.026204e-05 3.367521e-05
Al -3.175277e+00 -1.860679e+00 2.401273e+00 -1.813352e-04 1.724559e-04 -1.381262e-05
Ga -3.176546e+00 -1.876366e+00 7.502809e+00 -4.088800e-05 -1.730421e-05 -3.396806e-05
Al -3.184442e+00 -1.855987e+00 -2.707834e+00 3.589088e-05 1.775212e-05 -2.049302e-05
Al -1.594099e+00 8.624392e-01 2.401769e+00 9.163629e-05 -7.167466e-05 1.680316e-05
Al -1.598243e+00 8.543932e-01 7.469233e+00 -1.384278e-05 8.264938e-05 -4.619204e-06
Ga -1.608367e+00 8.832027e-01 -2.680212e+00 2.316540e-05 -5.442954e-05 -1.284493e-05
Al -3.171365e+00 3.609712e+00 2.422292e+00 -6.246522e-05 7.635781e-05 -2.427563e-05
Ga -3.185096e+00 3.584681e+00 7.465926e+00 -2.039401e-05 -1.154307e-05 5.465508e-06
Al -3.184790e+00 3.605978e+00 -2.694319e+00 -3.682818e-05 4.675752e-06 2.529208e-05
Al -2.456160e-02 -1.862801e+00 2.389094e+00 8.101402e-05 -1.516583e-04 -2.257286e-04
Al -2.402379e-02 -1.874476e+00 7.490218e+00 8.850775e-05 2.146539e-05 -5.282570e-06
Ga -1.989000e-02 -1.849840e+00 -2.683286e+00 8.692148e-07 -4.356068e-05 5.422435e-05
Al -3.379025e-02 1.772793e+00 4.932339e+00 5.040166e-05 -1.687800e-04 4.032912e-05
Ga -2.157576e-02 1.791113e+00 -5.245836e+00 -6.037397e-05 3.274139e-05 -4.100684e-06
Al -8.110186e-03 1.786802e+00 -1.313281e-01 6.229178e-05 -7.766611e-05 -4.382247e-05
Al 3.133787e+00 -3.707743e+00 4.934252e+00 -1.707161e-04 2.867441e-04 -5.894391e-05
Ga 3.139989e+00 -3.671073e+00 -5.235771e+00 6.245376e-06 2.518302e-05 1.606639e-05
Al 3.131349e+00 -3.693851e+00 -1.394964e-01 -3.549454e-05 -8.395992e-05 3.169251e-05
Ga 1.546192e+00 -9.672832e-01 4.934809e+00 3.678089e-05 1.152547e-05 1.398175e-05
Al 1.551086e+00 -9.379653e-01 -5.266971e+00 6.125073e-05 -5.124473e-05 -1.816162e-05
Al 1.544201e+00 -9.395981e-01 -1.120257e-01 -5.501776e-05 -8.631171e-05 -4.701593e-05
Al 3.140154e+00 1.775970e+00 4.956728e+00 -3.211244e-05 -1.534855e-05 -6.551843e-05
Ga 3.143027e+00 1.792284e+00 -5.250023e+00 -1.289321e-05 -4.463474e-06 -4.554101e-06
Al 3.123625e+00 1.777356e+00 -1.474185e-01 -6.287738e-06 7.999501e-05 2.156215e-04
Ga 6.293751e+00 -3.707864e+00 4.937797e+00 5.199806e-05 -9.111541e-06 5.532055e-05
Al 6.299795e+00 -3.665456e+00 -5.241126e+00 -2.552169e-04 3.021552e-05 -7.374218e-05
Al 6.289510e+00 -3.680985e+00 -1.373594e-01 9.700053e-05 -1.576360e-04 3.822663e-06
Ga 4.712227e+00 -9.551531e-01 4.933374e+00 -6.034604e-05 -4.043153e-05 -3.481769e-05
Al 4.724530e+00 -9.313633e-01 -5.241403e+00 -1.103086e-04 -1.358401e-04 -3.650805e-05
Ga 4.722668e+00 -9.509111e-01 -1.286237e-01 -5.384171e-05 -2.767906e-05 -4.281018e-05
Al -3.176047e+00 1.772519e+00 4.919130e+00 -4.879945e-05 -1.315996e-05 -5.946182e-05
Al -3.186946e+00 1.784601e+00 -5.244855e+00 9.454622e-05 3.223070e-05 -5.718187e-05
Ga -3.184969e+00 1.799901e+00 -1.179601e-01 -1.664462e-05 -3.076339e-06 -6.679580e-05
Al -1.928624e-02 -3.694549e+00 4.938862e+00 -1.447198e-05 -5.904399e-05 -4.267183e-05
Al -2.755059e-02 -3.663149e+00 -5.252276e+00 2.043788e-05 -6.239481e-06 1.518438e-05
Al -1.252715e-02 -3.677465e+00 -1.303753e-01 -1.083708e-05 7.642801e-05 1.769166e-05
Al -1.590066e+00 -9.539628e-01 4.933889e+00 3.788753e-05 2.056136e-05 1.147270e-04
Al -1.601066e+00 -9.423930e-01 -5.252910e+00 1.457106e-06 3.238496e-05 1.049638e-05
Al -1.597337e+00 -9.612472e-01 -1.249058e-01 2.767328e-04 -1.553532e-04 -7.915283e-05
N 1.558705e+00 9.128561e-01 4.321100e+00 -6.536209e-05 2.806721e-06 5.588598e-05
N 1.556462e+00 8.446767e-01 -5.909019e+00 4.061933e-05 -2.454696e-05 2.000357e-04
N 1.552855e+00 8.675081e-01 -7.471859e-01 4.164477e-05 2.282879e-05 -1.784712e-06
N -6.833876e-02 3.569574e+00 4.302497e+00 8.210858e-05 4.904652e-05 1.420003e-04
N 1.728683e-02 3.640992e+00 -5.896179e+00 6.548268e-05 3.646182e-05 1.624810e-04
N -2.190863e-02 3.608519e+00 -7.408110e-01 3.446585e-05 -3.494090e-06 -5.704766e-06
N 3.131389e+00 -1.924737e+00 4.287119e+00 3.302491e-05 -1.098596e-04 -1.942453e-04
N 3.140336e+00 -1.804968e+00 -5.859475e+00 2.155750e-05 9.781499e-05 1.709406e-04
N 3.090256e+00 -1.878101e+00 -7.025567e-01 5.756204e-05 3.797770e-05 -9.190389e-05
N -4.769388e+00 9.129726e-01 4.321482e+00 9.970266e-05 7.136378e-06 -8.725766e-05
N -4.717687e+00 8.633896e-01 -5.878982e+00 5.915012e-06 6.536638e-05 9.536279e-05
N -4.795306e+00 8.975487e-01 -7.898786e-01 7.286429e-05 -3.109137e-05 -8.658069e-05
N -6.297781e+00 3.568618e+00 4.356646e+00 -2.192517e-05 6.391612e-05 4.043886e-05
N -6.340689e+00 3.666982e+00 -5.867769e+00 1.710707e-04 -4.934626e-05 -6.490219e-05
N -6.339895e+00 3.612474e+00 -6.849052e-01 -8.189656e-05 6.691547e-05 -1.096133e-04
N -3.136734e+00 -1.850251e+00 4.306522e+00 2.246423e-05 -3.255735e-05 1.390053e-05
N -3.179726e+00 -1.848718e+00 -5.797300e+00 -3.642665e-06 1.447598e-05 1.248150e-05
N -3.137482e+00 -1.882174e+00 -7.815583e-01 -8.912278e-05 -3.930748e-05 1.334576e-05
N -1.596614e+00 8.578664e-01 4.324293e+00 3.183730e-05 2.984489e-05 1.222384e-05
N -1.642017e+00 8.639449e-01 -5.879048e+00 -4.677160e-05 -2.784437e-05 4.591537e-05
N -1.564079e+00 8.499226e-01 -7.029660e-01 -6.357292e-05 8.024596e-05 -2.676134e-05
N -3.182256e+00 3.601063e+00 4.345860e+00 1.398153e-05 3.720096e-06 1.785886e-05
N -3.221758e+00 3.593575e+00 -5.832788e+00 -4.214669e-05 -1.537191e-05 -3.685423e-05
N -3.186128e+00 3.653046e+00 -7.777694e-01 4.113499e-05 -7.258041e-06 3.406585e-05
N -6.559092e-02 -1.898303e+00 4.301659e+00 -8.167173e-05 7.417192e-05 1.417594e-04
N -2.447389e-02 -1.849169e+00 -5.860742e+00 1.234388e-05 -3.493409e-05 3.445607e-05
N -2.069975e-02 -1.857190e+00 -6.981131e-01 -7.644640e-05 -6.086906e-06 9.959260e-06
N -1.936952e-02 1.777608e+00 1.789773e+00 -4.312391e-05 4.853622e-05 4.231739e-05
N -2.689275e-02 1.766843e+00 6.860146e+00 -3.205673e-05 6.669409e-05 -4.491322e-05
N 2.112021e-02 1.816417e+00 -3.263750e+00 -6.472650e-05 9.954713e-05 -1.053837e-05
N 3.131168e+00 -3.699412e+00 1.779881e+00 6.012382e-07 4.196762e-06 6.460583e-05
N 3.179148e+00 -3.674391e+00 6.854466e+00 -2.465840e-05 -7.992114e-05 1.740351e-05
N 3.141997e+00 -3.725365e+00 -3.259884e+00 6.932646e-05 -1.881215e-05 -2.640478e-05
N 1.552431e+00 -9.487901e-01 1.805453e+00 1.378914e-05 5.399235e-05 6.974734e-05
N 1.555468e+00 -9.732460e-01 6.917004e+00 -7.216211e-05 5.277695e-05 4.974080e-05
N 1.554956e+00 -8.910906e-01 -3.349456e+00 1.689406e-05 -5.600037e-05 -2.112808e-05
N 3.135625e+00 1.723159e+00 1.762266e+00 -4.447261e-05 -1.855273e-04 6.667886e-05
N 3.138952e+00 1.767526e+00 6.880640e+00 -1.774824e-05 7.434945e-05 2.637618e-05
N 3.132239e+00 1.745390e+00 -3.270531e+00 2.267790e-05 3.196447e-05 1.759473e-05
N 6.248913e+00 -3.663699e+00 1.778545e+00 1.442166e-04 5.504348e-05 -3.591733e-05
N 6.295321e+00 -3.747309e+00 6.905268e+00 -1.495514e-04 7.372766e-05 -5.733995e-05
N 6.251848e+00 -3.660394e+00 -3.317359e+00 4.201921e-05 6.715090e-07 1.033872e-04
N 4.719621e+00 -9.520462e-01 1.849677e+00 -6.719793e-05 -9.828848e-06 1.224776e-04
N 4.673596e+00 -9.464959e-01 6.905962e+00 3.774072e-05 -2.956226e-05 2.014687e-05
N 4.754241e+00 -9.172709e-01 -3.318763e+00 -2.822202e-05 -1.010767e-04 -4.866067e-05
N -3.183026e+00 1.783313e+00 1.862937e+00 -1.031256e-04 -5.542905e-05 3.447747e-05
N -3.180808e+00 1.714822e+00 6.836584e+00 1.059594e-04 6.754013e-05 5.288007e-05
N -3.220276e+00 1.812560e+00 -3.323542e+00 -6.220304e-06 1.926254e-06 5.467797e-05
N 2.936475e-02 -3.669333e+00 1.778760e+00 3.204494e-05 5.886249e-05 9.741050e-05
N -6.479297e-02 -3.672365e+00 6.854820e+00 -2.133943e-05 3.645576e-05 9.280489e-05
N 1.410334e-02 -3.696864e+00 -3.338442e+00 -3.291228e-05 -1.027474e-05 -1.146244e-06
N -1.604826e+00 -9.558845e-01 1.790350e+00 -4.453271e-05 -4.149443e-08 2.114398e-05
N -1.558853e+00 -9.452316e-01 6.853804e+00 3.778035e-06 -8.926388e-05 -1.820926e-04
N -1.636507e+00 -9.628112e-01 -3.342884e+00 6.869186e-06 2.854425e-05 -2.835099e-05
