108
Energy=-8.028671e+05 Lattice="9.462993e+00 0.000000e+00 0.000000e+00 -4.741823e+00 8.180507e+00 0.000000e+00 -2.728340e-03 -1.797451e-03 1.522868e+01" Stress="5.465506e-03 1.743826e-03 -5.194369e-04 1.741117e-03 3.508887e-03 -9.912738e-04 -5.195846e-04 -9.981495e-04 1.106970e-02" Properties=species:S:1:pos:R:3:forces:R:3 Config_type=AlGaN_super3_8_0_4.xyz
Al 1.549608e+00 8.765913e-01 2.384796e+00 1.721572e-03 -3.661150e-03 2.273567e-03
Al 1.547868e+00 8.743933e-01 7.448548e+00 2.130315e-03 -4.602953e-03 -7.418604e-04
Al 1.554218e+00 8.472651e-01 -2.700082e+00 2.282273e-03 2.315963e-02 1.205833e-02
Al -3.786556e-02 3.585353e+00 2.373850e+00 3.900996e-03 8.367290e-04 6.982631e-03
Al -1.618052e-02 3.590836e+00 7.459650e+00 -1.646837e-03 1.093538e-04 -3.818935e-04
Al -3.087550e-02 3.581178e+00 -2.693253e+00 1.089622e-03 -1.348607e-03 1.725582e-03
Al 3.149242e+00 -1.862890e+00 2.388733e+00 -1.108469e-02 -7.026142e-03 9.813900e-03
Al 3.150843e+00 -1.864705e+00 7.438635e+00 -1.107541e-03 -1.532650e-05 -1.428325e-03
Al 3.092350e+00 -1.866292e+00 -2.673283e+00 2.587754e-02 -3.213122e-03 5.766114e-03
Al -4.763392e+00 8.660571e-01 2.386656e+00 -8.500011e-04 6.798384e-03 5.097897e-03
Al -4.769007e+00 8.913455e-01 7.449917e+00 1.800260e-03 -4.560038e-03 -1.154175e-04
Al -4.754271e+00 8.463922e-01 -2.728826e+00 -3.476967e-03 1.453267e-02 1.807738e-02
Al -6.331246e+00 3.591473e+00 2.377542e+00 8.761418e-03 -3.532258e-03 8.993226e-03
Al -6.341685e+00 3.598175e+00 7.462303e+00 1.728131e-03 -7.940697e-04 -6.508694e-04
Al -6.332307e+00 3.570125e+00 -2.700039e+00 -2.725036e-03 -3.600014e-03 5.526066e-03
Al -3.168421e+00 -1.843059e+00 2.439440e+00 8.026561e-04 -4.485893e-03 1.228618e-04
Al -3.165999e+00 -1.851169e+00 7.451910e+00 2.480391e-05 -1.629439e-03 6.451221e-04
Al -3.147680e+00 -1.865886e+00 -2.707010e+00 -1.487528e-02 2.885197e-03 -5.532173e-03
Al -1.622580e+00 8.890085e-01 2.383453e+00 4.913210e-03 -2.353322e-03 4.516012e-05
Al -1.625964e+00 8.969102e-01 7.450475e+00 5.532224e-03 -2.862145e-03 -8.453608e-04
Al -1.623118e+00 8.523033e-01 -2.702553e+00 4.018478e-03 2.483668e-02 1.162781e-02
Al -3.195927e+00 3.607681e+00 2.374053e+00 2.380833e-03 3.016874e-04 9.225691e-04
Al -3.194462e+00 3.605523e+00 7.442481e+00 4.715764e-03 -5.210263e-04 2.725146e-04
Al -3.198551e+00 3.583432e+00 -2.679076e+00 9.996801e-03 -5.162989e-03 7.162299e-03
Al -2.669364e-02 -1.851791e+00 2.391082e+00 4.554225e-03 -1.622270e-03 -5.267208e-04
Al -2.214985e-02 -1.851398e+00 7.435299e+00 7.441296e-03 1.240946e-03 5.165002e-03
Ga -3.097118e-02 -1.843612e+00 -2.630166e+00 6.097934e-03 6.124530e-04 -9.477127e-04
Al -2.296958e-02 1.776406e+00 4.923098e+00 -2.622763e-03 4.569632e-04 4.616838e-04
Al -1.236303e-02 1.778986e+00 -5.246892e+00 -4.715513e-03 -1.227070e-03 4.402686e-03
Al -3.342722e-02 1.764445e+00 -1.350633e-01 -2.845744e-03 -1.977765e-03 -1.453206e-02
Al 3.148697e+00 -3.684619e+00 4.924024e+00 -3.537268e-03 9.300925e-04 -1.098326e-04
Ga 3.145406e+00 -3.691495e+00 -5.240392e+00 -3.370535e-03 9.654722e-04 2.615223e-03
Al 3.137127e+00 -3.695739e+00 -1.191271e-01 -4.333975e-03 1.088299e-03 -1.879450e-02
Al 1.584733e+00 -9.613306e-01 4.920829e+00 -4.625068e-03 3.065180e-03 -3.176069e-03
Al 1.536776e+00 -9.575186e-01 -5.248356e+00 2.701107e-02 1.597824e-02 1.475962e-02
Al 1.567509e+00 -9.663550e-01 -1.449199e-01 -2.376091e-03 7.052843e-03 7.903051e-03
Al 3.129132e+00 1.780986e+00 4.922468e+00 -9.669995e-04 1.120853e-03 8.155446e-04
Al 3.115339e+00 1.777849e+00 -5.249504e+00 5.933698e-04 -2.385226e-03 5.012487e-03
Al 3.097259e+00 1.778477e+00 -9.101854e-02 2.556054e-03 9.665350e-04 -2.510869e-02
Ga 6.296795e+00 -3.674325e+00 4.931193e+00 -1.948065e-04 -1.944515e-03 -4.025303e-03
Al 6.294581e+00 -3.691108e+00 -5.233377e+00 -1.221846e-04 -1.503031e-04 2.072808e-03
Ga 6.301074e+00 -3.666227e+00 -1.655650e-01 -9.584720e-04 -3.586807e-03 1.342423e-02
Al 4.727747e+00 -9.455033e-01 4.934712e+00 -3.989458e-03 3.113151e-03 -3.468010e-03
Ga 4.713544e+00 -9.567190e-01 -5.247936e+00 -2.645952e-03 5.636225e-03 3.552840e-03
Ga 4.730773e+00 -9.376772e-01 -1.223756e-01 -7.304049e-03 6.437378e-03 1.433251e-04
Al -3.193499e+00 1.791923e+00 4.918690e+00 -1.403158e-03 1.676896e-04 1.556439e-04
Al -3.190827e+00 1.800435e+00 -5.243061e+00 -1.647958e-03 -1.220877e-02 5.259963e-03
Al -3.193536e+00 1.777918e+00 -1.308075e-01 4.709401e-03 5.982439e-03 -8.851104e-03
Al -1.755065e-02 -3.672740e+00 4.921872e+00 -2.071898e-03 1.355920e-04 -5.419726e-04
Ga -1.163108e-02 -3.688243e+00 -5.221527e+00 -1.604218e-03 1.103386e-03 2.596711e-03
Al -1.890622e-02 -3.682380e+00 -1.337452e-01 6.705027e-05 -5.803502e-03 -6.325299e-03
Al -1.587700e+00 -9.382745e-01 4.931937e+00 -3.160403e-04 3.167523e-03 -6.287704e-04
Ga -1.575346e+00 -9.368669e-01 -5.228336e+00 -3.348321e-03 4.658499e-03 -7.726331e-04
Al -1.596756e+00 -9.551339e-01 -1.036297e-01 -4.188484e-03 8.829515e-03 -1.540930e-02
N 1.549512e+00 8.804195e-01 4.322356e+00 9.583409e-04 -4.054857e-03 -2.268139e-03
N 1.544766e+00 8.725365e-01 -5.853816e+00 6.061278e-04 -4.553789e-03 1.369471e-03
N 1.538790e+00 8.679365e-01 -7.473460e-01 1.597172e-03 -3.492944e-03 3.273019e-04
N -4.449305e-02 3.581833e+00 4.309976e+00 -1.029530e-02 -6.283110e-03 -4.608968e-03
N 2.050089e-03 3.581657e+00 -5.846587e+00 7.515474e-03 -4.219299e-03 -4.532320e-03
N -4.583535e-02 3.576648e+00 -7.608477e-01 -6.434200e-03 -2.862880e-03 -1.546003e-03
N 3.156799e+00 -1.866853e+00 4.326008e+00 -1.723386e-03 -1.601750e-03 7.858155e-04
N 3.107796e+00 -1.854566e+00 -5.883743e+00 -7.147693e-03 4.652332e-03 6.988032e-04
N 3.121452e+00 -1.876957e+00 -7.405522e-01 -5.041820e-03 -5.223783e-03 -2.888727e-03
N -4.767441e+00 8.823341e-01 4.324295e+00 2.470937e-03 -2.032980e-03 -1.164227e-03
N -4.768220e+00 9.104604e-01 -5.859305e+00 2.304073e-03 3.444338e-03 -3.067057e-03
N -4.770030e+00 9.560845e-01 -6.980366e-01 -3.134040e-03 -1.452274e-02 -2.082639e-02
N -6.313209e+00 3.586307e+00 4.310719e+00 1.132135e-02 -6.160630e-03 -2.664056e-03
N -6.357866e+00 3.587307e+00 -5.843801e+00 -5.491595e-03 -3.324157e-03 -4.306742e-03
N -6.314522e+00 3.575673e+00 -7.641988e-01 3.766630e-03 -1.914213e-03 -1.759915e-03
N -3.158641e+00 -1.823330e+00 4.338884e+00 6.967128e-04 1.043562e-02 -3.546504e-05
N -3.155123e+00 -1.896608e+00 -5.852202e+00 9.998698e-04 -4.014097e-03 -6.113895e-03
N -3.153779e+00 -1.833563e+00 -8.269904e-01 9.622107e-03 2.163911e-03 1.566868e-02
N -1.624002e+00 8.896363e-01 4.321650e+00 5.718615e-03 -3.679373e-03 -2.973398e-03
N -1.623272e+00 9.218183e-01 -5.857833e+00 6.102485e-03 2.228160e-03 -2.579228e-03
N -1.631265e+00 8.699878e-01 -7.588342e-01 5.858443e-03 -3.080804e-03 2.984692e-03
N -3.195315e+00 3.608536e+00 4.316043e+00 5.039643e-03 4.997444e-04 -3.523453e-03
N -3.196100e+00 3.547812e+00 -5.862339e+00 4.531771e-03 5.683851e-03 -1.062410e-02
N -3.199707e+00 3.592268e+00 -7.453359e-01 6.870305e-03 2.803709e-03 -5.471327e-04
N -2.791019e-02 -1.854995e+00 4.325927e+00 3.676352e-03 1.536560e-03 -1.651814e-03
N 5.538407e-02 -1.828709e+00 -5.810714e+00 -1.867698e-02 -8.341394e-03 -2.220697e-02
N -3.890724e-02 -1.867049e+00 -6.619455e-01 5.226692e-03 3.314818e-03 -1.859031e-03
N -1.765719e-02 1.774884e+00 1.747928e+00 -5.522118e-03 -9.653761e-04 1.471615e-02
N -1.751240e-02 1.780137e+00 6.851067e+00 -4.372920e-03 -1.459458e-03 -7.554606e-04
N -1.908137e-02 1.760596e+00 -3.308675e+00 -3.454415e-03 1.466822e-04 -8.310004e-04
N 3.149874e+00 -3.676561e+00 1.745873e+00 -3.653636e-03 -1.916746e-03 1.831646e-02
N 3.155193e+00 -3.683878e+00 6.850152e+00 -4.244288e-03 -1.419740e-03 6.669233e-04
N 3.136279e+00 -3.685080e+00 -3.273818e+00 -4.346363e-03 1.226786e-03 8.288737e-03
N 1.581059e+00 -9.589625e-01 1.822595e+00 -6.898801e-03 2.875350e-03 -7.844802e-03
N 1.584118e+00 -9.616661e-01 6.844239e+00 -7.359626e-03 4.104213e-03 -4.915054e-04
N 1.627214e+00 -9.012805e-01 -3.218781e+00 -1.960717e-02 -1.761450e-02 -3.139621e-02
N 3.126563e+00 1.775665e+00 1.756396e+00 -1.801498e-03 5.052698e-04 2.214481e-02
N 3.122540e+00 1.786717e+00 6.851934e+00 -1.179619e-03 -2.568484e-04 -8.724955e-04
N 3.129401e+00 1.759127e+00 -3.315095e+00 -6.497850e-04 3.263441e-03 -1.715795e-03
N 6.319353e+00 -3.688594e+00 1.939728e+00 -1.392517e-02 1.101793e-02 -2.845868e-02
N 6.295840e+00 -3.676028e+00 6.884115e+00 -4.619049e-04 1.362441e-03 9.025389e-03
N 6.295929e+00 -3.689366e+00 -3.301819e+00 1.623425e-03 2.624813e-03 -8.935628e-04
N 4.683448e+00 -9.583563e-01 1.910554e+00 1.974410e-02 2.221086e-03 -1.826186e-02
N 4.725555e+00 -9.495169e-01 6.855247e+00 -7.091202e-04 4.030421e-03 9.159972e-04
N 4.701007e+00 -9.278756e-01 -3.278442e+00 2.920957e-03 -1.946536e-02 8.103595e-03
N -3.190513e+00 1.786615e+00 1.763150e+00 6.616011e-04 -1.312716e-03 1.319432e-02
N -3.194214e+00 1.794220e+00 6.844542e+00 3.426576e-04 -1.211998e-03 -2.939548e-03
N -3.187231e+00 1.771908e+00 -3.311169e+00 2.304097e-05 1.911222e-03 -9.388057e-04
N -2.482524e-02 -3.668390e+00 1.752339e+00 9.512786e-04 -1.373658e-03 1.455293e-02
N -2.447150e-02 -3.671802e+00 6.850702e+00 -8.958536e-04 1.729388e-03 1.635158e-03
N -6.657837e-03 -3.706970e+00 -3.251872e+00 -6.231062e-03 1.028563e-03 -1.674536e-04
N -1.599056e+00 -9.487308e-01 1.771251e+00 -5.670626e-03 3.646406e-03 1.424148e-02
N -1.590586e+00 -9.436679e-01 6.853576e+00 -5.545510e-04 3.742484e-03 2.993389e-03
N -1.620182e+00 -8.879649e-01 -3.258788e+00 -1.418632e-03 -2.173521e-02 -5.855829e-03
