108
Energy=-9.401945e+05 Lattice="9.457681e+00 0.000000e+00 0.000000e+00 -4.734571e+00 8.186192e+00 0.000000e+00 -6.645294e-04 1.719995e-03 1.522989e+01" Stress="1.396932e-03 -3.199573e-04 1.223467e-04 -3.283223e-04 1.699407e-04 1.798697e-04 1.210851e-04 1.716832e-04 2.754270e-03" Properties=species:S:1:pos:R:3:forces:R:3 Config_type=AlGaN_super3_11_1_42.xyz
Al 1.553395e+00 8.741078e-01 2.399289e+00 -8.274169e-04 -4.191509e-04 2.793798e-04
Al 1.549742e+00 8.766385e-01 7.451904e+00 2.263894e-04 5.303423e-05 9.435793e-05
Al 1.542721e+00 8.663591e-01 -2.686631e+00 8.817887e-05 -3.268412e-04 -2.301035e-05
Al -1.167181e-02 3.593132e+00 2.381207e+00 -1.797103e-04 2.841254e-04 -3.752393e-04
Al -1.050231e-02 3.588196e+00 7.453134e+00 -6.519086e-04 3.730848e-04 -6.210720e-04
Al -2.597865e-02 3.582377e+00 -2.662059e+00 -2.552391e-04 -2.889727e-04 1.327433e-04
Al 3.143631e+00 -1.844470e+00 2.376737e+00 6.191891e-04 -4.630920e-04 1.563265e-04
Al 3.145902e+00 -1.835984e+00 7.467790e+00 -3.520551e-05 1.481863e-04 8.584843e-05
Al 3.128645e+00 -1.850048e+00 -2.676804e+00 -2.264377e-04 9.547768e-05 1.119102e-04
Al -4.749933e+00 8.617188e-01 2.402323e+00 1.311826e-04 -6.727980e-05 -2.045372e-04
Al -4.755423e+00 8.607830e-01 7.449036e+00 1.178629e-04 -3.453191e-05 2.382081e-05
Al -4.748544e+00 8.700430e-01 -2.685047e+00 1.032936e-04 -2.598375e-04 -1.078091e-05
Al -6.352272e+00 3.591657e+00 2.413377e+00 -1.435212e-04 6.632547e-04 2.500007e-04
Al -6.339992e+00 3.595685e+00 7.443979e+00 -7.474070e-04 -4.745034e-04 4.514302e-04
Al -6.329871e+00 3.594069e+00 -2.679543e+00 2.123845e-04 5.810939e-05 -3.398571e-04
Al -3.181838e+00 -1.860036e+00 2.383702e+00 -7.842774e-05 2.638756e-04 1.508646e-04
Al -3.185326e+00 -1.851307e+00 7.451847e+00 -6.579371e-05 5.261115e-05 -3.793029e-05
Ga -3.177666e+00 -1.852467e+00 -2.670159e+00 2.957202e-04 2.447351e-04 -2.259038e-04
Al -1.597382e+00 8.690299e-01 2.387323e+00 -1.002046e-03 2.133423e-03 -4.462428e-05
Al -1.602370e+00 8.745636e-01 7.465137e+00 3.045916e-04 -1.316125e-04 2.192146e-04
Al -1.595849e+00 8.789809e-01 -2.686804e+00 4.249557e-04 -3.539212e-04 7.714123e-05
Ga -3.166671e+00 3.583252e+00 2.394054e+00 1.440948e-04 2.434767e-05 -6.680737e-04
Ga -3.188445e+00 3.588079e+00 7.475526e+00 2.366897e-04 -1.115038e-04 -7.782977e-05
Al -3.177353e+00 3.590878e+00 -2.686105e+00 -1.437406e-05 -5.958299e-05 -5.633496e-04
Ga -2.240990e-02 -1.839658e+00 2.407002e+00 4.625836e-04 6.092206e-05 2.382577e-05
Ga -2.606844e-02 -1.848488e+00 7.467939e+00 3.378575e-04 -2.720335e-05 -7.769183e-05
Al -1.348667e-02 -1.849254e+00 -2.696972e+00 9.888603e-05 2.814939e-05 -1.003200e-03
Al -2.382435e-02 1.770562e+00 4.918993e+00 2.796957e-05 1.119178e-04 6.659078e-05
Al -3.361121e-02 1.764335e+00 -5.224986e+00 -1.024259e-04 -1.583331e-04 1.445134e-04
Al -3.081676e-02 1.775124e+00 -1.456618e-01 -1.559150e-04 2.065913e-04 1.084474e-04
Ga 3.141984e+00 -3.668779e+00 4.933809e+00 -2.905944e-05 -2.345776e-05 -9.264167e-06
Ga 3.134437e+00 -3.673758e+00 -5.212558e+00 -1.639761e-04 9.593976e-05 8.075390e-05
Al 3.148192e+00 -3.676537e+00 -1.593214e-01 -8.004057e-05 1.606652e-04 -1.256249e-04
Al 1.561467e+00 -9.350454e-01 4.928413e+00 -1.289474e-04 -1.121169e-04 4.100246e-04
Al 1.554982e+00 -9.457325e-01 -5.216762e+00 -3.210284e-04 2.009425e-04 2.135064e-04
Al 1.560275e+00 -9.461316e-01 -1.596710e-01 -1.901082e-04 7.313230e-05 4.298619e-04
Al 3.126413e+00 1.779186e+00 4.923042e+00 1.234153e-04 6.748561e-05 -1.151800e-04
Ga 3.132314e+00 1.771181e+00 -5.226248e+00 5.022554e-05 -1.658919e-04 -4.958351e-05
Ga 3.126061e+00 1.769097e+00 -1.413777e-01 -3.813811e-05 -5.851735e-06 6.958412e-04
Al 6.289915e+00 -3.673682e+00 4.924833e+00 1.481774e-04 -9.690094e-05 -2.063025e-04
Ga 6.287387e+00 -3.673613e+00 -5.233508e+00 1.874643e-04 3.393908e-05 -4.163371e-05
Al 6.275757e+00 -3.673860e+00 -1.356974e-01 -4.722653e-04 -1.940471e-03 1.576918e-03
Al 4.710929e+00 -9.432311e-01 4.918345e+00 -1.961823e-04 1.433644e-04 1.184948e-06
Al 4.709263e+00 -9.382340e-01 -5.234961e+00 -1.172174e-04 8.621618e-05 1.437711e-04
Al 4.709706e+00 -9.519060e-01 -1.338429e-01 -1.316810e-03 6.168069e-04 9.679026e-04
Al -3.178117e+00 1.759528e+00 4.931146e+00 -7.128254e-05 -5.359084e-04 2.029115e-04
Al -3.174110e+00 1.762307e+00 -5.217167e+00 2.173120e-05 1.280452e-04 8.140359e-05
Al -3.161829e+00 1.764329e+00 -1.572954e-01 -9.548799e-05 4.001303e-05 -7.803020e-04
Al -3.699931e-02 -3.676118e+00 4.919371e+00 -3.225722e-04 -2.011495e-03 2.359735e-03
Al -2.485652e-02 -3.672682e+00 -5.198501e+00 8.361639e-05 2.420615e-04 1.559083e-04
Ga -1.716548e-02 -3.669767e+00 -1.614509e-01 -2.529224e-04 8.563566e-05 7.477013e-04
Al -1.609579e+00 -9.393614e-01 4.926520e+00 -5.443865e-04 1.019447e-04 4.470797e-04
Al -1.597499e+00 -9.341098e-01 -5.227758e+00 -1.153819e-04 -8.089743e-07 3.905640e-05
Al -1.596543e+00 -9.327574e-01 -1.416482e-01 -8.810606e-04 -5.702346e-04 -1.574375e-03
N 1.549216e+00 8.718108e-01 4.319899e+00 -1.623682e-04 -3.771054e-04 3.531242e-05
N 1.509168e+00 8.465847e-01 -5.854470e+00 -2.252545e-04 -2.021840e-04 -2.445424e-04
N 1.509406e+00 8.485189e-01 -7.734188e-01 -3.136872e-04 -1.757526e-04 1.361312e-04
N 1.639089e-02 3.574274e+00 4.299165e+00 2.335318e-04 -2.562213e-04 -8.570016e-05
N -2.465718e-02 3.545892e+00 -5.871504e+00 -5.854517e-05 -2.590246e-04 2.005231e-04
N -1.842138e-02 3.591846e+00 -7.428929e-01 -1.616561e-04 -2.540989e-04 3.566340e-04
N 3.130677e+00 -1.808835e+00 4.290500e+00 -1.104461e-04 3.709681e-04 -5.771130e-05
N 3.132076e+00 -1.807652e+00 -5.846814e+00 -1.557974e-04 2.698423e-04 -2.137549e-04
N 3.137473e+00 -1.854234e+00 -7.544056e-01 -3.362590e-04 4.541813e-04 3.609850e-04
N -4.752645e+00 8.708700e-01 4.322527e+00 3.129442e-04 -2.947490e-04 -4.327789e-05
N -4.712713e+00 8.492065e-01 -5.862127e+00 6.037922e-04 -2.030754e-04 -2.508508e-04
N -4.709681e+00 8.420674e-01 -7.716473e-01 1.052531e-04 -2.049947e-04 8.081043e-07
N -6.338805e+00 3.599165e+00 4.326822e+00 -2.704782e-05 -5.578822e-05 2.851227e-04
N -6.286269e+00 3.621883e+00 -5.873304e+00 -2.064819e-04 -8.687938e-05 -5.016805e-04
N -6.373876e+00 3.620282e+00 -7.815433e-01 -1.803878e-04 2.825767e-04 6.035056e-05
N -3.175506e+00 -1.858443e+00 4.312025e+00 5.442730e-05 1.321976e-04 1.052905e-04
N -3.174127e+00 -1.809348e+00 -5.855133e+00 -1.297598e-05 3.823244e-04 -2.660583e-04
N -3.179812e+00 -1.860027e+00 -6.907906e-01 3.107109e-03 1.821548e-03 2.782675e-04
N -1.600733e+00 8.726610e-01 4.308371e+00 2.241563e-04 -1.826100e-04 -1.489989e-04
N -1.602379e+00 8.744299e-01 -5.838470e+00 3.394860e-04 -2.006225e-04 -2.364659e-04
N -1.595371e+00 8.719253e-01 -7.646668e-01 2.108147e-04 -5.195723e-04 -1.144396e-04
N -3.214649e+00 3.568614e+00 4.363859e+00 -7.053305e-05 1.319773e-03 1.034227e-04
N -3.224510e+00 3.574100e+00 -5.779000e+00 4.430124e-04 -4.382568e-04 2.707259e-04
N -3.134697e+00 3.571070e+00 -7.688419e-01 2.680178e-04 -1.144064e-04 2.615238e-04
N -2.384692e-02 -1.851822e+00 4.385609e+00 1.090006e-03 1.671843e-03 -6.498699e-04
N -2.110924e-02 -1.858456e+00 -5.775533e+00 2.402691e-04 -4.616718e-06 3.734210e-04
N -2.071481e-02 -1.805335e+00 -7.820219e-01 -5.156403e-04 5.060662e-04 1.737319e-03
N -2.217411e-02 1.774110e+00 1.780908e+00 -1.244060e-04 4.995990e-05 -1.963635e-04
N -2.838138e-02 1.775425e+00 6.842528e+00 -1.786644e-04 -6.554967e-07 -2.474960e-04
N -2.455460e-02 1.779902e+00 -3.298749e+00 -2.428009e-04 2.231006e-04 -1.046602e-04
N 3.177987e+00 -3.652262e+00 1.765756e+00 -5.593882e-05 -4.496947e-04 -6.326963e-04
N 3.171972e+00 -3.647836e+00 6.906197e+00 5.853829e-04 -6.073902e-04 2.368607e-04
N 3.140826e+00 -3.676367e+00 -3.230110e+00 1.437264e-07 1.663195e-04 6.804726e-04
N 1.597439e+00 -9.235742e-01 1.761984e+00 -7.828672e-04 6.105315e-04 -1.418989e-03
N 1.599514e+00 -9.247032e-01 6.840192e+00 -3.392845e-04 3.187829e-04 -2.553745e-05
N 1.563069e+00 -9.484259e-01 -3.295360e+00 -3.129120e-04 2.263378e-04 -6.241510e-05
N 3.128957e+00 1.778709e+00 1.847297e+00 8.700316e-04 -2.838388e-04 -1.331393e-03
N 3.126378e+00 1.778501e+00 6.852420e+00 -6.027252e-05 -2.605206e-04 -5.591744e-05
N 3.127937e+00 1.775601e+00 -3.241626e+00 -1.938443e-06 1.271701e-04 1.458037e-04
N 6.287424e+00 -3.680488e+00 1.788404e+00 4.314244e-04 3.601643e-04 -7.103476e-04
N 6.282952e+00 -3.672371e+00 6.850364e+00 -1.172111e-04 -9.950890e-05 2.528968e-05
N 6.279382e+00 -3.724232e+00 -3.263010e+00 2.965054e-04 -7.035769e-05 2.415273e-04
N 4.708942e+00 -9.438281e-01 1.785644e+00 1.549128e-04 1.343813e-04 -3.236135e-04
N 4.707221e+00 -9.487921e-01 6.839713e+00 -2.652600e-04 3.202767e-05 -1.439521e-04
N 4.667458e+00 -9.261527e-01 -3.317896e+00 -2.603684e-04 9.722737e-06 -1.444226e-04
N -3.178131e+00 1.728677e+00 1.752473e+00 8.493844e-04 -1.032369e-03 2.207287e-03
N -3.176591e+00 1.729924e+00 6.840720e+00 2.227818e-04 -3.329618e-04 -3.483252e-04
N -3.176147e+00 1.773305e+00 -3.294676e+00 1.029937e-04 -9.883600e-05 1.634495e-04
N -6.340173e-02 -3.699017e+00 1.808284e+00 -1.401074e-06 2.273134e-05 -6.977296e-04
N -6.452726e-02 -3.696932e+00 6.824618e+00 9.193783e-04 3.553288e-04 -1.741062e-03
N -2.318026e-02 -3.678690e+00 -3.276216e+00 1.153785e-04 4.062487e-05 2.857899e-04
N -1.634252e+00 -9.202556e-01 1.772526e+00 -7.098438e-04 -1.640734e-03 -8.518459e-04
N -1.641993e+00 -9.198799e-01 6.841839e+00 -3.663414e-04 3.221959e-04 -1.712861e-04
N -1.563100e+00 -9.219173e-01 -3.310525e+00 -4.830996e-05 2.575915e-04 -2.855226e-04
