108
Energy=-1397945.285107 Lattice="9.478833 0.000000 0.000000 -4.741269 8.206150 0.000000 0.001327 0.001676 15.301978" Stress="-0.000134 0.000028 0.000000 0.000028 -0.000106 -0.000001 0.000000 -0.000001 -0.000081" Properties=species:S:1:pos:R:3:forces:R:3
Al 1.568223 0.853849 2.440874 -0.000750 0.006233 0.005378
Al 1.562437 0.900932 7.512536 -0.001468 -0.012983 -0.004269
Al 1.568692 0.893950 -2.753053 -0.002684 -0.009864 -0.004767
Al -0.006407 3.610020 2.491158 0.001842 -0.003583 -0.011731
Al -0.001624 3.611727 7.514189 -0.002692 -0.001958 -0.002886
Ga -0.002253 3.608928 -2.756626 -0.002175 -0.001710 -0.001407
Al 3.170188 -1.884640 2.482236 -0.002743 0.000825 -0.007417
Ga 3.173462 -1.881882 7.516004 -0.003146 0.001180 -0.002594
Al 3.173231 -1.879021 -2.752117 -0.003872 0.000664 -0.004940
Al -4.789861 0.898954 2.458344 0.005139 -0.009202 -0.004469
Ga -4.784694 0.901992 7.516268 0.000815 -0.015559 -0.003849
Al -4.783302 0.901469 -2.750855 0.001605 -0.011728 -0.000914
Ga -6.345687 3.619808 2.465659 -0.001346 0.000456 -0.003769
Ga -6.350592 3.612167 7.515159 -0.000437 -0.000266 -0.000079
Al -6.349541 3.612183 -2.763725 -0.000223 -0.000527 0.003089
Al -3.179763 -1.876535 2.440210 0.001194 0.001990 0.005699
Ga -3.173755 -1.881359 7.515638 -0.000201 0.002582 -0.001860
Al -3.175903 -1.883233 -2.757363 -0.000207 0.002379 -0.002308
Ga -1.645822 0.904046 2.473989 0.014978 -0.009300 -0.012248
Al -1.652203 0.902529 7.516724 0.013455 -0.006980 -0.005083
Al -1.653663 0.899558 -2.758980 0.012955 -0.006606 -0.003649
Al -3.219942 3.614517 2.490775 0.011977 0.002852 -0.011789
Ga -3.217638 3.613256 7.514622 0.014492 0.006994 -0.004640
Al -3.219213 3.609522 -2.755828 0.011158 0.004663 -0.001757
Al -0.012951 -1.873241 2.452274 -0.003386 0.003511 0.004430
Ga -0.042987 -1.879555 7.515710 0.014140 0.009978 -0.004690
Ga -0.042232 -1.880755 -2.760355 0.013646 0.009473 -0.006031
Al -0.013431 1.803011 5.003802 -0.005521 -0.007240 -0.005798
Ga -0.001376 1.801368 -5.274403 -0.013217 -0.009867 -0.004588
Ga -0.005008 1.800646 -0.233764 -0.014188 -0.009975 0.034615
Al 3.172925 -3.688889 4.997672 -0.010978 -0.005021 -0.003286
Ga 3.171526 -3.691186 -5.271148 -0.013680 -0.007329 -0.003384
Al 3.171957 -3.692078 -0.246508 -0.011729 -0.006081 0.030142
Ga 1.607850 -0.978618 4.999696 -0.016563 0.009339 -0.008678
Al 1.606220 -0.978526 -5.274302 -0.013674 0.007816 -0.004638
Al 1.604412 -0.979367 -0.241468 -0.012925 0.007374 0.023899
Ga 3.128537 1.806943 4.996605 -0.001379 -0.003028 -0.003671
Al 3.129974 1.802466 -5.268249 -0.001777 -0.002202 -0.002012
Al 3.128261 1.793682 -0.219529 0.001512 0.001624 0.024969
Al 6.304470 -3.690307 4.998547 0.000467 0.000936 -0.002893
Al 6.304998 -3.691013 -5.272429 0.000205 -0.000393 -0.000663
Ga 6.302612 -3.690286 -0.229668 0.000948 -0.001251 0.037570
Ga 4.740055 -0.978018 4.999794 0.000576 0.015127 -0.005589
Ga 4.736918 -0.978942 -5.268323 -0.000442 0.015356 -0.002554
Al 4.739953 -0.980536 -0.231436 -0.001687 0.013256 0.025814
Al -3.214901 1.807032 4.995331 0.002146 -0.001791 -0.002051
Ga -3.220675 1.804216 -5.270844 0.003260 -0.001673 -0.001447
Al -3.221780 1.807081 -0.222259 0.005035 -0.002683 0.024528
Al -0.043130 -3.688766 4.998636 0.001858 0.002605 -0.003592
Al -0.043449 -3.690348 -5.272142 0.001890 0.001749 -0.001399
Ga -0.040760 -3.688329 -0.232203 0.002314 -0.001131 0.036473
Ga -1.606981 -0.972514 4.999902 0.001736 0.014771 -0.008806
Al -1.609622 -0.979970 -5.272428 0.001411 0.013359 -0.003612
Al -1.609210 -0.981097 -0.249280 0.000497 0.015417 0.029423
N 1.559067 0.903698 4.401664 -0.018514 -0.006789 -0.015446
N 1.564871 0.897459 -5.874355 0.018365 -0.022446 -0.002988
N 1.564615 0.897215 -0.833987 0.017244 -0.023930 -0.001162
N -0.004558 3.611283 4.406190 -0.000977 -0.000079 0.000482
N -0.001018 3.612107 -5.870810 0.015257 0.010741 -0.013329
N -0.004553 3.610673 -0.835184 -0.019753 0.010382 0.011088
N 3.174356 -1.882896 4.400061 -0.002488 -0.018765 -0.014881
N 3.169525 -1.882048 -5.866596 -0.019965 0.011770 0.008107
N 3.172839 -1.882501 -0.834996 -0.003429 0.001373 0.004727
N -4.780499 0.904409 4.402892 0.018560 -0.005757 -0.016560
N -4.789522 0.902718 -5.866338 -0.016518 -0.006892 0.012584
N -4.783805 0.899734 -0.827847 0.000687 -0.013126 0.004221
N -6.349395 3.616235 4.396007 -0.000143 0.020968 0.013195
N -6.350122 3.610789 -5.865753 0.000055 -0.000065 0.023880
N -6.349970 3.608761 -0.825623 -0.000662 -0.020909 -0.014436
N -3.173305 -1.882785 4.404233 -0.001938 -0.018610 -0.020810
N -3.173602 -1.884259 -5.866528 0.016135 -0.008251 0.016211
N -3.175128 -1.882584 -0.838220 -0.001355 0.021976 -0.003748
N -1.644087 0.915732 4.397461 0.009145 0.007870 0.022377
N -1.654406 0.898065 -5.870390 0.015013 -0.025570 -0.006415
N -1.655657 0.896917 -0.842860 -0.002706 -0.014695 0.003426
N -3.218666 3.614904 4.404590 0.010478 0.004725 0.002252
N -3.221846 3.613504 -5.868092 -0.003199 0.018091 0.012374
N -3.217565 3.610762 -0.836286 0.029493 -0.004120 -0.002152
N -0.042815 -1.882800 4.404497 0.014634 -0.012040 -0.015103
N -0.044151 -1.882421 -5.866147 0.011225 0.006384 0.025303
N -0.043165 -1.880347 -0.840107 0.012104 0.027497 0.021687
N 0.014904 1.786349 1.860543 0.001461 0.006945 -0.014278
N -0.003531 1.804161 6.919881 -0.010776 -0.006862 0.003320
N -0.002260 1.798199 -3.354111 -0.010109 -0.027548 0.018496
N 3.170748 -3.692446 1.898808 -0.011342 -0.004794 -0.026536
N 3.176649 -3.691596 6.918680 0.003160 -0.017306 -0.011029
N 3.170007 -3.693147 -3.351665 -0.029421 0.006920 0.019626
N 1.583393 -0.969365 1.916771 0.000550 -0.001613 -0.034665
N 1.608016 -0.976232 6.918783 -0.015304 0.025679 0.015609
N 1.606933 -0.966024 -3.359640 0.003896 0.011024 0.002911
N 3.131848 1.813448 1.843256 -0.000857 -0.028118 -0.028889
N 3.126632 1.804260 6.917247 -0.016271 -0.012447 0.008855
N 3.130505 1.802787 -3.351553 0.000856 -0.001716 0.001279
N 6.308652 -3.679458 1.858919 -0.021825 0.005931 -0.016793
N 6.303237 -3.691026 6.916111 -0.017475 -0.010260 -0.012854
N 6.305416 -3.690275 -3.356419 0.018346 0.010610 -0.005543
N 4.726387 -0.978875 1.858283 -0.001074 0.012889 -0.023567
N 4.739159 -0.978037 6.919274 -0.000759 0.016749 0.004797
N 4.738398 -0.978227 -3.348036 -0.001179 0.012462 0.026567
N -3.206443 1.806109 1.843247 -0.019755 0.009395 -0.026617
N -3.215395 1.803711 6.919685 0.019697 -0.012006 -0.015938
N -3.218506 1.803565 -3.350278 0.002100 -0.001470 0.022770
N -0.033567 -3.682747 1.860714 0.020949 0.009538 -0.017735
N -0.043196 -3.688978 6.915306 0.002002 0.000002 -0.019974
N -0.040788 -3.692557 -3.356613 0.001974 -0.019838 -0.005554
N -1.607099 -0.983817 1.899586 0.003302 -0.002689 -0.037477
N -1.608010 -0.973371 6.919697 0.000175 0.033687 0.011177
N -1.611962 -0.978461 -3.356168 -0.017237 0.022520 -0.003063
