108
Energy=-1260622.801055 Lattice="9.493944 0.000000 0.000000 -4.748966 8.217646 0.000000 -0.001540 -0.000664 15.311041" Stress="-0.000001 -0.000001 -0.000000 -0.000001 -0.000005 0.000000 -0.000000 0.000000 0.000000" Properties=species:S:1:pos:R:3:forces:R:3
Al 1.572818 0.880328 2.402776 -0.000210 0.000252 -0.000170
Al 1.554512 0.882164 7.505204 -0.000033 0.000087 0.000028
Al 1.560347 0.882469 -2.703725 -0.000226 0.000180 -0.000005
Al -0.026695 3.620490 2.415354 -0.000070 -0.000296 -0.000029
Al -0.029201 3.607476 7.483784 -0.000106 0.000039 0.000075
Al -0.015568 3.601879 -2.696661 0.000093 0.000274 -0.000046
Al 3.143363 -1.875955 2.403956 0.000395 0.000138 -0.000394
Al 3.145990 -1.874058 7.519349 -0.000081 0.000177 -0.000012
Ga 3.142645 -1.860682 -2.713059 -0.000031 -0.000035 0.000166
Al -4.783136 0.879616 2.407377 0.000149 -0.000259 0.000086
Al -4.782398 0.871012 7.500506 -0.000025 -0.000218 -0.000304
Al -4.782008 0.877654 -2.694151 0.000151 -0.000007 0.000069
Ga -6.367087 3.595950 2.428840 -0.000180 0.000004 0.000031
Al -6.350055 3.610993 7.473835 -0.000067 0.000020 0.000194
Al -6.361509 3.599642 -2.691704 0.000068 0.000041 -0.000300
Al -3.198944 -1.879226 2.433015 -0.000404 0.000290 -0.000615
Al -3.191335 -1.868392 7.493150 -0.000117 0.000077 -0.000039
Ga -3.200345 -1.875528 -2.705082 -0.000060 -0.000005 0.000031
Ga -1.604300 0.889679 2.418669 0.000098 -0.000091 0.000090
Al -1.592214 0.877221 7.484643 0.000020 -0.000120 -0.000045
Ga -1.595751 0.896797 -2.686768 0.000228 -0.000081 -0.000003
Al -3.172667 3.614679 2.418315 0.000432 -0.000339 0.000021
Al -3.187723 3.628167 7.504224 0.000013 -0.000374 0.000117
Ga -3.185450 3.611576 -2.707730 0.000036 -0.000031 0.000045
Ga -0.009944 -1.861123 2.439377 -0.000021 -0.000059 -0.000017
Al -0.022294 -1.875420 7.497263 0.000020 0.000164 -0.000085
Ga -0.007504 -1.865232 -2.713334 0.000082 -0.000130 0.000058
Al -0.010296 1.799479 4.960091 -0.000040 -0.000083 -0.000027
Al -0.017851 1.792829 -5.270360 -0.000048 0.000409 0.000183
Al -0.006601 1.801935 -0.140608 0.000255 0.000017 -0.000016
Al 3.146863 -3.698279 4.960727 0.000011 -0.000061 -0.000047
Al 3.148838 -3.688296 -5.283537 -0.000125 -0.000046 -0.000001
Al 3.155890 -3.705055 -0.127074 -0.000027 -0.000029 -0.000025
Ga 1.561727 -0.944819 4.980082 -0.000091 0.000112 0.000223
Al 1.566274 -0.952659 -5.295310 -0.000061 -0.000016 0.000093
Al 1.570508 -0.935445 -0.129269 -0.000136 0.000217 -0.000067
Al 3.126687 1.792665 4.973988 0.000090 0.000188 0.000138
Ga 3.134892 1.782285 -5.253559 0.000075 0.000077 0.000205
Al 3.130104 1.780318 -0.164256 0.000020 0.000167 0.000090
Al 6.302022 -3.698966 4.973118 0.000116 -0.000201 0.000028
Ga 6.298793 -3.702889 -5.277667 0.000016 -0.000095 0.000076
Al 6.291967 -3.713745 -0.138719 0.000042 0.000104 -0.000107
Ga 4.722944 -0.961236 4.953874 -0.000020 0.000114 0.000040
Al 4.711452 -0.954515 -5.277861 -0.000056 -0.000059 -0.000016
Ga 4.716822 -0.946298 -0.113615 -0.000033 -0.000037 0.000047
Ga -3.193340 1.801322 4.976640 0.000189 -0.000044 0.000126
Ga -3.187163 1.792394 -5.287502 0.000108 0.000066 0.000122
Al -3.193872 1.796983 -0.127110 0.000007 0.000018 0.000014
Al -0.022383 -3.697291 4.975342 0.000322 -0.000278 -0.000007
Al -0.014066 -3.687418 -5.281107 -0.000137 -0.000204 -0.000004
Ga -0.018746 -3.705146 -0.133205 0.000060 0.000027 0.000013
Al -1.607452 -0.965006 4.985574 -0.000407 0.000468 0.000023
Ga -1.593961 -0.949571 -5.289287 -0.000100 -0.000084 0.000060
Ga -1.602664 -0.947606 -0.129298 -0.000107 0.000016 0.000055
N 1.560300 0.922846 4.324384 0.000067 -0.000132 -0.000129
N 1.518270 0.860533 -5.894494 -0.000073 -0.000056 0.000067
N 1.552718 0.869706 -0.770953 0.000163 0.000006 -0.000010
N -0.024741 3.615178 4.346897 0.000035 0.000027 0.000008
N -0.065344 3.586490 -5.913281 -0.000021 -0.000304 -0.000013
N -0.027197 3.611611 -0.765469 -0.000048 0.000042 -0.000037
N 3.134278 -1.916063 4.312137 -0.000001 -0.000143 0.000074
N 3.146078 -1.870009 -5.872129 -0.000084 -0.000004 -0.000013
N 3.102276 -1.892465 -0.723158 0.000006 -0.000105 -0.000003
N -4.817759 0.904727 4.320290 0.000088 -0.000032 -0.000306
N -4.780147 0.829374 -5.911869 0.000033 0.000037 0.000131
N -4.766833 0.917301 -0.771087 -0.000006 0.000048 -0.000032
N -6.357189 3.610451 4.415541 -0.000197 0.000080 -0.000061
N -6.310269 3.631876 -5.923765 -0.000101 0.000007 -0.000299
N -6.395518 3.591701 -0.769613 -0.000147 -0.000105 0.000256
N -3.145573 -1.896914 4.346882 0.000262 -0.000026 0.000487
N -3.229003 -1.845898 -5.910315 -0.000058 0.000047 0.000081
N -3.193894 -1.914544 -0.736988 0.000016 -0.000052 0.000014
N -1.565186 0.851835 4.399094 0.000032 -0.000049 0.000030
N -1.556846 0.903341 -5.919092 0.000261 -0.000072 -0.000018
N -1.602155 0.930722 -0.704262 -0.000008 -0.000044 -0.000064
N -3.183716 3.661493 4.336192 -0.000571 0.000249 0.000026
N -3.185274 3.667915 -5.893133 0.000139 0.000121 -0.000137
N -3.140946 3.592947 -0.730104 -0.000111 0.000054 0.000019
N -0.060093 -1.886221 4.409301 0.000365 -0.000378 -0.000153
N 0.020405 -1.892822 -5.900350 0.000132 0.000055 0.000114
N 0.026485 -1.842112 -0.740038 0.000103 -0.000163 -0.000021
N 0.025750 1.816125 1.781139 -0.000011 0.000212 0.000290
N -0.014953 1.788844 6.874444 -0.000023 0.000194 0.000037
N 0.020942 1.813569 -3.341384 0.000209 -0.000294 -0.000039
N 3.148273 -3.698799 1.797801 -0.000034 0.000114 -0.000024
N 3.142848 -3.689692 6.884901 -0.000079 0.000148 -0.000107
N 3.192005 -3.717728 -3.364950 0.000028 0.000073 0.000035
N 1.601957 -0.924678 1.790514 -0.000175 0.000125 0.000176
N 1.566456 -0.949521 6.957765 0.000202 -0.000381 -0.000059
N 1.564223 -0.899447 -3.375947 -0.000019 0.000132 -0.000225
N 3.139819 1.740861 1.757777 0.000147 0.000011 -0.000140
N 3.135301 1.779918 6.890926 0.000102 -0.000017 -0.000069
N 3.140193 1.785374 -3.263569 -0.000071 0.000114 -0.000018
N 6.264472 -3.673990 1.785232 0.000133 0.000058 0.000025
N 6.300579 -3.693268 6.892621 0.000112 0.000000 -0.000068
N 6.307756 -3.745713 -3.296514 -0.000104 -0.000114 0.000030
N 4.726881 -0.950722 1.868668 -0.000112 -0.000147 0.000340
N 4.718490 -0.955632 6.931044 -0.000042 0.000034 -0.000012
N 4.723037 -0.901295 -3.358885 -0.000093 0.000009 -0.000108
N -3.232477 1.812619 1.794055 -0.000144 -0.000056 0.000028
N -3.193137 1.791032 6.955251 0.000064 0.000394 -0.000019
N -3.230217 1.760778 -3.315083 -0.000006 -0.000031 -0.000025
N 0.013976 -3.718045 1.831968 -0.000152 -0.000081 -0.000060
N -0.017064 -3.695572 6.888489 0.000140 0.000009 -0.000111
N -0.067265 -3.719764 -3.358042 0.000007 0.000053 0.000078
N -1.646158 -0.977099 1.833778 -0.000122 -0.000069 -0.000088
N -1.606918 -0.956323 6.905221 -0.000152 -0.000092 -0.000085
N -1.605161 -0.945354 -3.321980 -0.000155 0.000032 0.000039
