108
Energy=-985969.368384 Lattice="9.466994 0.000000 0.000000 -4.747682 8.183978 0.000000 0.010880 0.018558 15.246083" Stress="-0.000012 -0.000000 0.000007 -0.000000 -0.000006 0.000005 0.000007 0.000005 0.000020" Properties=species:S:1:pos:R:3:forces:R:3
Al 1.540749 0.864619 2.365729 0.005379 0.001271 0.003006
Al 1.557539 0.869230 7.478846 0.001048 -0.002761 -0.004565
Al 1.546382 0.859934 -2.705262 0.002349 -0.000439 0.004443
Al -0.031393 3.589918 2.384108 -0.008545 -0.006324 0.012958
Al -0.030557 3.587232 7.454259 0.000155 0.001117 0.000075
Al -0.031228 3.575471 -2.693325 -0.004053 -0.001721 0.005872
Al 3.142603 -1.859047 2.387859 0.001971 -0.000972 0.005135
Al 3.138817 -1.855773 7.453704 0.007981 -0.003652 -0.000271
Al 3.146150 -1.860678 -2.703215 -0.006845 -0.004136 0.007208
Al -4.758734 0.871598 2.371443 0.003363 0.002703 -0.000042
Al -4.768862 0.898111 7.464919 0.004050 -0.003116 -0.001265
Al -4.764289 0.844514 -2.699879 -0.002591 0.016585 0.009667
Al -6.347688 3.589669 2.412464 -0.001781 -0.005850 -0.003240
Al -6.338869 3.598112 7.477552 -0.004950 -0.001637 0.004070
Ga -6.345920 3.577252 -2.679121 0.002005 0.000235 0.002240
Al -3.179529 -1.864651 2.416070 -0.009912 -0.002253 0.010328
Ga -3.165404 -1.834042 7.452829 -0.001252 -0.001404 0.000260
Ga -3.188218 -1.842162 -2.672940 0.002598 -0.002678 0.001236
Al -1.606458 0.870042 2.382926 -0.004898 0.006324 0.007285
Al -1.609050 0.881926 7.472454 0.001345 0.005639 -0.002005
Al -1.611507 0.882626 -2.716325 0.002744 0.001621 0.004630
Al -3.164890 3.594657 2.382886 -0.001364 -0.005737 0.005481
Al -3.181943 3.606522 7.471938 0.004541 -0.003487 0.000931
Ga -3.186253 3.596942 -2.695504 0.001040 0.002249 0.000567
Al -0.023290 -1.843261 2.428894 0.003708 -0.003179 0.005296
Ga -0.000933 -1.844852 7.469170 0.002109 0.001009 -0.001120
Al -0.016688 -1.827590 -2.682937 0.002646 -0.007488 -0.011490
Al -0.027997 1.774023 4.929554 -0.002275 0.003042 0.001157
Al -0.033464 1.761716 -5.252980 -0.000707 0.001770 0.001899
Al -0.045043 1.760236 -0.120758 0.006920 0.007284 -0.016926
Al 3.158878 -3.680627 4.925881 -0.002299 0.001470 -0.000243
Al 3.139855 -3.696482 -5.255910 -0.001669 0.000786 0.002296
Al 3.151080 -3.687777 -0.149781 0.001988 0.005447 0.004307
Al 1.579905 -0.940123 4.923284 -0.000497 -0.001946 -0.008058
Al 1.564363 -0.966252 -5.232682 -0.001043 0.002975 0.003675
Al 1.582576 -0.948420 -0.166832 0.002588 0.004512 0.004587
Ga 3.118554 1.783706 4.922920 0.001081 0.000081 0.001882
Al 3.123602 1.767082 -5.250502 -0.001696 0.001577 0.003160
Al 3.135107 1.786026 -0.121983 0.001054 -0.013814 -0.010130
Al 6.289639 -3.669268 4.938839 -0.000189 0.000883 -0.005562
Ga 6.291005 -3.694217 -5.235773 -0.000166 -0.000999 0.000601
Ga 6.279841 -3.695730 -0.071477 -0.000359 0.000783 -0.006155
Al 4.722307 -0.940872 4.925043 -0.001656 -0.000330 -0.000640
Ga 4.703874 -0.943789 -5.233655 -0.001632 0.001097 -0.000601
Al 4.718068 -0.938672 -0.142708 -0.005048 0.005636 0.003768
Al -3.171081 1.783510 4.925260 -0.002521 0.001422 0.002098
Al -3.191358 1.778740 -5.256284 -0.001339 0.001284 0.001232
Al -3.147084 1.798153 -0.188645 -0.033341 0.000772 0.017553
Ga -0.013057 -3.670506 4.935041 0.000857 0.000337 -0.002465
Al -0.011930 -3.684699 -5.237759 -0.001832 0.000775 -0.003836
Ga 0.004215 -3.656804 -0.084862 -0.003953 -0.002771 -0.000497
Al -1.588914 -0.917828 4.936457 -0.002899 -0.001441 -0.012295
Al -1.579281 -0.937419 -5.228469 -0.002635 0.000764 0.001578
Ga -1.579366 -0.895913 -0.103038 -0.006255 -0.002579 -0.002767
N 1.518131 0.858984 4.302872 -0.004028 -0.002314 -0.006760
N 1.541189 0.858634 -5.842757 0.001410 -0.004003 -0.001386
N 1.549766 0.876942 -0.753926 -0.001978 -0.001665 -0.002109
N -0.021731 3.595677 4.328028 -0.001648 -0.002916 -0.000339
N -0.060313 3.568342 -5.870034 -0.004292 -0.003558 -0.002693
N -0.058451 3.567781 -0.751510 -0.002194 -0.001893 -0.004713
N 3.146645 -1.855490 4.327720 0.001161 -0.001102 -0.004951
N 3.109493 -1.885813 -5.863181 -0.005248 -0.002429 -0.003292
N 3.150236 -1.861545 -0.758607 -0.000298 -0.002570 -0.000403
N -4.735915 0.868946 4.306582 0.006262 -0.002705 -0.004537
N -4.774926 0.902896 -5.864879 0.003362 0.003801 -0.002438
N -4.753520 0.886456 -0.757833 0.000612 -0.002766 -0.002249
N -6.369533 3.622707 4.275452 -0.005444 0.001057 0.013247
N -6.318103 3.575217 -5.848312 0.004747 -0.002470 -0.002514
N -6.331851 3.552489 -0.696504 0.000224 0.009549 -0.004730
N -3.167571 -1.843188 4.346772 -0.000137 -0.001773 0.000453
N -3.143734 -1.840171 -5.825558 0.006008 0.003358 0.001550
N -3.189376 -1.835956 -0.705537 -0.000462 0.000143 0.000965
N -1.613250 0.891488 4.323318 0.004756 -0.000403 -0.004887
N -1.620088 0.873785 -5.846122 0.002508 -0.003596 -0.001947
N -1.655947 0.975648 -0.752469 0.031358 -0.023209 -0.018758
N -3.155117 3.587911 4.315059 0.007502 -0.003284 -0.002893
N -3.192239 3.598028 -5.842998 0.001988 -0.001276 -0.001322
N -3.156341 3.585655 -0.706333 0.002887 0.008413 -0.006743
N -0.011638 -1.804867 4.344001 0.000478 0.003677 -0.004230
N -0.019425 -1.852755 -5.802944 0.000761 -0.001036 0.001658
N 0.011621 -1.816531 -0.794356 0.001688 -0.000310 0.008040
N -0.024384 1.771913 1.744806 -0.003509 -0.002848 0.016470
N -0.019136 1.770347 6.865218 0.000052 -0.001254 -0.000824
N -0.023572 1.768074 -3.318674 -0.001624 -0.000321 0.000650
N 3.154762 -3.682172 1.796398 -0.002426 0.002513 -0.005885
N 3.149333 -3.678596 6.857655 -0.001993 0.000041 0.000226
N 3.183886 -3.671823 -3.322929 0.001624 0.003909 -0.002283
N 1.567037 -0.958775 1.793128 -0.006010 -0.000815 -0.007635
N 1.632472 -0.959701 6.796230 -0.008653 0.014753 0.016960
N 1.574944 -0.961927 -3.298636 -0.003438 0.001726 -0.001490
N 3.127256 1.783038 1.751276 -0.001646 -0.003338 0.017179
N 3.127217 1.793485 6.898628 -0.003068 -0.002120 0.003525
N 3.128266 1.730521 -3.321705 -0.000891 -0.003585 -0.003010
N 6.269447 -3.708298 1.908987 0.009758 0.011291 -0.012469
N 6.298829 -3.700535 6.859471 0.001315 -0.006013 -0.003109
N 6.250241 -3.702224 -3.272943 0.000525 0.001597 0.000475
N 4.721588 -0.950266 1.801890 -0.002307 -0.001595 -0.005217
N 4.692309 -0.918504 6.850379 -0.005811 0.004314 -0.001798
N 4.659788 -0.911903 -3.262431 0.004756 -0.009919 -0.004008
N -3.177485 1.774967 1.733244 0.000879 0.001426 0.011250
N -3.182641 1.790708 6.863284 0.000354 -0.000639 -0.000342
N -3.191739 1.743410 -3.329306 -0.000814 -0.005952 -0.001321
N -0.031587 -3.689876 1.909867 0.006720 0.010734 -0.012417
N -0.025958 -3.721941 6.907456 0.003701 0.002206 -0.001123
N -0.024119 -3.646642 -3.343654 -0.000382 0.008508 0.007114
N -1.632639 -0.966559 1.886623 0.015981 0.005418 -0.009881
N -1.578553 -0.890845 6.806230 -0.000089 0.001473 0.010276
N -1.569527 -0.924887 -3.307201 0.001697 0.003037 0.000358
