108
Energy=-1169071.885137 Lattice="9.481617 0.000000 0.000000 -4.743779 8.209908 0.000000 -0.000830 -0.000958 15.284548" Stress="-0.000001 -0.000001 0.000000 -0.000001 -0.000003 0.000000 0.000000 0.000000 0.000001" Properties=species:S:1:pos:R:3:forces:R:3
Al 1.568172 0.863283 2.408369 0.000222 0.000101 -0.000130
Al 1.564618 0.859502 7.491342 0.000116 0.000019 -0.000121
Al 1.564976 0.869383 -2.707485 0.000190 -0.000187 0.000373
Al -0.021107 3.613386 2.388316 0.000272 -0.000177 -0.000057
Al -0.024918 3.610002 7.523473 -0.000223 -0.000111 -0.000001
Al -0.030798 3.621549 -2.714327 0.000090 0.000246 -0.000015
Al 3.127141 -1.859547 2.406708 -0.000125 0.000115 -0.000057
Al 3.129893 -1.855131 7.504700 -0.000078 -0.000070 0.000076
Al 3.136293 -1.874814 -2.721799 -0.000310 0.000099 -0.000018
Al -4.780531 0.875745 2.424467 0.000125 0.000346 0.000269
Al -4.775747 0.867626 7.491583 0.000269 0.000441 -0.000088
Ga -4.776774 0.869708 -2.716989 0.000226 -0.000051 0.000055
Al -6.358422 3.597279 2.417046 0.000003 -0.000203 0.000108
Ga -6.342950 3.602953 7.494382 -0.000056 0.000024 0.000067
Ga -6.356714 3.603771 -2.712987 0.000080 0.000130 0.000152
Ga -3.177548 -1.870010 2.421110 -0.000171 0.000147 -0.000026
Ga -3.200350 -1.867950 7.474426 0.000017 0.000059 0.000122
Al -3.197443 -1.877207 -2.691444 -0.000046 0.000313 -0.000114
Al -1.598866 0.866139 2.421334 -0.000382 -0.000542 0.000247
Ga -1.603167 0.884241 7.500539 0.000137 0.000006 -0.000001
Ga -1.599318 0.886810 -2.711525 0.000284 -0.000169 -0.000057
Ga -3.177379 3.613967 2.428187 0.000084 -0.000069 -0.000149
Al -3.189266 3.615011 7.491390 0.000111 -0.000308 0.000062
Al -3.167316 3.621680 -2.716749 -0.000005 0.000000 -0.000015
Al -0.013349 -1.846130 2.410962 0.000068 0.000002 0.000133
Al 0.002947 -1.865888 7.483805 0.000132 0.000060 0.000322
Ga -0.001616 -1.859633 -2.691614 0.000206 0.000096 0.000034
Ga -0.011433 1.783549 4.939293 0.000079 0.000003 0.000066
Al -0.001685 1.796569 -5.245925 -0.000035 0.000146 0.000104
Ga -0.006796 1.787868 -0.136052 -0.000092 0.000106 -0.000032
Ga 3.147670 -3.675773 4.976860 -0.000353 0.000110 0.000080
Al 3.138004 -3.687903 -5.262634 -0.000126 -0.000075 0.000042
Al 3.145917 -3.675162 -0.165358 -0.000303 -0.000179 0.000795
Al 1.560451 -0.951735 4.950540 -0.000003 -0.000264 0.000134
Al 1.571153 -0.946376 -5.263256 0.000065 -0.000005 0.000188
Al 1.567928 -0.948565 -0.139133 0.000205 -0.000228 -0.000043
Al 3.146282 1.780100 4.946970 -0.000113 -0.000067 -0.000255
Al 3.131673 1.774999 -5.270072 -0.000027 0.000207 0.000055
Al 3.121877 1.782895 -0.124062 0.000211 -0.000319 0.000099
Al 6.305293 -3.694305 4.944091 0.000354 0.000367 0.000012
Al 6.287332 -3.692930 -5.234536 0.000012 0.000115 -0.000037
Al 6.294886 -3.692513 -0.149452 0.000199 0.000472 -0.000243
Al 4.707255 -0.938051 4.944198 0.000272 0.000053 0.000026
Al 4.706248 -0.954370 -5.247025 0.000042 -0.000053 0.000076
Ga 4.708310 -0.964688 -0.144534 -0.000154 -0.000135 -0.000065
Al -3.202526 1.770809 4.955477 -0.000289 0.000381 -0.000043
Al -3.197429 1.802048 -5.262191 -0.000091 0.000270 0.000105
Ga -3.186690 1.789747 -0.130231 -0.000027 -0.000057 -0.000005
Al -0.033494 -3.677867 4.945637 0.000030 -0.000170 -0.000328
Al -0.006579 -3.692963 -5.256877 -0.000002 0.000020 -0.000394
Ga -0.025581 -3.683591 -0.127658 0.000043 0.000025 -0.000265
Al -1.593898 -0.956772 4.948095 0.000038 -0.000544 0.000494
Ga -1.600750 -0.962723 -5.251925 0.000094 0.000031 0.000160
Al -1.598473 -0.959235 -0.131997 -0.000317 -0.000170 -0.000033
N 1.604942 0.843300 4.320925 0.000111 0.000324 -0.000066
N 1.556395 0.869245 -5.875833 0.000077 0.000003 0.000014
N 1.601887 0.847312 -0.778208 -0.000170 0.000062 -0.000204
N 0.011355 3.639196 4.291685 -0.000059 0.000026 -0.000025
N -0.020597 3.610682 -5.846407 0.000043 -0.000001 -0.000041
N -0.026350 3.656228 -0.787136 0.000176 -0.000126 -0.000209
N 3.133010 -1.821373 4.321240 -0.000010 0.000028 0.000232
N 3.138990 -1.860810 -5.859579 0.000155 0.000073 -0.000029
N 3.092853 -1.886645 -0.797011 -0.000079 0.000405 -0.000019
N -4.768098 0.874844 4.340041 -0.000069 -0.000049 0.000041
N -4.764061 0.867470 -5.864909 -0.000006 -0.000006 -0.000035
N -4.809993 0.897690 -0.747021 -0.000044 0.000188 0.000117
N -6.347421 3.605599 4.345309 -0.000163 -0.000108 -0.000083
N -6.347339 3.613932 -5.805851 0.000201 -0.000052 0.000081
N -6.385338 3.580095 -0.730740 -0.000140 0.000213 0.000010
N -3.181820 -1.863516 4.403986 -0.000482 -0.000212 -0.000025
N -3.228762 -1.889842 -5.839409 -0.000113 -0.000078 -0.000112
N -3.141593 -1.888616 -0.766023 -0.000092 -0.000201 0.000226
N -1.646234 0.847817 4.340136 0.000276 0.000406 -0.000639
N -1.600890 0.924365 -5.811147 0.000156 -0.000226 -0.000021
N -1.602572 0.830967 -0.741419 0.000347 -0.000136 0.000133
N -3.218829 3.589306 4.395270 0.000135 -0.000094 0.000064
N -3.185253 3.611696 -5.873785 -0.000172 -0.000101 -0.000055
N -3.146024 3.635115 -0.795678 0.000140 0.000010 0.000146
N -0.016648 -1.856054 4.335721 0.000132 -0.000094 -0.000088
N 0.026270 -1.886867 -5.882462 -0.000170 -0.000143 -0.000262
N -0.014756 -1.814782 -0.717534 -0.000033 0.000018 -0.000042
N -0.020253 1.781064 1.853728 0.000217 0.000219 -0.000011
N 0.022440 1.811569 6.915616 -0.000109 0.000233 -0.000027
N 0.029025 1.812582 -3.322866 -0.000145 -0.000037 -0.000160
N 3.178408 -3.660956 1.763085 -0.000274 0.000024 -0.000519
N 3.144827 -3.685885 6.957369 0.000252 0.000047 -0.000122
N 3.139938 -3.688735 -3.333444 0.000037 0.000151 -0.000119
N 1.562356 -0.951415 1.786516 -0.000046 0.000105 -0.000084
N 1.562615 -0.952241 6.876047 -0.000125 0.000015 -0.000055
N 1.601838 -0.924585 -3.344904 0.000015 -0.000005 -0.000082
N 3.135173 1.784608 1.800888 -0.000039 -0.000021 0.000019
N 3.135958 1.736722 6.865045 -0.000003 -0.000057 0.000174
N 3.093111 1.759599 -3.367986 -0.000135 -0.000185 -0.000131
N 6.301326 -3.735011 1.767877 0.000036 0.000145 0.000206
N 6.254448 -3.723096 6.847061 0.000006 -0.000006 -0.000089
N 6.256302 -3.662734 -3.324870 -0.000198 -0.000426 -0.000071
N 4.677265 -0.929914 1.832761 0.000205 -0.000287 0.000032
N 4.666614 -0.925325 6.860475 -0.000123 -0.000299 -0.000114
N 4.717764 -1.001272 -3.325979 0.000194 -0.000052 0.000059
N -3.186249 1.738846 1.842186 -0.000012 0.000075 -0.000036
N -3.230306 1.804738 6.872603 -0.000354 -0.000081 0.000262
N -3.190503 1.837227 -3.352835 -0.000045 -0.000134 -0.000093
N -0.064653 -3.664130 1.847726 0.000187 -0.000052 -0.000033
N 0.014468 -3.662400 6.861931 0.000031 -0.000176 0.000085
N 0.021163 -3.708013 -3.344405 -0.000083 -0.000046 0.000207
N -1.563541 -0.930207 1.786465 0.000045 0.000214 -0.000058
N -1.555792 -0.974642 6.860301 -0.000190 0.000131 -0.000278
N -1.640811 -0.981621 -3.290166 -0.000438 0.000013 0.000064
