108
Energy=-1.214847e+06 Lattice="9.488012e+00 0.000000e+00 0.000000e+00 -4.745132e+00 8.214801e+00 0.000000e+00 2.154588e-04 5.941682e-03 1.529725e+01" Stress="-8.082600e-05 -1.117511e-04 6.296517e-05 -1.168495e-04 -4.384654e-04 2.373810e-04 6.606887e-05 2.508256e-04 1.966572e-04" Properties=species:S:1:pos:R:3:forces:R:3 Config_type=AlGaN_super3_17_0_26.xyz
Al 1.559169e+00 8.859668e-01 2.437762e+00 -1.635745e-05 -1.073910e-04 3.128039e-04
Al 1.563470e+00 8.945791e-01 7.497744e+00 -1.091424e-04 6.142443e-05 -2.218215e-05
Al 1.568173e+00 8.854018e-01 -2.737567e+00 -2.705923e-07 2.421100e-05 2.456655e-05
Al -2.176111e-02 3.607762e+00 2.416162e+00 -2.402695e-04 -8.061429e-05 2.091766e-04
Al -2.959934e-02 3.603135e+00 7.506151e+00 -4.272638e-05 -1.027349e-04 5.814482e-05
Al -6.952810e-03 3.612779e+00 -2.722571e+00 -1.546205e-04 -2.875945e-05 -2.222326e-04
Al 3.150375e+00 -1.863964e+00 2.406918e+00 1.860472e-04 1.471225e-04 4.237035e-04
Al 3.144251e+00 -1.865644e+00 7.501874e+00 -3.371120e-04 1.430183e-04 -2.923806e-04
Ga 3.149962e+00 -1.868889e+00 -2.701575e+00 -2.445921e-04 1.202016e-04 2.081845e-04
Al -4.781059e+00 8.697189e-01 2.439412e+00 9.862954e-06 3.696777e-05 -2.313712e-04
Al -4.774774e+00 8.887145e-01 7.481631e+00 -6.043725e-05 1.191322e-04 7.641127e-05
Al -4.776069e+00 8.781930e-01 -2.719137e+00 -7.151381e-05 -3.144144e-04 -7.298837e-05
Al -6.356274e+00 3.601637e+00 2.421300e+00 -3.654208e-05 4.668204e-04 -7.372723e-05
Al -6.345713e+00 3.594664e+00 7.511443e+00 1.243031e-04 3.468092e-05 4.755302e-05
Al -6.366747e+00 3.600828e+00 -2.730681e+00 1.808022e-04 1.069011e-04 -1.220176e-04
Ga -3.188190e+00 -1.858573e+00 2.401611e+00 -4.866128e-05 -2.020718e-04 -3.187801e-05
Ga -3.195852e+00 -1.861150e+00 7.484586e+00 3.018407e-06 6.907043e-05 8.767612e-05
Al -3.189570e+00 -1.883666e+00 -2.679192e+00 -8.332138e-05 5.229878e-05 1.801274e-04
Al -1.592787e+00 8.699225e-01 2.432671e+00 -7.972909e-05 4.456648e-04 1.118737e-04
Al -1.601797e+00 8.998047e-01 7.487033e+00 3.945089e-05 -1.819878e-04 -8.930960e-05
Ga -1.606783e+00 8.808459e-01 -2.710498e+00 2.539939e-04 1.439569e-05 -3.566039e-05
Ga -3.176468e+00 3.619488e+00 2.442119e+00 -2.241240e-05 4.238432e-06 2.485122e-05
Al -3.182348e+00 3.607708e+00 7.483187e+00 -5.376674e-05 -5.449365e-05 -3.884002e-05
Ga -3.184488e+00 3.602433e+00 -2.719627e+00 -1.992909e-05 -1.131812e-04 2.859439e-05
Al -3.034724e-02 -1.854903e+00 2.428149e+00 2.159508e-04 -3.111056e-04 1.058628e-04
Ga -1.511083e-02 -1.866251e+00 7.501270e+00 4.208752e-05 -1.197484e-04 -9.043131e-05
Ga -2.263445e-02 -1.867400e+00 -2.711190e+00 1.790681e-04 -1.039763e-04 1.658847e-05
Al -3.260648e-02 1.791553e+00 4.959477e+00 -1.195747e-05 1.794698e-04 4.346824e-06
Al -1.507100e-02 1.794885e+00 -5.272221e+00 6.315264e-05 7.349727e-05 1.788785e-04
Ga -1.989549e-02 1.797759e+00 -1.351359e-01 -1.148755e-04 1.746131e-04 1.690116e-05
Al 3.145747e+00 -3.689877e+00 4.974078e+00 1.206728e-04 -1.747996e-04 -1.265563e-04
Al 3.140290e+00 -3.705103e+00 -5.285148e+00 -7.775043e-05 2.724601e-04 -4.654332e-04
Al 3.165531e+00 -3.688454e+00 -1.345426e-01 1.164425e-05 1.567245e-04 -8.715994e-05
Ga 1.566811e+00 -9.478193e-01 4.947035e+00 1.701222e-06 2.956728e-05 2.697567e-05
Al 1.567934e+00 -9.466042e-01 -5.275025e+00 2.177863e-04 -1.332926e-04 1.225203e-04
Ga 1.564582e+00 -9.530082e-01 -1.108506e-01 -2.682437e-04 2.711663e-04 1.387585e-04
Al 3.146225e+00 1.792060e+00 4.964379e+00 -7.767469e-05 -5.539115e-05 -4.304072e-05
Al 3.137011e+00 1.789417e+00 -5.265683e+00 8.319803e-05 6.078694e-05 4.631950e-05
Ga 3.138959e+00 1.785526e+00 -1.451337e-01 3.440526e-05 -1.349328e-04 -1.301287e-04
Ga 6.301732e+00 -3.701945e+00 4.957696e+00 -4.019496e-05 -2.014536e-04 6.082415e-05
Al 6.301713e+00 -3.713676e+00 -5.251517e+00 -2.732680e-05 2.559157e-05 5.249994e-05
Al 6.292889e+00 -3.686458e+00 -1.553526e-01 9.590598e-05 1.360158e-04 2.231242e-04
Al 4.714596e+00 -9.385893e-01 4.961169e+00 -8.725095e-04 -1.071584e-04 -2.195124e-04
Ga 4.714654e+00 -9.481379e-01 -5.250407e+00 -1.654795e-04 -1.486690e-05 2.013247e-04
Al 4.730678e+00 -9.564943e-01 -1.495974e-01 -6.664377e-05 3.119469e-04 -7.019837e-05
Al -3.185543e+00 1.780179e+00 4.963687e+00 1.358476e-04 9.756606e-05 -4.683196e-05
Al -3.190895e+00 1.798074e+00 -5.289211e+00 8.404112e-05 -3.131425e-05 2.060865e-04
Ga -3.191311e+00 1.772216e+00 -1.189316e-01 2.665190e-05 5.635464e-05 8.891819e-05
Al -2.844353e-02 -3.698575e+00 4.961484e+00 2.435259e-04 2.547390e-04 -1.834503e-04
Al -2.006366e-02 -3.712725e+00 -5.269127e+00 1.807430e-06 -1.239197e-04 1.616782e-04
Ga -3.724335e-02 -3.688291e+00 -1.321149e-01 4.520326e-05 5.749827e-05 -1.164581e-04
Al -1.602404e+00 -9.333405e-01 4.952813e+00 -1.758865e-05 1.390987e-04 5.272854e-04
Ga -1.601355e+00 -9.483675e-01 -5.252324e+00 -1.028995e-04 -5.412203e-05 4.956460e-05
Al -1.615815e+00 -9.585355e-01 -1.324303e-01 -2.003190e-04 1.806059e-05 -1.074617e-04
N 1.557958e+00 9.322562e-01 4.347153e+00 1.828723e-04 2.281373e-05 2.969874e-05
N 1.559948e+00 8.776704e-01 -5.875173e+00 7.971634e-05 1.032202e-04 -4.608209e-06
N 1.556299e+00 8.689509e-01 -8.225689e-01 1.945311e-04 1.333088e-04 -1.073105e-04
N -6.961519e-02 3.591997e+00 4.330273e+00 6.399149e-05 -1.053592e-04 -4.597268e-05
N -2.043166e-02 3.607621e+00 -5.873924e+00 -4.491899e-05 7.535225e-07 1.777917e-05
N -2.312874e-02 3.656605e+00 -7.951679e-01 -3.707107e-05 -1.131860e-05 1.042666e-04
N 3.188184e+00 -1.894199e+00 4.325168e+00 2.290038e-04 2.516557e-04 -1.740540e-04
N 3.105925e+00 -1.892276e+00 -5.885134e+00 -1.101722e-04 2.987113e-05 2.082091e-04
N 3.177089e+00 -1.889868e+00 -7.199424e-01 7.870984e-05 5.362029e-05 -1.035181e-04
N -4.770868e+00 8.750422e-01 4.360810e+00 -5.677914e-06 1.219441e-04 -9.213095e-05
N -4.771943e+00 9.187411e-01 -5.898995e+00 -2.588251e-05 -5.971724e-05 -3.006276e-04
N -4.768154e+00 8.323733e-01 -8.046320e-01 -3.071637e-05 -1.307231e-04 1.511115e-04
N -6.310548e+00 3.587683e+00 4.329181e+00 1.801564e-04 -1.258359e-04 1.340477e-04
N -6.350686e+00 3.605279e+00 -5.864121e+00 -7.693085e-05 6.708183e-05 -4.913116e-05
N -6.393175e+00 3.632258e+00 -8.102153e-01 -1.510480e-05 -6.356282e-05 -8.381826e-05
N -3.188509e+00 -1.814843e+00 4.382871e+00 2.982133e-04 -1.943821e-04 -2.167512e-04
N -3.187358e+00 -1.917200e+00 -5.853433e+00 2.592016e-05 1.734016e-05 -9.027735e-05
N -3.184138e+00 -1.869442e+00 -7.420198e-01 -4.528566e-05 2.052389e-05 2.723797e-05
N -1.603397e+00 8.785108e-01 4.352852e+00 1.198102e-04 -1.027396e-04 -2.285134e-05
N -1.600489e+00 9.226957e-01 -5.891741e+00 -1.394551e-04 1.595822e-05 4.303065e-05
N -1.604115e+00 8.322206e-01 -7.407123e-01 1.565700e-04 -1.499973e-04 7.505459e-06
N -3.180137e+00 3.615888e+00 4.420959e+00 -2.885123e-04 9.653378e-05 1.627249e-04
N -3.186216e+00 3.611077e+00 -5.888164e+00 3.549205e-05 -7.592122e-05 -4.945011e-05
N -3.142624e+00 3.634143e+00 -7.359678e-01 -1.123889e-04 -9.481538e-05 3.333161e-05
N -6.722760e-02 -1.887031e+00 4.343267e+00 6.541784e-05 -3.832891e-04 2.253355e-04
N 1.840499e-02 -1.895057e+00 -5.827848e+00 -6.373774e-05 2.370014e-04 -1.101592e-04
N -5.702585e-02 -1.839047e+00 -7.389692e-01 3.199327e-05 -1.057571e-04 -7.218086e-05
N -1.976342e-02 1.787039e+00 1.851303e+00 -2.149353e-04 8.743111e-05 -8.761828e-05
N -2.066129e-02 1.792091e+00 6.884954e+00 -5.965880e-05 1.244106e-04 -5.080187e-05
N 1.740831e-02 1.810498e+00 -3.348840e+00 -1.241243e-05 1.720653e-04 -1.922805e-04
N 3.187160e+00 -3.670067e+00 1.781367e+00 -2.944410e-04 -5.129195e-06 -2.087758e-05
N 3.147128e+00 -3.686375e+00 6.897226e+00 -1.409613e-05 1.112455e-04 9.118357e-06
N 3.183142e+00 -3.717956e+00 -3.373407e+00 1.829641e-04 2.245702e-05 5.572844e-04
N 1.558539e+00 -9.448050e-01 1.878894e+00 2.004689e-04 -2.909647e-04 -1.099947e-04
N 1.602978e+00 -9.199506e-01 6.920065e+00 1.775368e-04 -2.654771e-04 3.961972e-05
N 1.566756e+00 -9.083688e-01 -3.361316e+00 -3.551654e-05 -2.389385e-05 -2.091462e-04
N 3.138097e+00 1.785065e+00 1.843362e+00 6.816342e-04 -2.793264e-04 -3.835919e-05
N 3.137510e+00 1.792650e+00 6.885129e+00 9.948391e-06 1.925042e-05 -5.366730e-05
N 3.142227e+00 1.784051e+00 -3.337829e+00 3.252414e-05 -1.347765e-05 -2.924979e-06
N 6.301610e+00 -3.741272e+00 1.776437e+00 3.828819e-04 4.279491e-05 -2.154952e-04
N 6.304010e+00 -3.745649e+00 6.924774e+00 2.426334e-05 6.451228e-06 -8.336058e-05
N 6.301262e+00 -3.690211e+00 -3.322947e+00 6.049363e-05 1.325849e-05 -2.263974e-05
N 4.681127e+00 -9.173873e-01 1.772251e+00 -1.015817e-04 -2.203655e-05 7.496027e-06
N 4.672720e+00 -9.214715e-01 6.872127e+00 2.177018e-04 -2.077456e-05 1.084840e-04
N 4.766450e+00 -9.324509e-01 -3.276930e+00 3.984427e-05 1.075957e-04 1.719092e-05
N -3.189586e+00 1.738187e+00 1.860102e+00 -1.671053e-04 -1.711751e-04 4.301078e-05
N -3.186394e+00 1.785841e+00 6.885221e+00 2.570720e-05 6.683621e-06 -1.159484e-05
N -3.229118e+00 1.759807e+00 -3.374346e+00 1.633194e-04 1.429666e-04 -1.874464e-04
N -6.442542e-02 -3.667613e+00 1.843728e+00 -7.824669e-05 -1.398154e-04 1.722010e-05
N -2.939374e-02 -3.737361e+00 6.876747e+00 -1.643315e-04 -1.559932e-04 5.242450e-05
N -6.319961e-02 -3.721652e+00 -3.357436e+00 -1.429615e-04 -2.180678e-05 1.398426e-04
N -1.562876e+00 -9.235738e-01 1.785838e+00 -1.529144e-04 -2.217988e-04 -1.177858e-04
N -1.599728e+00 -8.959023e-01 6.860376e+00 4.027068e-05 -1.179809e-04 -3.192521e-04
N -1.650851e+00 -9.766467e-01 -3.293252e+00 -2.831622e-04 -8.474346e-05 7.242765e-06
