108
Energy=-2633886.234482 Lattice="9.577068 0.000000 0.000000 -4.798550 8.271251 0.000000 0.079050 0.082670 15.522639" Stress="-0.000229 0.000019 0.000015 0.000019 -0.000230 0.000016 0.000015 0.000016 -0.000191" Properties=species:S:1:pos:R:3:forces:R:3
Al 1.615114 0.931507 2.458342 -0.000060 -0.008399 -0.001509
Ga 1.612968 0.940406 7.617699 0.000461 -0.009350 0.000336
Ga 1.536756 0.858944 -2.763370 -0.000622 -0.007709 -0.000593
Al 0.030379 3.676379 2.470868 -0.001910 -0.001198 -0.002787
Ga 0.030677 3.679286 7.621952 -0.001653 -0.000443 0.002304
Ga -0.047320 3.599133 -2.768372 -0.000470 -0.000728 0.001686
Ga 3.234083 -1.843645 2.460748 -0.002578 0.000266 -0.002178
Ga 3.237827 -1.844625 7.614501 -0.001266 0.000625 0.001006
Ga 3.160256 -1.923482 -2.755387 -0.000422 0.000137 0.001085
Al -4.791190 0.936745 2.472849 0.000756 -0.006341 -0.003305
Ga -4.785992 0.942127 7.617493 0.000731 -0.008321 0.000055
Ga -4.861966 0.862079 -2.757037 0.000918 -0.008199 0.000077
Ga -6.379947 3.673404 2.469640 -0.000910 -0.000694 -0.002505
Ga -6.376331 3.685220 7.619866 0.000360 -0.000474 0.002123
Ga -6.452233 3.605753 -2.759720 -0.000448 0.000473 0.001819
Ga -3.170314 -1.841779 2.470097 -0.000803 0.000133 -0.002646
Ga -3.163638 -1.844452 7.620971 -0.000200 0.001732 0.001647
Ga -3.240128 -1.924617 -2.761767 0.000094 0.000764 0.001333
Ga -1.611763 0.945353 2.470550 0.008582 -0.004710 -0.005535
Ga -1.607654 0.947626 7.621087 0.008319 -0.005155 -0.001475
Ga -1.686317 0.866213 -2.760284 0.009458 -0.004576 -0.001248
Ga -3.199856 3.680795 2.471086 0.007679 0.003386 -0.003955
Ga -3.198914 3.687291 7.618405 0.007896 0.003505 0.000139
Ga -3.276151 3.606927 -2.754098 0.008012 0.003685 0.000228
Ga 0.006418 -1.840432 2.473065 0.007542 0.003968 -0.005114
Ga 0.011583 -1.838376 7.618370 0.008038 0.004664 -0.000118
Ga -0.063166 -1.917004 -2.749575 0.007228 0.004250 0.000726
Ga 0.031706 1.849977 5.031222 -0.007004 -0.004806 -0.000391
Al -0.046515 1.771859 -5.335597 -0.006853 -0.003296 0.000218
Ga -0.042859 1.769316 -0.171388 -0.005608 -0.001850 0.014542
Ga 3.241724 -3.678581 5.040199 -0.007274 -0.003674 -0.000265
Ga 3.168049 -3.760439 -5.330614 -0.007447 -0.003727 -0.000487
Ga 3.163692 -3.751414 -0.171321 -0.005059 -0.001422 0.013870
Ga 1.650675 -0.933164 5.038064 -0.008600 0.005808 -0.002118
Ga 1.571664 -1.011910 -5.331177 -0.008326 0.005285 -0.001889
Al 1.586093 -0.992330 -0.196195 -0.008795 0.002861 0.018273
Ga 3.201838 1.848743 5.033653 -0.000498 -0.002222 0.001259
Ga 3.118378 1.775457 -5.332862 0.000369 -0.001745 0.000717
Ga 3.126496 1.770135 -0.173791 0.002585 0.001264 0.016855
Ga 6.411101 -3.675599 5.039255 -0.000406 -0.000510 0.001433
Al 6.335128 -3.758966 -5.334034 -0.000401 0.000125 0.001444
Ga 6.335105 -3.754522 -0.175945 0.001924 0.001858 0.017539
Ga 4.824756 -0.930899 5.041086 -0.001303 0.008649 -0.000328
Ga 4.749354 -1.016419 -5.331167 -0.000608 0.008730 -0.000242
Ga 4.748301 -1.008631 -0.170953 0.001733 0.010471 0.014379
Ga -3.199265 1.854024 5.039360 0.000280 -0.001367 0.000724
Ga -3.270399 1.775722 -5.333713 0.000763 -0.001487 0.000674
Ga -3.273423 1.776170 -0.172795 0.002937 0.001186 0.015886
Ga 0.011891 -3.671464 5.045238 0.000746 0.000049 0.000742
Ga -0.068955 -3.750692 -5.330036 0.000973 -0.000174 0.001369
Ga -0.059046 -3.744928 -0.170246 0.002362 0.003462 0.014162
Ga -1.575889 -0.928352 5.047546 -0.000323 0.009062 -0.000706
Ga -1.650961 -1.009619 -5.330475 -0.000936 0.009424 -0.000725
Ga -1.647254 -1.005032 -0.171208 0.002386 0.009935 0.012272
N 1.614252 0.936081 4.396103 0.000129 -0.008464 -0.012377
N 1.519268 0.867393 -5.946390 -0.010025 -0.002971 0.004124
N 1.540543 0.846135 -0.804979 0.000623 -0.017708 0.006587
N 0.027291 3.680886 4.401704 -0.001083 0.000279 -0.014267
N -0.033312 3.590763 -5.938439 0.009687 -0.005834 0.006846
N -0.048620 3.601227 -0.809472 -0.000878 0.000411 0.000257
N 3.235901 -1.846383 4.419369 -0.000833 0.000336 -0.001434
N 3.158905 -1.926574 -5.952598 -0.001491 0.000666 -0.001966
N 3.148325 -1.910673 -0.796570 -0.011024 0.006533 0.005328
N -4.786907 0.939714 4.403838 0.001124 -0.008349 -0.012100
N -4.864501 0.860762 -5.951225 0.000559 -0.008277 0.000964
N -4.861379 0.862869 -0.803199 0.001227 -0.007716 0.002212
N -6.374435 3.682877 4.423284 0.000006 0.000637 -0.000785
N -6.468564 3.613245 -5.944176 -0.010239 0.006536 0.002416
N -6.450030 3.606321 -0.801655 0.000891 0.000570 0.001521
N -3.164608 -1.842250 4.423946 -0.000090 0.000831 -0.001226
N -3.241171 -1.943213 -5.943504 0.000111 -0.011239 0.002823
N -3.239652 -1.922727 -0.804359 0.000259 0.002017 0.001227
N -1.612117 0.943210 4.422970 0.008751 -0.005398 0.002648
N -1.669736 0.874823 -5.944549 0.018058 -0.000300 0.005923
N -1.685843 0.867162 -0.803574 0.009507 -0.004109 0.004660
N -3.199907 3.686648 4.424521 0.007763 0.004018 0.000814
N -3.277267 3.607323 -5.950541 0.007767 0.004441 0.000447
N -3.274735 3.608651 -0.799658 0.008666 0.004204 0.002799
N 0.008269 -1.840404 4.425870 0.007312 0.004074 0.000374
N -0.066664 -1.920421 -5.950677 0.007887 0.004374 -0.000289
N -0.043975 -1.903359 -0.788096 0.017796 0.009860 0.003986
N 0.048034 1.859215 1.858966 0.000015 -0.001482 -0.005422
N 0.031488 1.851092 6.990368 -0.008067 -0.004157 -0.000468
N -0.046693 1.768975 -3.402947 -0.007409 -0.004502 -0.011847
N 3.258619 -3.690448 1.851523 -0.000309 -0.011307 -0.008304
N 3.242343 -3.678648 6.998132 -0.007734 -0.003969 0.000126
N 3.162249 -3.756590 -3.377134 -0.008184 -0.003280 0.001147
N 1.637469 -0.927353 1.846484 -0.007630 0.015999 -0.024150
N 1.651586 -0.931827 6.995050 -0.008932 0.004973 0.001962
N 1.575124 -1.013804 -3.378804 -0.008780 0.004940 0.003028
N 3.203934 1.827109 1.860455 -0.002294 -0.014520 -0.007459
N 3.202549 1.851946 6.995165 0.000502 -0.000572 -0.002237
N 3.126773 1.772914 -3.378855 0.000591 -0.000981 -0.000890
N 6.394033 -3.685286 1.856637 -0.011329 -0.007822 -0.011558
N 6.412181 -3.675099 6.995658 0.000208 -0.000001 -0.001812
N 6.337183 -3.754892 -3.401159 0.000409 0.000062 -0.013905
N 4.823195 -0.907647 1.852127 -0.003028 0.015321 -0.009687
N 4.826701 -0.930254 6.997709 -0.000395 0.008440 0.000008
N 4.748748 -1.011337 -3.377579 -0.000843 0.008645 0.000992
N -3.217417 1.842234 1.854059 -0.011003 -0.009043 -0.010874
N -3.197027 1.854940 6.997088 0.001326 -0.000795 -0.002239
N -3.273887 1.775893 -3.379024 0.001006 -0.000613 -0.001514
N 0.008782 -3.674803 1.844184 -0.001346 -0.002812 -0.013461
N 0.011725 -3.671520 7.000154 0.000754 -0.000138 -0.001678
N -0.063861 -3.750097 -3.374121 0.000967 0.000357 -0.001347
N -1.578557 -0.931296 1.840833 -0.002897 0.007130 -0.011691
N -1.575395 -0.927382 7.002539 -0.000456 0.008909 0.000263
N -1.650410 -1.008472 -3.376008 0.000046 0.008617 0.000704
