108
Energy=-1581051.222045 Lattice="9.535533 0.000000 0.000000 -4.772692 8.251409 0.000000 0.002009 -0.001768 15.410086" Stress="0.000002 -0.000001 0.000001 -0.000001 -0.000003 -0.000001 0.000001 -0.000001 0.000004" Properties=species:S:1:pos:R:3:forces:R:3
Al 1.566074 0.868859 2.410418 -0.000366 0.000163 0.000341
Al 1.560223 0.883578 7.601014 -0.000019 0.000045 0.000530
Al 1.566407 0.869415 -2.742831 0.000059 0.000391 -0.002282
Al -0.028743 3.637754 2.383815 0.000030 0.000106 0.000449
Al -0.014157 3.614051 7.590985 -0.000052 -0.000197 0.000006
Ga -0.023032 3.622003 -2.712502 -0.000121 0.000581 0.000384
Al 3.162722 -1.882075 2.375101 -0.000195 0.000050 0.000187
Ga 3.145830 -1.882371 7.581236 -0.000243 0.000236 0.000158
Ga 3.151653 -1.865728 -2.695415 0.000037 -0.000170 0.000170
Ga -4.792574 0.866639 2.411410 0.000228 0.000091 0.000340
Ga -4.793084 0.899327 7.585073 0.000268 0.000067 -0.000133
Al -4.786361 0.883201 -2.725996 0.000181 0.000344 -0.001445
Ga -6.391316 3.634605 2.418468 -0.000132 0.000265 0.000407
Al -6.377603 3.632969 7.587500 0.000345 -0.001061 -0.000159
Ga -6.380988 3.624718 -2.742946 -0.000281 -0.000098 0.000220
Al -3.211580 -1.879701 2.381389 0.000094 -0.000169 -0.000094
Ga -3.186054 -1.892546 7.594296 -0.000206 0.000196 0.000232
Al -3.193892 -1.864859 -2.712071 0.001107 0.000266 -0.000001
Ga -1.613650 0.881196 2.415756 0.000346 -0.000044 0.000314
Ga -1.609961 0.893249 7.590265 0.000360 0.000028 0.000596
Al -1.619907 0.877284 -2.754538 -0.000802 -0.000448 0.002103
Al -3.190689 3.636388 2.431725 0.000062 0.000086 0.000094
Al -3.216913 3.628972 7.566893 0.000160 -0.000799 -0.000341
Al -3.207833 3.619020 -2.732430 0.000961 -0.000568 0.000754
Ga -0.012480 -1.868595 2.403100 -0.000023 -0.000046 0.000337
Al -0.014508 -1.885502 7.587357 0.000031 0.000140 0.000299
Ga -0.022410 -1.859294 -2.728212 -0.000525 0.000185 0.000504
Ga -0.021175 1.797101 5.000123 0.000024 0.000572 0.000291
Al -0.011958 1.788911 -5.267809 -0.001691 -0.000941 -0.003341
Ga -0.017826 1.781080 -0.164027 -0.000832 0.000180 -0.000123
Ga 3.150387 -3.722231 4.985514 0.000112 0.000384 -0.000275
Ga 3.147746 -3.726281 -5.286618 0.000217 0.000262 -0.000098
Al 3.155547 -3.698681 -0.137697 -0.000161 -0.000558 -0.000316
Ga 1.568020 -0.961177 4.997769 0.000044 0.000126 0.000370
Al 1.547387 -0.943678 -5.283921 0.000538 0.000002 -0.002254
Al 1.575644 -0.951433 -0.149494 -0.000402 -0.000300 0.000141
Ga 3.154824 1.798898 5.012058 -0.000047 -0.000042 0.000490
Al 3.146989 1.799641 -5.284379 -0.001858 0.000548 0.000622
Ga 3.143358 1.777899 -0.168438 0.000535 0.000383 0.000081
Ga 6.338272 -3.707575 4.998011 -0.000281 -0.000045 -0.000235
Al 6.348925 -3.716895 -5.285840 -0.000349 0.000717 0.000411
Al 6.326049 -3.682785 -0.150536 0.000037 -0.000069 -0.000031
Ga 4.754942 -0.958723 4.974782 -0.000345 -0.000203 -0.000179
Ga 4.755116 -0.948141 -5.244167 -0.000036 -0.000173 -0.000054
Al 4.753057 -0.971647 -0.171230 0.000631 0.000422 0.000770
Al -3.208216 1.813369 4.995188 0.000084 0.000036 0.000104
Al -3.210113 1.808972 -5.254728 0.000153 -0.001401 -0.000535
Ga -3.196858 1.795500 -0.179371 0.000452 0.000040 -0.000028
Al -0.010303 -3.715009 5.014380 0.000049 -0.000077 0.000170
Al -0.025667 -3.706760 -5.296482 0.000036 0.000005 -0.001720
Ga -0.008912 -3.697306 -0.158988 0.000151 -0.000225 0.000164
Ga -1.611423 -0.962782 4.999975 -0.000213 -0.000024 0.000288
Al -1.603199 -0.956975 -5.268635 -0.000201 0.000345 -0.000210
Al -1.623259 -0.960099 -0.174515 -0.000063 0.000133 -0.000376
N 1.566784 0.873551 4.321281 0.000053 -0.000016 -0.000770
N 1.563629 0.879567 -5.887744 -0.000284 0.000153 -0.000285
N 1.564095 0.824275 -0.836831 0.000213 -0.000093 0.000819
N -0.022519 3.628271 4.303009 0.000081 -0.000175 -0.000652
N 0.016703 3.600115 -5.901940 0.000513 0.000065 0.000526
N -0.026704 3.674636 -0.730811 0.000118 0.000104 -0.000018
N 3.157021 -1.878111 4.302400 -0.000329 -0.000097 -0.000141
N 3.119316 -1.848546 -5.863728 -0.000490 0.000147 0.000274
N 3.152991 -1.874440 -0.706952 -0.000264 -0.000114 -0.000119
N -4.753135 0.902426 4.389980 0.000103 0.000195 -0.000379
N -4.795446 0.928442 -5.847785 0.002695 -0.000319 -0.000112
N -4.791673 0.833209 -0.814744 -0.000346 -0.000537 0.001272
N -6.339628 3.654144 4.397562 0.000178 0.000081 -0.000358
N -6.379936 3.628617 -5.891942 -0.000258 0.000210 -0.000057
N -6.425897 3.654764 -0.763370 -0.000108 -0.000082 -0.000241
N -3.194065 -1.877296 4.297867 0.000131 0.000022 0.000076
N -3.159535 -1.894313 -5.850071 0.000092 -0.000516 0.000248
N -3.196176 -1.876386 -0.784835 -0.000262 0.000082 0.000227
N -1.656016 0.901038 4.397376 0.000212 -0.000145 -0.000518
N -1.625429 0.884762 -5.829862 0.001626 0.000428 0.001235
N -1.611402 0.830691 -0.828288 0.000231 -0.000010 -0.000867
N -3.246797 3.609274 4.357799 -0.000107 -0.000063 -0.000245
N -3.252901 3.597990 -5.926105 0.000013 0.000626 -0.000154
N -3.159540 3.656418 -0.822682 -0.000156 0.000367 -0.000405
N -0.019482 -1.923260 4.384968 -0.000014 -0.000161 -0.000371
N -0.024586 -1.872908 -5.891865 -0.000163 -0.000161 -0.000141
N -0.017547 -1.819576 -0.743626 0.000073 -0.000019 -0.000040
N 0.018327 1.810025 1.816344 0.000306 -0.000041 0.000362
N 0.020764 1.815209 6.986014 0.000000 -0.000021 -0.000247
N -0.021935 1.750978 -3.355938 0.000954 -0.000367 0.001759
N 3.151085 -3.714690 1.792574 -0.000660 0.000033 0.000030
N 3.163670 -3.763182 6.981690 -0.000166 -0.000038 0.000157
N 3.119414 -3.729577 -3.321370 -0.000134 -0.000193 0.000023
N 1.610543 -0.928127 1.770077 -0.000436 0.000082 0.000014
N 1.527224 -0.929673 6.986981 -0.000252 0.000145 -0.000444
N 1.569780 -0.916719 -3.384925 -0.000297 0.000977 0.002290
N 3.112964 1.770479 1.804059 0.000001 -0.000113 -0.000036
N 3.106545 1.816749 6.997616 0.000005 0.000593 0.000013
N 3.153752 1.747694 -3.362503 -0.000422 -0.000435 0.000884
N 6.296996 -3.682468 1.767070 0.000440 -0.000043 0.000023
N 6.336090 -3.759241 6.983480 -0.000150 0.000356 -0.000110
N 6.332881 -3.657228 -3.372813 -0.000048 -0.000325 -0.000633
N 4.748961 -1.001356 1.759864 0.000234 0.000170 -0.001096
N 4.751871 -0.959465 6.950028 -0.000013 -0.000045 -0.000493
N 4.786678 -0.935851 -3.274698 -0.000335 0.000007 0.000118
N -3.203105 1.846805 1.795592 -0.000095 0.000048 -0.000017
N -3.201683 1.842492 6.909885 -0.000168 0.000528 0.000154
N -3.207207 1.802312 -3.332013 0.000273 -0.000211 0.000145
N 0.025703 -3.734154 1.807367 0.000114 -0.000102 -0.000062
N -0.020495 -3.704968 6.957424 0.000145 -0.000139 -0.000229
N 0.023353 -3.725148 -3.384793 -0.000406 0.000193 0.001392
N -1.652973 -0.976384 1.747190 0.000063 -0.000066 -0.000244
N -1.567262 -0.977987 6.977479 -0.000087 -0.000199 -0.000391
N -1.651572 -0.935823 -3.353214 -0.000309 -0.000500 -0.000261
