108
Energy=-2267683.832420 Lattice="9.620346 0.000000 0.000000 -4.809316 8.330193 0.000000 0.001221 -0.000855 15.597137" Stress="0.000000 0.000000 -0.000000 0.000000 0.000000 0.000000 0.000000 0.000000 -0.000000" Properties=species:S:1:pos:R:3:forces:R:3
Al 1.580433 0.895404 2.446595 0.000011 0.000013 -0.000032
Al 1.577694 0.879007 7.642824 -0.000000 0.000015 -0.000015
Al 1.574984 0.889309 -2.730853 -0.000003 0.000014 -0.000027
Al -0.005890 3.663085 2.450522 0.000016 0.000008 -0.000009
Ga -0.020265 3.662188 7.634747 0.000000 0.000002 -0.000017
Ga -0.017995 3.654332 -2.728722 -0.000015 0.000001 -0.000010
Ga 3.195400 -1.883816 2.478552 0.000017 0.000025 -0.000006
Ga 3.180955 -1.892710 7.626967 -0.000005 0.000006 -0.000002
Ga 3.178318 -1.889241 -2.749159 -0.000008 0.000005 -0.000009
Al -4.839007 0.873434 2.467198 0.000007 0.000008 0.000009
Ga -4.844740 0.876753 7.636482 0.000002 0.000017 -0.000005
Ga -4.844881 0.885215 -2.740149 -0.000008 0.000011 -0.000003
Ga -6.460313 3.658977 2.457383 0.000007 -0.000007 0.000009
Ga -6.441532 3.664015 7.637230 -0.000001 0.000002 0.000003
Ga -6.440218 3.660650 -2.737942 -0.000018 -0.000003 -0.000000
Al -3.244287 -1.901423 2.466461 0.000015 -0.000004 -0.000001
Ga -3.228123 -1.895903 7.618470 0.000009 0.000002 -0.000021
Ga -3.231467 -1.896621 -2.727145 -0.000015 0.000008 -0.000004
Ga -1.616705 0.890117 2.446040 0.000013 0.000003 0.000013
Ga -1.607947 0.877482 7.639353 0.000009 0.000011 0.000005
Ga -1.609343 0.889433 -2.725321 -0.000004 0.000012 0.000019
Ga -3.222690 3.657377 2.473743 -0.000006 -0.000001 0.000010
Ga -3.221912 3.679303 7.655616 -0.000010 -0.000002 0.000002
Ga -3.229403 3.672384 -2.763946 -0.000005 0.000003 0.000004
Ga -0.024142 -1.881471 2.459144 -0.000010 -0.000012 0.000005
Al -0.017227 -1.887323 7.656472 -0.000004 -0.000001 0.000012
Ga -0.017814 -1.888865 -2.755029 -0.000017 0.000004 -0.000001
Ga -0.009041 1.831486 5.037475 0.000014 0.000005 -0.000018
Ga -0.016120 1.816818 -5.347839 0.000013 0.000001 -0.000022
Al -0.004425 1.822419 -0.128855 0.000000 -0.000007 -0.000019
Al 3.206616 -3.739453 5.032558 -0.000015 0.000004 -0.000014
Al 3.178114 -3.741637 -5.349622 0.000011 -0.000006 -0.000004
Ga 3.200564 -3.752584 -0.125215 0.000002 -0.000001 -0.000018
Ga 1.588518 -0.961879 5.065847 -0.000009 -0.000008 0.000007
Ga 1.577276 -0.970543 -5.364325 0.000005 -0.000011 0.000002
Ga 1.576849 -0.947881 -0.141506 -0.000014 -0.000006 0.000002
Ga 3.177675 1.801956 5.034910 -0.000018 -0.000011 -0.000001
Ga 3.174070 1.814994 -5.345431 0.000003 -0.000004 -0.000003
Ga 3.164497 1.811519 -0.126620 -0.000003 -0.000001 -0.000007
Al 6.368267 -3.733305 5.024077 0.000008 -0.000009 -0.000011
Ga 6.386409 -3.743395 -5.351232 0.000004 -0.000003 -0.000009
Al 6.378843 -3.747080 -0.117734 -0.000004 -0.000014 -0.000019
Al 4.792999 -0.977723 5.021463 -0.000005 -0.000015 0.000004
Ga 4.782555 -0.977186 -5.349993 -0.000004 -0.000013 -0.000006
Ga 4.794693 -0.972701 -0.111486 0.000004 -0.000010 -0.000005
Ga -3.235477 1.810316 5.044008 -0.000014 -0.000005 0.000004
Ga -3.228657 1.826180 -5.350104 -0.000005 -0.000001 -0.000004
Ga -3.226695 1.813098 -0.126872 0.000016 0.000002 -0.000000
Ga -0.022626 -3.739484 5.063999 -0.000014 -0.000003 0.000000
Al -0.017390 -3.735176 -5.366856 0.000002 -0.000006 0.000006
Ga -0.031428 -3.743920 -0.135674 -0.000001 -0.000000 -0.000004
Ga -1.640186 -0.980525 5.045631 -0.000010 -0.000020 0.000005
Ga -1.621478 -0.976756 -5.357775 -0.000007 -0.000019 -0.000003
Ga -1.633650 -0.970343 -0.126265 0.000007 -0.000013 -0.000008
N 1.576379 0.881581 4.356664 0.000013 0.000011 0.000007
N 1.579755 0.887583 -6.041308 0.000008 0.000004 0.000010
N 1.537134 0.913119 -0.807163 0.000003 0.000002 0.000004
N -0.019165 3.707993 4.382034 0.000012 -0.000011 0.000030
N -0.067016 3.688335 -5.976338 0.000006 -0.000001 0.000017
N 0.020913 3.638339 -0.735957 -0.000012 0.000007 0.000016
N 3.220252 -1.912195 4.463408 0.000008 0.000004 0.000002
N 3.184184 -1.941859 -5.979675 0.000013 0.000010 -0.000000
N 3.184749 -1.893353 -0.766092 0.000001 -0.000006 0.000009
N -4.834561 0.838006 4.387085 0.000016 0.000019 -0.000003
N -4.837035 0.883613 -5.982749 0.000012 -0.000005 0.000008
N -4.837534 0.884182 -0.764165 -0.000000 -0.000007 0.000004
N -6.480456 3.688064 4.440029 0.000020 0.000005 -0.000002
N -6.398396 3.685957 -5.971771 -0.000004 -0.000002 -0.000003
N -6.482719 3.687045 -0.745255 0.000011 -0.000001 -0.000004
N -3.270915 -1.918733 4.394983 0.000017 0.000014 0.000005
N -3.233583 -1.893714 -6.003714 0.000006 0.000011 0.000008
N -3.233230 -1.943686 -0.746630 -0.000013 0.000015 0.000005
N -1.619380 0.886906 4.420545 0.000008 -0.000011 0.000002
N -1.623667 0.886825 -5.982077 0.000009 -0.000006 0.000010
N -1.577976 0.912923 -0.732567 -0.000015 -0.000002 -0.000006
N -3.186893 3.689521 4.447463 0.000007 -0.000010 -0.000008
N -3.225434 3.715343 -5.948477 0.000004 -0.000006 -0.000006
N -3.226908 3.667396 -0.781450 -0.000001 -0.000009 -0.000009
N -0.017717 -1.889199 4.423097 0.000016 0.000006 -0.000011
N -0.022752 -1.936315 -6.017037 0.000005 0.000012 -0.000002
N -0.024076 -1.891196 -0.776716 0.000015 -0.000001 -0.000011
N 0.026888 1.840192 1.805904 -0.000026 -0.000012 0.000022
N 0.025864 1.791055 7.018690 -0.000028 0.000004 0.000008
N 0.022509 1.788995 -3.363883 -0.000010 0.000005 0.000014
N 3.226872 -3.765371 1.853746 -0.000007 0.000004 0.000006
N 3.188909 -3.746630 6.948191 0.000007 0.000008 0.000014
N 3.192430 -3.743086 -3.427673 -0.000000 0.000010 0.000013
N 1.585122 -0.915799 1.840318 -0.000011 -0.000008 0.000001
N 1.538444 -0.940110 7.055990 -0.000003 -0.000011 -0.000006
N 1.580003 -0.910958 -3.371470 0.000000 -0.000015 0.000006
N 3.184931 1.761194 1.864001 0.000012 0.000000 0.000016
N 3.139248 1.784369 7.019451 0.000005 -0.000006 0.000004
N 3.135515 1.788026 -3.356497 0.000012 0.000000 -0.000000
N 6.345220 -3.715194 1.811173 -0.000005 0.000011 0.000008
N 6.386565 -3.745548 6.943554 -0.000014 0.000005 0.000014
N 6.387383 -3.743196 -3.379135 0.000008 -0.000001 0.000003
N 4.828808 -0.943543 1.872979 -0.000012 -0.000012 -0.000009
N 4.789096 -0.965448 6.941862 -0.000008 -0.000009 0.000020
N 4.788940 -0.967858 -3.376426 0.000006 -0.000008 0.000002
N -3.274904 1.787643 1.853207 -0.000011 0.000010 -0.000012
N -3.230058 1.813682 7.021734 -0.000013 -0.000001 -0.000001
N -3.226666 1.807626 -3.370821 -0.000000 0.000003 -0.000005
N -0.024715 -3.745987 1.834646 0.000003 0.000008 0.000012
N -0.021347 -3.694002 7.041136 -0.000004 0.000000 -0.000012
N -0.029515 -3.740643 -3.440605 0.000005 0.000004 -0.000002
N -1.674879 -0.993286 1.852478 0.000000 0.000011 0.000024
N -1.581818 -0.994411 7.026508 -0.000023 0.000004 0.000001
N -1.629853 -0.964030 -3.376097 0.000008 -0.000006 0.000002
