108
Energy=-2725439.044311 Lattice="9.685169 0.000000 0.000000 -4.856796 8.381126 0.000000 -0.034019 -0.004408 15.715302" Stress="-0.000001 -0.000002 -0.000006 -0.000002 -0.000003 -0.000001 -0.000006 -0.000001 0.000003" Properties=species:S:1:pos:R:3:forces:R:3
Al 1.578548 0.899602 2.480631 0.000720 0.000382 0.000375
Ga 1.573152 0.896595 7.705485 0.000540 -0.000566 0.000684
Ga 1.596699 0.887255 -2.771372 0.000752 -0.000330 0.000682
Ga -0.034872 3.684162 2.471962 0.000400 -0.000026 0.000498
Al -0.045747 3.680070 7.705159 0.000271 -0.000069 0.000970
Ga -0.020284 3.677036 -2.766179 0.000310 -0.000128 0.000947
Ga 3.198824 -1.887699 2.479188 0.000508 -0.000114 0.000379
Ga 3.201847 -1.902879 7.704686 0.000279 -0.000312 0.000664
Ga 3.220923 -1.908929 -2.770508 0.000365 -0.000175 0.000695
Ga -4.890345 0.902323 2.471121 0.000707 -0.000281 0.000290
Al -4.888500 0.889945 7.705485 0.000434 0.000298 0.000773
Ga -4.863525 0.889406 -2.765308 0.000362 -0.000320 0.000834
Ga -6.502570 3.685933 2.479553 0.000283 0.000076 0.000234
Ga -6.508933 3.675157 7.705532 -0.000046 0.000249 0.000355
Ga -6.478241 3.678093 -2.770070 -0.000027 -0.000163 0.000644
Ga -3.250637 -1.889668 2.464940 0.000313 -0.000216 0.000821
Ga -3.272442 -1.901503 7.707763 0.000135 -0.000443 0.000664
Ga -3.232510 -1.902715 -2.762269 -0.000044 -0.000319 0.000710
Ga -1.645079 0.897127 2.461363 0.001015 -0.000904 0.000817
Ga -1.666560 0.902307 7.706337 0.001349 -0.000502 0.000063
Ga -1.634643 0.887334 -2.759020 0.000944 -0.000502 0.000359
Ga -3.268005 3.696659 2.482334 0.000485 -0.000357 -0.000116
Ga -3.275207 3.678151 7.709954 0.000722 0.000080 0.000142
Ga -3.249377 3.683294 -2.772064 0.000417 -0.000329 0.000154
Ga -0.031593 -1.878419 2.457119 0.000913 -0.000425 0.000489
Ga -0.036969 -1.898192 7.707820 0.000719 -0.000617 0.000902
Ga -0.014658 -1.898596 -2.748437 0.000695 -0.000575 0.000725
Ga -0.035113 1.823515 5.087698 -0.000346 0.000153 0.000826
Ga -0.013569 1.825970 -5.399180 -0.000680 0.000572 0.000897
Ga -0.018184 1.795936 -0.136469 -0.001262 0.001443 0.001009
Ga 3.206816 -3.768266 5.106275 -0.000697 0.000490 0.000381
Ga 3.235586 -3.771100 -5.400796 -0.000428 0.000226 0.000510
Ga 3.219900 -3.779956 -0.143341 -0.001021 0.001308 0.000027
Ga 1.582772 -0.966065 5.079853 -0.000894 0.001020 0.000396
Ga 1.610604 -0.975605 -5.384133 -0.000915 0.000584 0.000271
Ga 1.598187 -0.980315 -0.134166 -0.001502 0.001474 0.000823
Ga 3.185691 1.817760 5.091683 -0.000489 0.000230 0.001266
Ga 3.220363 1.817281 -5.403153 -0.000078 0.000225 0.000881
Ga 3.200666 1.806909 -0.132031 -0.000804 0.001268 -0.000034
Ga 6.421086 -3.763130 5.101293 0.000205 0.000019 0.000537
Ga 6.447231 -3.768279 -5.398641 -0.000136 -0.000003 0.000817
Ga 6.452673 -3.769065 -0.148195 -0.000811 0.001041 0.001164
Ga 4.813685 -0.963600 5.101099 -0.000656 0.000300 0.000573
Ga 4.838962 -0.964693 -5.396965 -0.000508 0.000573 0.000554
Ga 4.840056 -0.985274 -0.148436 -0.001122 0.000991 0.001139
Ga -3.274717 1.822455 5.098406 -0.000408 0.000300 0.001039
Ga -3.250135 1.819316 -5.399063 -0.000517 0.000178 0.001137
Ga -3.246643 1.806168 -0.150959 -0.000863 0.001292 0.001538
Ga -0.030964 -3.756318 5.090225 -0.000402 -0.000024 0.000648
Ga -0.003992 -3.759142 -5.385257 -0.000353 -0.000096 0.000739
Ga -0.015519 -3.768020 -0.147688 -0.000640 0.001025 0.001128
Ga -1.645856 -0.966477 5.089564 -0.000752 0.000245 0.001061
Ga -1.617511 -0.969120 -5.388247 -0.000887 0.000337 0.000922
Al -1.630178 -0.974870 -0.142216 -0.001014 -0.000552 -0.001879
N 1.572625 0.896456 4.408746 0.000771 -0.000317 -0.001237
N 1.598534 0.889200 -6.026763 0.000703 -0.000321 -0.000471
N 1.592151 0.879855 -0.789696 0.000943 -0.000308 -0.000536
N -0.043470 3.686910 4.452021 0.000293 -0.000044 -0.000574
N -0.015278 3.682482 -6.082890 0.000330 -0.000156 -0.001145
N -0.023659 3.669216 -0.780013 0.000511 -0.000193 -0.000050
N 3.199873 -1.901870 4.464859 0.000545 -0.000491 -0.000409
N 3.223544 -1.901572 -6.026596 0.000435 -0.000283 -0.000390
N 3.213329 -1.912938 -0.783743 0.000588 -0.000084 0.000172
N -4.885412 0.895103 4.450805 0.000621 -0.000072 -0.000702
N -4.857376 0.892508 -6.083143 0.000501 -0.000448 -0.001085
N -4.869631 0.883273 -0.781113 0.000638 -0.000132 -0.000324
N -6.503430 3.687648 4.465718 0.000079 0.000036 -0.000732
N -6.472869 3.686561 -6.025498 0.000037 0.000021 -0.000660
N -6.481803 3.670797 -0.783827 0.000281 -0.000099 -0.000450
N -3.260333 -1.897544 4.455653 0.000427 -0.000250 -0.000859
N -3.233150 -1.900223 -6.024852 0.000292 -0.000251 -0.000610
N -3.199240 -1.887204 -0.768554 0.000921 0.000262 -0.000670
N -1.658641 0.897229 4.452230 0.000926 -0.000370 -0.000712
N -1.631606 0.895725 -6.027147 0.000893 -0.000566 -0.000661
N -1.637478 0.836689 -0.764949 0.001097 0.000064 -0.000178
N -3.271135 3.690788 4.467018 0.000571 -0.000289 -0.000677
N -3.247896 3.688912 -6.022813 0.000334 -0.000343 -0.000456
N -3.255254 3.678132 -0.788112 0.000406 -0.000381 -0.000120
N -0.037142 -1.892712 4.442789 0.000579 -0.000574 -0.000716
N -0.006374 -1.897043 -6.025041 0.000597 -0.000532 -0.000864
N -0.056659 -1.881042 -0.754423 0.000454 -0.000204 -0.000621
N 0.011099 1.803473 1.857857 -0.000496 -0.000808 -0.001141
N -0.039650 1.864568 7.082627 -0.000928 0.000914 -0.000497
N -0.017855 1.816364 -3.409937 -0.000690 0.000479 -0.000656
N 3.205702 -3.755896 1.838645 -0.000123 -0.000716 -0.000215
N 3.239188 -3.792796 7.095030 -0.000163 0.000019 -0.000241
N 3.228197 -3.773631 -3.413312 -0.000442 0.000364 -0.000670
N 1.592968 -0.910072 1.861657 -0.000677 -0.001262 -0.001606
N 1.581673 -0.972877 7.064428 -0.000697 0.000725 -0.000789
N 1.606044 -0.980231 -3.399987 -0.000943 0.000387 -0.000492
N 3.147343 1.808659 1.856202 -0.000115 -0.001058 0.000119
N 3.224243 1.794108 7.084688 0.000328 -0.000019 -0.000738
N 3.213471 1.815610 -3.415806 -0.000255 0.000259 -0.000920
N 6.432379 -3.754845 1.837495 0.000216 -0.000944 -0.001314
N 6.381696 -3.789198 7.092291 -0.000346 -0.000108 -0.000585
N 6.447647 -3.769101 -3.407287 -0.000030 0.000138 -0.000830
N 4.816436 -0.961970 1.837562 -0.000223 -0.000721 -0.001487
N 4.808894 -0.921927 7.090678 -0.000363 0.000007 -0.000880
N 4.836949 -0.973048 -3.406958 -0.000423 0.000041 -0.000792
N -3.264935 1.834319 1.837091 -0.000001 -0.000819 -0.001170
N -3.315877 1.798199 7.088777 -0.000848 -0.000049 -0.000528
N -3.247299 1.816002 -3.408200 -0.000368 0.000313 -0.000605
N -0.025877 -3.754732 1.841073 -0.000017 -0.000940 -0.001037
N -0.033819 -3.763656 7.072516 -0.000197 0.000044 -0.000598
N -0.007332 -3.762538 -3.398213 -0.000219 0.000245 -0.000518
N -1.642114 -0.963347 1.772018 -0.000776 0.000961 0.002109
N -1.649699 -0.970044 7.071358 -0.000830 0.000570 -0.000597
N -1.620436 -0.972981 -3.405360 -0.000688 0.000267 -0.000713
