108
Energy=-1764153.190912 Lattice="9.559684 0.000000 0.000000 -4.786980 8.275124 0.000000 -0.002844 -0.002875 15.461872" Stress="0.000004 -0.000001 -0.000000 -0.000001 0.000002 -0.000000 -0.000000 -0.000000 0.000008" Properties=species:S:1:pos:R:3:forces:R:3
Al 1.583782 0.877453 2.433284 -0.002438 0.000236 -0.000116
Al 1.573582 0.888741 7.563844 0.001105 -0.000140 0.001655
Al 1.563157 0.885396 -2.729446 0.000740 -0.000102 0.000576
Al -0.025551 3.631192 2.451177 -0.000314 -0.000460 0.000029
Al -0.006407 3.633705 7.575283 -0.000490 0.000192 0.001062
Al -0.022625 3.623071 -2.751097 0.000000 -0.000056 0.000259
Al 3.147056 -1.882980 2.429178 0.000073 -0.000282 0.000130
Al 3.161652 -1.875932 7.582170 0.000364 -0.000137 0.001011
Ga 3.157225 -1.887098 -2.724908 0.000063 -0.000139 0.000590
Ga -4.821319 0.900362 2.452086 0.000787 0.000205 -0.000318
Ga -4.834110 0.889510 7.572405 0.001095 -0.000238 0.000026
Ga -4.827434 0.887322 -2.730427 0.000027 0.000044 0.000542
Al -6.414250 3.628524 2.454151 0.003207 -0.002248 -0.000978
Al -6.419875 3.629540 7.566948 -0.000276 -0.000238 0.000922
Ga -6.407473 3.627775 -2.736512 -0.000084 -0.000470 -0.000037
Ga -3.211337 -1.897775 2.458984 -0.000044 0.000527 -0.000471
Ga -3.221194 -1.906139 7.589197 0.000134 0.000312 0.000182
Ga -3.208291 -1.893559 -2.744502 -0.000097 -0.000007 -0.000323
Al -1.613188 0.899437 2.445916 0.000812 0.000304 -0.000519
Ga -1.607631 0.901997 7.588052 0.000210 -0.000331 0.000918
Ga -1.599433 0.898593 -2.731896 0.001030 -0.000360 -0.000965
Al -3.205136 3.636319 2.460042 -0.000787 0.000082 0.000439
Ga -3.220312 3.646322 7.552724 0.000671 -0.000453 0.001084
Al -3.209076 3.651235 -2.723533 0.000213 -0.000226 -0.000435
Ga 0.003177 -1.876620 2.449409 0.000822 -0.000518 0.000244
Ga -0.001168 -1.883769 7.551006 0.000047 0.000163 0.001221
Al -0.005059 -1.875783 -2.708997 0.000578 -0.000041 -0.000010
Ga -0.006290 1.796754 4.989047 -0.001126 0.000394 0.000543
Al 0.008251 1.812989 -5.314959 -0.000140 0.000140 0.000921
Ga -0.002470 1.794419 -0.127385 0.000298 0.000199 0.000558
Ga 3.166054 -3.712337 4.999396 -0.000597 -0.000318 0.000227
Ga 3.194462 -3.722736 -5.315503 -0.000247 0.000519 0.000948
Ga 3.167267 -3.725642 -0.128277 0.000097 0.000823 -0.000824
Al 1.591572 -0.951711 5.005290 -0.000663 0.000012 0.000818
Ga 1.589869 -0.934728 -5.307055 -0.001224 0.000552 0.001661
Al 1.579030 -0.946196 -0.150789 -0.000820 0.000761 0.000004
Al 3.150325 1.816315 5.008046 0.000818 -0.000409 -0.000336
Al 3.144935 1.799399 -5.334168 -0.002127 0.001197 0.003344
Al 3.142126 1.791727 -0.135648 -0.000232 -0.000152 0.001749
Al 6.365851 -3.740531 5.011621 -0.000414 0.000271 0.000756
Al 6.347728 -3.736401 -5.322524 0.000629 -0.000121 0.000805
Ga 6.349474 -3.738277 -0.136313 0.000693 -0.000177 0.000937
Ga 4.741558 -0.955764 5.008740 -0.000117 0.000224 0.000217
Al 4.752948 -0.959417 -5.319455 0.000026 -0.000144 0.000345
Ga 4.746032 -0.954936 -0.122862 -0.000620 0.000038 -0.000655
Al -3.221997 1.809049 4.991320 0.000242 0.000641 0.000091
Ga -3.223389 1.800785 -5.295645 -0.000065 -0.000271 0.000964
Ga -3.221209 1.811525 -0.130227 -0.000409 -0.000311 -0.000719
Al -0.041556 -3.729092 4.999972 0.003335 -0.003034 -0.003707
Ga -0.035764 -3.720995 -5.298428 -0.000460 -0.000133 0.001206
Ga -0.015733 -3.721373 -0.134990 -0.000657 0.000335 -0.000334
Ga -1.608535 -0.959296 5.006259 -0.000785 0.001318 0.000113
Ga -1.612581 -0.960128 -5.297049 -0.000664 0.000054 0.000169
Ga -1.599568 -0.958583 -0.134592 -0.000290 -0.000271 -0.000443
N 1.617690 0.853375 4.360576 0.000396 -0.000744 -0.000407
N 1.570821 0.926251 -5.969736 0.000024 -0.000168 -0.001317
N 1.605663 0.860387 -0.790746 0.001086 -0.000414 -0.000887
N 0.015631 3.662964 4.359222 0.000191 -0.000054 -0.000153
N 0.019897 3.613658 -5.959555 -0.000013 -0.000435 -0.001250
N -0.026705 3.630039 -0.830307 -0.000355 0.000048 0.000994
N 3.121701 -1.856268 4.341562 -0.000552 0.000119 -0.000361
N 3.201653 -1.856544 -5.958411 0.000355 -0.000137 -0.001152
N 3.128424 -1.862554 -0.747171 -0.000046 -0.000246 -0.000023
N -4.815439 0.932702 4.429513 -0.000562 0.000380 0.000765
N -4.853234 0.864305 -5.901303 0.001767 -0.000952 -0.000920
N -4.854009 0.903856 -0.743606 0.000434 0.000431 0.000002
N -6.406851 3.635499 4.382482 0.000034 -0.000102 -0.000477
N -6.438192 3.615648 -5.957034 0.000154 0.000486 -0.000958
N -6.401085 3.586627 -0.756716 0.000219 -0.000048 -0.000256
N -3.210103 -1.930955 4.425860 0.000109 -0.000581 0.000154
N -3.245040 -1.907153 -5.887991 -0.000250 0.000124 -0.000101
N -3.209804 -1.884305 -0.767133 0.000006 0.000247 0.001144
N -1.659548 0.907983 4.357141 0.000773 -0.000383 0.000070
N -1.577003 0.915339 -5.894302 0.000996 -0.000160 -0.000407
N -1.616099 0.889618 -0.764042 0.000349 -0.000215 0.000763
N -3.250766 3.618448 4.377072 -0.002203 0.001192 0.001907
N -3.217198 3.644895 -5.939233 0.000244 -0.000197 -0.001154
N -3.212490 3.643512 -0.816093 0.000320 -0.000381 0.000679
N 0.029668 -1.901710 4.434996 0.000694 0.000993 -0.000095
N -0.010591 -1.875970 -5.940291 0.000465 -0.000381 -0.001096
N 0.022811 -1.855784 -0.785243 0.000810 -0.000374 0.000336
N -0.016397 1.798794 1.872248 0.000220 -0.000411 0.000501
N 0.020398 1.821906 6.974210 -0.000584 0.000175 -0.000673
N 0.028427 1.820673 -3.380917 -0.000438 0.000183 -0.000894
N 3.168518 -3.726350 1.871088 0.000170 0.000190 0.000371
N 3.213884 -3.694592 6.990434 0.000268 0.000501 -0.000692
N 3.173022 -3.768204 -3.326842 -0.000232 0.000183 -0.000712
N 1.611505 -0.932184 1.778485 0.000373 0.000495 0.000315
N 1.625392 -0.930600 6.935975 -0.000310 0.000380 -0.000994
N 1.538046 -0.932501 -3.317957 -0.001173 0.000425 -0.000960
N 3.114713 1.823629 1.797730 0.000143 0.001413 -0.001021
N 3.112204 1.830262 6.931145 -0.000436 -0.000556 -0.000443
N 3.110808 1.774090 -3.402454 0.000063 0.000122 -0.002681
N 6.352547 -3.773894 1.851693 -0.000921 0.001002 -0.001990
N 6.353228 -3.769602 6.936728 0.000164 -0.000305 -0.000713
N 6.313500 -3.748975 -3.400231 0.000071 -0.000010 -0.000911
N 4.719315 -0.980844 1.852153 -0.000118 0.000018 0.000308
N 4.716793 -0.982906 6.979449 -0.000606 -0.000031 -0.000376
N 4.755333 -0.959491 -3.403372 -0.000385 0.000013 -0.000856
N -3.173871 1.826667 1.851849 -0.000032 0.000128 0.000474
N -3.214134 1.796631 6.905426 -0.000360 -0.000239 -0.000870
N -3.218911 1.848406 -3.323131 -0.000060 0.000105 -0.000243
N -0.016620 -3.768399 1.856087 -0.001706 -0.000089 0.000980
N -0.073919 -3.748973 6.909669 -0.000265 0.000364 0.000949
N 0.015375 -3.691950 -3.309218 0.000266 0.000406 -0.000456
N -1.609522 -0.915349 1.849145 -0.000551 -0.000048 0.000138
N -1.618522 -0.953738 6.972268 -0.000552 -0.000167 -0.000340
N -1.566254 -0.982860 -3.322140 -0.000383 -0.000049 -0.000085
