108
Energy=-1672597.347432 Lattice="9.485097 0.000000 0.000000 -4.745130 8.209116 0.000000 -0.001104 -0.002052 15.301500" Stress="-0.000208 0.000031 -0.000002 0.000031 -0.000185 -0.000003 -0.000002 -0.000003 -0.000173" Properties=species:S:1:pos:R:3:forces:R:3
Al 1.568484 0.867243 2.455148 -0.001764 0.001937 0.002779
Al 1.562710 0.900482 7.513054 -0.001010 -0.013098 -0.005105
Al 1.557187 0.885273 -2.762444 0.001565 -0.006134 -0.005061
Al -0.002817 3.610050 2.473168 -0.001084 -0.003261 -0.005364
Al -0.002568 3.610324 7.513581 -0.002967 -0.001071 -0.002586
Al -0.002562 3.612413 -2.753540 -0.002002 -0.001875 -0.002312
Al 3.172016 -1.876236 2.353753 -0.001132 -0.004502 0.029271
Ga 3.175102 -1.882126 7.515029 -0.002940 0.000868 -0.004271
Ga 3.175445 -1.880615 -2.754289 -0.002311 0.000572 -0.004282
Al -4.788482 0.884542 2.481823 0.000393 -0.003815 -0.005028
Al -4.788437 0.900040 7.512897 0.001350 -0.012197 -0.003959
Ga -4.785398 0.902087 -2.759373 0.000258 -0.014456 -0.005225
Al -6.357624 3.606564 2.479878 0.000262 -0.002260 -0.006890
Al -6.355731 3.610823 7.514606 -0.000545 -0.000111 -0.001426
Ga -6.354467 3.614869 -2.755044 -0.000943 -0.000817 -0.001587
Ga -3.178277 -1.881629 2.479289 -0.000593 0.000076 -0.005984
Ga -3.177910 -1.883400 7.514924 -0.001012 0.002060 -0.002215
Al -3.176244 -1.881342 -2.752641 0.000204 0.002054 -0.002184
Ga -1.653241 0.900900 2.483477 0.015428 -0.006390 -0.012161
Ga -1.653498 0.902269 7.514037 0.015017 -0.007887 -0.007646
Al -1.653468 0.903001 -2.756225 0.013163 -0.007247 -0.004657
Ga -3.220946 3.610199 2.479609 0.012239 0.006252 -0.008205
Ga -3.221602 3.612438 7.513577 0.014540 0.007440 -0.004824
Al -3.217798 3.615584 -2.754481 0.011394 0.004581 -0.002483
Ga -0.043683 -1.880203 2.483390 0.012801 0.006701 -0.009439
Ga -0.043223 -1.882077 7.516464 0.014428 0.009465 -0.004802
Ga -0.041791 -1.876744 -2.753408 0.012647 0.008952 -0.004973
Al -0.004226 1.804772 4.996765 -0.009804 -0.008261 -0.006031
Al -0.001676 1.804484 -5.272842 -0.010344 -0.007394 -0.004058
Al -0.000613 1.802825 -0.250086 -0.011698 -0.007338 0.030412
Ga 3.176442 -3.692920 4.996952 -0.014243 -0.002165 -0.005995
Ga 3.176548 -3.691248 -5.269704 -0.013321 -0.006418 -0.003984
Ga 3.174861 -3.692383 -0.226605 -0.013429 -0.011195 0.032140
Ga 1.607170 -0.978676 4.999563 -0.010267 0.007449 -0.010324
Al 1.609497 -0.975141 -5.270955 -0.012626 0.007270 -0.006337
Al 1.610083 -0.975416 -0.242972 -0.016124 0.008911 0.025748
Ga 3.130179 1.802323 4.997060 -0.000229 -0.005087 -0.003805
Al 3.129956 1.802232 -5.285235 0.000633 -0.002127 0.000524
Al 3.133533 1.802454 -0.252680 -0.000407 -0.002344 0.033170
Ga 6.306946 -3.693792 4.996622 -0.000532 -0.000095 -0.000394
Ga 6.308225 -3.691410 -5.270622 0.000563 -0.000502 -0.000925
Ga 6.309348 -3.692678 -0.226777 0.000411 -0.000629 0.038805
Al 4.742525 -0.978774 4.998798 -0.005832 0.010508 -0.006232
Al 4.742238 -0.977519 -5.271215 -0.001692 0.012514 -0.003824
Al 4.740167 -0.973585 -0.243543 0.002067 0.013906 0.028521
Al -3.219949 1.803444 4.996611 0.001765 -0.002022 -0.003977
Ga -3.218428 1.807013 -5.271679 0.001580 -0.002454 -0.002682
Al -3.221230 1.805568 -0.249559 0.003354 -0.001680 0.032240
Ga -0.043402 -3.692993 4.997213 0.003382 0.000875 -0.002258
Ga -0.040298 -3.689380 -5.270644 0.001462 0.001001 -0.001959
Al -0.041071 -3.691982 -0.246630 0.002153 0.000630 0.032881
Ga -1.610573 -0.978158 5.000112 0.001238 0.017300 -0.004411
Ga -1.608845 -0.975597 -5.268598 0.001427 0.016045 -0.004652
Ga -1.608764 -0.975393 -0.227371 0.001250 0.016776 0.034893
N 1.559016 0.901624 4.400792 -0.018659 -0.006433 -0.012578
N 1.562581 0.901291 -5.871936 -0.000901 -0.012610 0.004604
N 1.564932 0.898808 -0.846754 -0.000024 -0.012984 0.006763
N -0.004856 3.610722 4.394845 -0.001658 -0.020680 -0.014746
N -0.002743 3.610468 -5.870121 -0.002508 -0.020480 -0.012458
N -0.002617 3.610991 -0.834423 -0.001863 -0.019104 -0.012104
N 3.177453 -1.880909 4.402514 0.014376 0.009893 -0.027028
N 3.175839 -1.878616 -5.865055 -0.002830 0.020953 0.016278
N 3.175066 -1.879619 -0.831861 -0.002399 0.021370 0.020149
N -4.784799 0.896254 4.399687 0.019297 -0.021101 -0.002197
N -4.786835 0.899916 -5.870890 -0.016307 -0.022409 -0.003393
N -4.786445 0.901716 -0.842473 0.000804 -0.013158 0.028260
N -6.356298 3.611093 4.396817 -0.000501 0.001114 -0.020182
N -6.353439 3.612716 -5.870342 -0.000222 -0.019755 -0.012571
N -6.352148 3.612578 -0.835644 0.016823 -0.009433 0.018924
N -3.178600 -1.882443 4.401770 -0.017055 0.011705 0.007111
N -3.178777 -1.879971 -5.866561 -0.017954 0.012054 0.009352
N -3.178484 -1.880378 -0.831769 -0.018809 0.011556 -0.010867
N -1.653726 0.903284 4.404134 0.012445 0.009095 0.021301
N -1.649810 0.905464 -5.867213 0.030172 -0.000621 0.015078
N -1.653179 0.905034 -0.839982 0.012212 0.009127 0.001958
N -3.219241 3.611275 4.400902 0.013937 -0.013115 0.011444
N -3.219330 3.615738 -5.868339 0.014653 0.007665 0.005531
N -3.221592 3.613827 -0.838424 -0.003749 -0.002147 -0.000530
N -0.044748 -1.882135 4.402594 0.012828 0.009285 0.003714
N -0.039248 -1.878300 -5.864953 0.028392 0.017172 0.011424
N -0.040001 -1.880707 -0.832492 0.028744 -0.003152 0.020453
N 0.003834 1.802511 1.891783 0.003744 -0.001118 -0.035149
N -0.000654 1.805254 6.914849 0.003822 0.001090 -0.001735
N -0.002645 1.802141 -3.354231 -0.010826 -0.006027 0.004178
N 3.176912 -3.711931 1.848860 0.003168 0.008704 -0.016642
N 3.178050 -3.694460 6.917917 0.003093 -0.018142 0.013843
N 3.176126 -3.693757 -3.348480 -0.011604 -0.025012 0.018606
N 1.606697 -0.959586 1.901815 -0.000927 0.006460 -0.041632
N 1.607401 -0.976663 6.919106 -0.016510 0.025539 0.016713
N 1.609388 -0.967565 -3.353539 -0.014976 0.021179 -0.006407
N 3.132317 1.792460 1.887536 0.000952 -0.000598 -0.031257
N 3.130156 1.803296 6.919485 0.001233 -0.001315 0.024091
N 3.129306 1.804433 -3.355759 -0.017980 -0.013245 -0.014215
N 6.307028 -3.696309 1.875129 0.000690 -0.018311 -0.021134
N 6.307884 -3.696137 6.918995 0.000891 -0.020084 0.015738
N 6.306665 -3.689241 -3.348930 -0.017428 0.010342 0.015952
N 4.741459 -0.958856 1.899302 -0.015761 0.016800 -0.042995
N 4.741509 -0.976072 6.915332 0.000164 0.032963 -0.009443
N 4.745642 -0.979358 -3.354195 0.016598 0.005455 -0.008208
N -3.226205 1.799723 1.891867 -0.014421 -0.012716 -0.045808
N -3.223205 1.802905 6.914523 -0.014828 -0.011695 -0.013495
N -3.216349 1.808586 -3.351540 0.019766 0.008972 0.015975
N -0.044794 -3.694577 1.889825 -0.015467 -0.008127 -0.045287
N -0.045719 -3.693446 6.918417 -0.015808 -0.009752 0.008351
N -0.038281 -3.689647 -3.350429 0.019987 -0.009594 0.009319
N -1.609655 -0.978389 1.876293 0.001050 0.016271 -0.032974
N -1.609860 -0.978808 6.919232 0.000936 0.016373 0.004976
N -1.612021 -0.975044 -3.348139 -0.016922 0.022471 0.018081
