108
Energy=-894419.053886 Lattice="9.454055 0.000000 0.000000 -4.730417 8.180457 0.000000 -0.001779 -0.000195 15.219783" Stress="0.000009 -0.000001 -0.000000 -0.000002 0.000003 -0.000000 -0.000000 -0.000000 0.000018" Properties=species:S:1:pos:R:3:forces:R:3
Al 1.559117 0.871022 2.415184 -0.000087 -0.000636 0.000167
Al 1.550796 0.869421 7.461295 0.000032 0.000015 0.000153
Al 1.550927 0.865402 -2.719065 0.000107 0.000021 -0.000136
Al -0.024329 3.603675 2.407303 0.000018 0.000032 -0.000162
Al -0.019634 3.592745 7.439977 -0.000012 -0.000010 -0.000072
Al -0.011550 3.589134 -2.685394 0.000206 -0.000127 0.000036
Al 3.133336 -1.858528 2.386230 -0.000118 0.000122 -0.000399
Al 3.123685 -1.855723 7.459570 -0.000187 -0.000014 0.000078
Al 3.127438 -1.842353 -2.680729 -0.000094 0.000137 0.000188
Al -4.757529 0.867967 2.400992 -0.000136 -0.000633 0.000308
Al -4.759122 0.873484 7.477689 -0.000048 -0.000003 0.000067
Al -4.758661 0.864653 -2.712223 0.000059 0.000126 -0.000293
Al -6.331423 3.593050 2.409935 -0.000289 -0.000088 -0.000080
Al -6.328625 3.596049 7.454897 -0.000096 0.000041 0.000020
Al -6.332527 3.595155 -2.703875 0.000021 0.000002 -0.000011
Al -3.173876 -1.857408 2.377846 -0.000270 0.000021 0.000001
Al -3.173081 -1.864355 7.464759 -0.000020 -0.000040 -0.000011
Ga -3.182189 -1.863629 -2.677362 -0.000066 0.000007 0.000022
Al -1.597090 0.866970 2.412173 -0.000241 0.000095 0.000797
Al -1.593895 0.874653 7.458208 0.000436 -0.000205 0.000022
Al -1.590915 0.876149 -2.701541 0.000202 0.000025 -0.000006
Al -3.170581 3.605237 2.392097 -0.000247 -0.000082 -0.000278
Al -3.181441 3.601367 7.465794 0.000073 0.000065 0.000314
Ga -3.182287 3.597860 -2.686923 -0.000057 -0.000057 -0.000278
Ga -0.023331 -1.852495 2.400094 0.000254 0.000140 0.000060
Al -0.015547 -1.859524 7.442621 0.000051 -0.000030 -0.000054
Al -0.010151 -1.854288 -2.677401 0.000220 -0.000192 0.000196
Al -0.013786 1.777109 4.926175 0.000024 0.000029 0.000107
Al -0.014294 1.782206 -5.232901 0.000115 -0.000042 0.000153
Ga -0.019690 1.776949 -0.136294 -0.000143 -0.000050 -0.000325
Al 3.127468 -3.672242 4.931498 0.000064 -0.000000 0.000096
Ga 3.139424 -3.673058 -5.232261 -0.000053 0.000039 -0.000037
Al 3.140341 -3.658083 -0.143734 -0.000055 0.000233 0.000326
Al 1.552342 -0.944949 4.939550 -0.000231 0.000163 -0.000025
Al 1.557784 -0.946086 -5.231128 -0.000050 0.000131 0.000089
Al 1.559252 -0.958380 -0.155632 -0.000204 -0.000151 -0.000495
Al 3.112274 1.785826 4.936727 0.000053 -0.000047 0.000105
Al 3.126460 1.781862 -5.232973 0.000063 -0.000041 0.000032
Ga 3.124135 1.779365 -0.150373 0.000024 0.000070 -0.000185
Al 6.287134 -3.678451 4.925006 -0.000006 -0.000098 -0.000084
Al 6.286297 -3.689569 -5.240003 -0.000048 -0.000030 -0.000013
Al 6.284265 -3.671912 -0.133050 -0.000131 0.000399 0.000681
Ga 4.702059 -0.958877 4.932380 -0.000014 0.000180 -0.000125
Al 4.696410 -0.942521 -5.240074 -0.000197 0.000131 -0.000037
Al 4.698885 -0.958959 -0.133812 -0.000262 -0.000008 0.000338
Ga -3.173450 1.789048 4.933309 0.000085 -0.000142 -0.000036
Al -3.182868 1.775506 -5.241333 0.000025 -0.000166 0.000139
Ga -3.175515 1.769291 -0.127052 0.000103 0.000014 0.000533
Al -0.026482 -3.673983 4.938555 -0.000024 -0.000004 -0.000007
Al -0.030920 -3.676012 -5.239928 -0.000176 0.000026 0.000234
Al -0.031466 -3.662439 -0.140890 0.000029 0.000024 -0.000605
Al -1.593266 -0.954235 4.947324 0.000034 -0.000051 0.000065
Ga -1.588143 -0.949540 -5.234131 -0.000082 0.000062 0.000067
Al -1.594111 -0.954610 -0.151423 0.000035 -0.000168 -0.000463
N 1.553605 0.866172 4.333503 0.000164 -0.000048 -0.000173
N 1.552044 0.868921 -5.830526 0.000133 -0.000045 -0.000003
N 1.550350 0.822319 -0.807640 0.000051 0.000008 -0.000038
N -0.026116 3.601369 4.331749 -0.000073 0.000004 -0.000001
N 0.018482 3.570425 -5.868159 0.000162 0.000179 0.000001
N -0.017915 3.641434 -0.765529 0.000106 0.000069 -0.000013
N 3.085361 -1.880154 4.302341 -0.000078 -0.000013 -0.000122
N 3.125538 -1.811262 -5.855595 -0.000008 0.000181 -0.000013
N 3.132851 -1.853375 -0.755264 -0.000009 -0.000030 0.000090
N -4.796266 0.892417 4.302348 -0.000081 -0.000056 -0.000038
N -4.756345 0.872347 -5.828101 0.000058 0.000017 0.000056
N -4.750474 0.820003 -0.796642 0.000083 -0.000040 0.000245
N -6.326751 3.597613 4.330648 0.000087 0.000012 0.000019
N -6.326464 3.595123 -5.844449 -0.000067 0.000050 -0.000033
N -6.330125 3.645409 -0.781843 0.000101 0.000053 -0.000166
N -3.128575 -1.879305 4.299817 0.000029 0.000036 -0.000296
N -3.211579 -1.883816 -5.842405 -0.000040 -0.000161 0.000084
N -3.178078 -1.858928 -0.693224 0.000111 -0.000439 0.000123
N -1.558111 0.840875 4.324091 0.000069 0.000043 -0.000296
N -1.593207 0.919790 -5.851318 0.000002 -0.000167 0.000008
N -1.598687 0.829694 -0.793696 0.000164 0.000096 0.000170
N -3.177262 3.652022 4.307478 -0.000107 -0.000043 -0.000279
N -3.217123 3.578069 -5.839554 0.000303 0.000051 -0.000561
N -3.177081 3.642662 -0.710434 -0.000104 0.000099 0.000213
N -0.022496 -1.855299 4.382169 0.000125 -0.000079 0.000201
N 0.025083 -1.880576 -5.864699 0.000037 0.000031 -0.000233
N -0.017907 -1.857970 -0.749348 0.000051 -0.000051 -0.000016
N -0.020724 1.777855 1.847644 0.000185 0.000511 0.000182
N -0.020374 1.775302 6.844909 -0.000064 0.000019 -0.000047
N -0.023294 1.783122 -3.307193 -0.000050 0.000059 -0.000011
N 3.137793 -3.673864 1.782323 -0.000162 -0.000147 -0.000132
N 3.127731 -3.675435 6.856878 -0.000070 0.000059 0.000053
N 3.176449 -3.649631 -3.259235 -0.000217 0.000016 0.000033
N 1.593975 -0.921502 1.761256 0.000116 0.000386 0.000831
N 1.558439 -0.944273 6.852968 -0.000207 0.000137 -0.000063
N 1.554321 -0.955947 -3.305035 -0.000194 0.000052 -0.000047
N 3.123908 1.779496 1.832196 0.000027 0.000489 -0.000076
N 3.124868 1.777930 6.859676 0.000074 -0.000058 0.000020
N 3.127483 1.782000 -3.307086 0.000036 0.000032 -0.000001
N 6.283257 -3.682744 1.793652 0.000043 -0.000020 -0.000379
N 6.284061 -3.673959 6.844040 0.000026 -0.000014 -0.000050
N 6.280007 -3.722656 -3.325312 0.000063 -0.000094 -0.000064
N 4.702693 -0.946302 1.791499 -0.000090 0.000060 -0.000165
N 4.705863 -0.947821 6.907866 0.000023 0.000020 -0.000035
N 4.663600 -0.930579 -3.325014 -0.000051 -0.000046 -0.000027
N -3.174058 1.775168 1.857027 0.000320 0.000569 -0.000844
N -3.178921 1.778797 6.910149 -0.000069 0.000095 0.000028
N -3.174793 1.733015 -3.322709 -0.000084 -0.000166 0.000013
N -0.030955 -3.719762 1.771747 0.000662 -0.000295 0.000659
N -0.023352 -3.680534 6.853536 0.000080 -0.000065 0.000080
N -0.064292 -3.646805 -3.321642 -0.000138 0.000036 0.000027
N -1.633707 -0.917802 1.762342 -0.000032 -0.000696 -0.000021
N -1.602241 -0.947951 6.867878 -0.000102 0.000032 0.000064
N -1.555249 -0.930520 -3.261202 -0.000082 0.000042 -0.000137
