108
Energy=-1626826.691690 Lattice="9.540734 0.000000 0.000000 -4.771959 8.261879 0.000000 -0.034457 0.004019 15.410517" Stress="0.000001 -0.000001 -0.000008 -0.000001 0.000002 0.000001 -0.000008 0.000001 -0.000003" Properties=species:S:1:pos:R:3:forces:R:3
Al 1.565468 0.868163 2.434891 0.000001 0.000161 0.000146
Al 1.545477 0.884943 7.546277 -0.000011 -0.000383 -0.000215
Al 1.580387 0.869124 -2.722950 -0.000026 -0.000004 0.000010
Al -0.020508 3.648058 2.427123 -0.000069 -0.000236 0.000054
Al -0.020409 3.633312 7.512689 -0.000056 0.000043 -0.000013
Ga -0.008373 3.631144 -2.683057 -0.000029 0.000011 0.000018
Al 3.159517 -1.864225 2.406342 0.000022 -0.000178 -0.000023
Ga 3.140891 -1.868189 7.548278 -0.000068 0.000011 -0.000006
Ga 3.171372 -1.851018 -2.697313 -0.000017 0.000012 0.000011
Al -4.804133 0.859111 2.395550 0.000004 0.000023 0.000033
Ga -4.824680 0.872634 7.583079 0.000006 -0.000030 0.000034
Al -4.788247 0.862412 -2.714853 0.000028 0.000031 -0.000026
Ga -6.415427 3.632736 2.439328 -0.000001 -0.000021 -0.000003
Al -6.414921 3.642276 7.534821 0.000029 0.000061 0.000079
Ga -6.392639 3.617931 -2.710109 -0.000021 0.000014 0.000008
Al -3.225749 -1.880028 2.397413 -0.000082 -0.000031 0.000261
Al -3.218029 -1.890962 7.550899 -0.000008 0.000009 0.000000
Al -3.203439 -1.859563 -2.689835 -0.000011 0.000002 -0.000008
Ga -1.620113 0.874212 2.412246 -0.000005 0.000049 0.000064
Ga -1.605131 0.876083 7.543827 -0.000012 -0.000013 0.000010
Al -1.612367 0.867330 -2.687037 -0.000030 0.000007 -0.000001
Ga -3.196725 3.630980 2.427148 0.000006 -0.000008 0.000041
Ga -3.219896 3.648696 7.531069 0.000014 0.000019 0.000008
Ga -3.188596 3.617303 -2.682156 -0.000030 -0.000004 0.000017
Ga -0.020739 -1.857985 2.425844 -0.000059 -0.000024 0.000044
Al -0.035662 -1.871790 7.539565 0.000040 0.000060 0.000006
Ga -0.015548 -1.845709 -2.697385 -0.000020 0.000002 0.000025
Al -0.015258 1.809125 4.973623 -0.000319 0.000015 -0.000029
Ga 0.011772 1.789916 -5.278002 -0.000043 0.000020 0.000050
Ga -0.020641 1.790507 -0.139629 -0.000037 0.000001 0.000050
Al 3.158890 -3.703551 4.962430 -0.000037 -0.000307 0.000153
Ga 3.181239 -3.699257 -5.292852 -0.000042 0.000027 0.000014
Al 3.168767 -3.699687 -0.112031 -0.000015 -0.000014 0.000008
Al 1.555857 -0.958910 4.981554 -0.000204 0.000045 0.000360
Al 1.589329 -0.943257 -5.302450 -0.000024 -0.000025 -0.000011
Al 1.578344 -0.952942 -0.128881 -0.000032 0.000018 -0.000063
Ga 3.130712 1.795004 4.985968 0.000017 -0.000053 -0.000008
Al 3.160758 1.779244 -5.291600 0.000000 0.000013 0.000036
Ga 3.158614 1.773930 -0.137049 -0.000053 0.000016 0.000015
Al 6.317433 -3.710794 4.991834 -0.000251 0.000357 -0.000014
Ga 6.347775 -3.707189 -5.308205 -0.000022 0.000012 0.000015
Al 6.323772 -3.688550 -0.127563 -0.000031 -0.000018 -0.000007
Ga 4.732047 -0.974358 4.957955 0.000097 -0.000020 0.000020
Al 4.757431 -0.956293 -5.267244 -0.000043 -0.000003 0.000013
Al 4.755173 -0.963221 -0.137581 -0.000079 0.000024 -0.000078
Ga -3.216026 1.803808 4.979347 0.000028 0.000000 0.000032
Ga -3.201366 1.785085 -5.257242 -0.000030 0.000015 0.000032
Al -3.204263 1.777687 -0.154400 0.000041 0.000027 0.000057
Al -0.034245 -3.698291 5.002390 0.000045 0.000019 0.000033
Ga -0.014665 -3.706790 -5.298794 -0.000030 0.000012 0.000011
Ga -0.018843 -3.703944 -0.137639 -0.000038 0.000006 0.000011
Ga -1.620051 -0.976731 4.995850 -0.000071 0.000010 -0.000004
Ga -1.604643 -0.966705 -5.282738 -0.000030 0.000001 0.000012
Al -1.631170 -0.958691 -0.151686 0.000001 0.000019 0.000007
N 1.515219 0.848059 4.350034 0.000222 -0.000037 -0.000234
N 1.619282 0.854961 -5.938675 0.000009 0.000059 0.000058
N 1.571119 0.825709 -0.809343 0.000046 -0.000037 0.000019
N -0.027445 3.636896 4.361052 -0.000002 -0.000002 -0.000015
N -0.010248 3.624566 -5.980646 0.000039 -0.000011 -0.000023
N -0.023545 3.680965 -0.711469 0.000057 -0.000026 -0.000016
N 3.100384 -1.894975 4.334141 0.000120 0.000177 -0.000307
N 3.174517 -1.824082 -5.876798 0.000046 -0.000001 0.000012
N 3.158447 -1.872427 -0.702737 0.000095 0.000051 0.000038
N -4.807074 0.876877 4.301736 -0.000000 0.000010 -0.000028
N -4.822369 0.850244 -5.851334 0.000023 0.000000 -0.000019
N -4.757128 0.846651 -0.786255 -0.000073 -0.000151 0.000039
N -6.399393 3.683898 4.418478 0.000202 -0.000107 -0.000066
N -6.372996 3.580931 -5.947823 -0.000004 -0.000004 -0.000040
N -6.433675 3.649919 -0.734735 0.000045 -0.000006 -0.000018
N -3.210639 -1.927091 4.313171 0.000024 -0.000191 -0.000065
N -3.236480 -1.849432 -5.946570 0.000035 -0.000008 -0.000022
N -3.209088 -1.876207 -0.760509 0.000022 -0.000006 0.000010
N -1.580354 0.896582 4.387741 0.000129 0.000045 0.000022
N -1.594885 0.880925 -5.900520 0.000039 0.000001 -0.000028
N -1.648970 0.853145 -0.766520 0.000038 -0.000016 -0.000017
N -3.215481 3.683899 4.407153 0.000032 0.000036 -0.000011
N -3.187308 3.629098 -5.911247 0.000034 -0.000005 -0.000019
N -3.153215 3.609014 -0.704725 0.000032 0.000040 -0.000015
N 0.009613 -1.895293 4.401233 0.000036 -0.000028 -0.000038
N 0.035292 -1.848487 -5.947021 0.000022 -0.000007 0.000004
N -0.016733 -1.818789 -0.718122 0.000041 0.000001 0.000020
N 0.019164 1.821754 1.841733 -0.000041 0.000112 -0.000015
N 0.011814 1.822460 6.897655 0.000039 0.000047 0.000071
N -0.015839 1.750509 -3.285582 0.000007 0.000002 -0.000017
N 3.198085 -3.685820 1.805705 -0.000041 0.000185 0.000072
N 3.190881 -3.725087 6.881258 -0.000004 0.000005 -0.000069
N 3.170384 -3.707392 -3.325922 0.000003 -0.000008 -0.000014
N 1.604887 -0.926583 1.787030 0.000063 -0.000145 -0.000003
N 1.515274 -0.927865 6.907422 0.000035 0.000157 -0.000090
N 1.576000 -0.911649 -3.384135 0.000007 0.000016 -0.000020
N 3.145749 1.747893 1.843346 0.000014 -0.000004 -0.000006
N 3.101668 1.817358 6.964776 -0.000019 -0.000036 -0.000052
N 3.162400 1.746522 -3.355710 -0.000024 0.000007 0.000011
N 6.289389 -3.686373 1.785920 0.000129 0.000078 -0.000080
N 6.322493 -3.703427 6.922533 0.000022 -0.000008 0.000001
N 6.342142 -3.656620 -3.328508 0.000003 -0.000004 -0.000007
N 4.743118 -0.959245 1.792588 -0.000060 -0.000015 -0.000010
N 4.775652 -0.977773 6.930115 0.000016 0.000017 -0.000017
N 4.799544 -0.939974 -3.341989 0.000011 0.000000 0.000009
N -3.251116 1.771065 1.762649 -0.000005 -0.000011 -0.000055
N -3.225945 1.789704 6.938406 0.000004 0.000008 -0.000023
N -3.195612 1.746921 -3.278065 0.000004 -0.000005 -0.000021
N -0.032022 -3.711711 1.818128 0.000006 0.000010 -0.000007
N -0.082170 -3.682705 6.922656 0.000015 0.000005 -0.000054
N -0.014790 -3.706796 -3.321109 0.000007 0.000007 -0.000012
N -1.662257 -0.984112 1.764729 0.000094 -0.000008 -0.000109
N -1.632354 -1.009400 6.972030 0.000008 0.000005 -0.000005
N -1.651253 -0.937383 -3.294599 0.000003 0.000003 -0.000008
