108
Energy=-1.031745e+06 Lattice="9.474963e+00 0.000000e+00 0.000000e+00 -4.747209e+00 8.199186e+00 0.000000e+00 -2.446603e-03 -7.666356e-03 1.527848e+01" Stress="2.996647e-03 -6.240028e-04 -4.403530e-05 -6.219961e-04 1.716453e-03 -4.467770e-04 -3.976082e-05 -4.536807e-04 7.349916e-03" Properties=species:S:1:pos:R:3:forces:R:3 Config_type=AlGaN_super3_13_1_9.xyz
Al 1.553789e+00 8.728986e-01 2.400963e+00 -5.252968e-04 -1.049635e-03 7.419043e-04
Al 1.543815e+00 8.678320e-01 7.479227e+00 8.793152e-04 3.317406e-04 9.354991e-04
Al 1.534063e+00 8.661396e-01 -2.702321e+00 1.459890e-03 1.174070e-03 1.701852e-03
Al -3.423066e-02 3.575928e+00 2.450084e+00 -2.011284e-05 1.669664e-03 -3.181087e-03
Al -2.069815e-02 3.592822e+00 7.481465e+00 3.652974e-04 -1.657179e-04 8.407562e-04
Al -2.882349e-02 3.591235e+00 -2.738670e+00 1.294510e-03 7.353430e-04 3.404435e-03
Al 3.149481e+00 -1.872734e+00 2.436284e+00 -5.761603e-03 3.651035e-03 -2.932672e-03
Al 3.150611e+00 -1.867122e+00 7.491275e+00 3.620134e-05 5.474340e-04 6.997978e-04
Al 3.137770e+00 -1.855036e+00 -2.736182e+00 1.082860e-03 -4.683898e-04 3.275991e-03
Al -4.770141e+00 8.815329e-01 2.428003e+00 8.411381e-04 2.108994e-03 -3.517736e-05
Al -4.767787e+00 8.604636e-01 7.469611e+00 3.092326e-04 1.884226e-04 1.054839e-03
Ga -4.762498e+00 8.697604e-01 -2.701478e+00 4.971643e-04 4.328052e-04 1.343638e-03
Al -6.327455e+00 3.584163e+00 2.430892e+00 -3.420212e-03 2.506871e-03 -5.604311e-04
Al -6.353221e+00 3.604722e+00 7.469926e+00 -6.045250e-05 -3.281659e-04 6.103296e-04
Ga -6.352011e+00 3.607167e+00 -2.701182e+00 1.290389e-04 8.098564e-05 1.224233e-03
Ga -3.175915e+00 -1.865688e+00 2.462456e+00 7.983499e-04 2.469224e-04 -1.357442e-03
Al -3.175562e+00 -1.864611e+00 7.478408e+00 1.771909e-04 1.142302e-04 3.359613e-04
Ga -3.183454e+00 -1.856556e+00 -2.738807e+00 -1.795340e-04 -4.432589e-04 5.609037e-04
Al -1.598781e+00 8.871963e-01 2.429520e+00 -2.225004e-04 -3.261856e-03 -1.527394e-03
Al -1.604489e+00 8.683814e-01 7.476258e+00 7.791775e-04 -6.389623e-04 1.389966e-03
Al -1.596553e+00 8.878572e-01 -2.726191e+00 8.925650e-04 2.179260e-03 5.160455e-03
Al -3.186080e+00 3.601571e+00 2.429333e+00 -2.239899e-03 -3.656926e-04 -1.045109e-03
Ga -3.188614e+00 3.606149e+00 7.484381e+00 5.186705e-04 -6.555458e-04 -4.532461e-04
Ga -3.173267e+00 3.607833e+00 -2.712649e+00 2.007759e-04 4.392056e-05 2.985274e-03
Al -1.291964e-02 -1.869135e+00 2.419420e+00 3.098089e-03 7.923502e-04 -1.132273e-03
Al -2.708503e-02 -1.855213e+00 7.493137e+00 -1.132175e-04 -3.080508e-04 1.447432e-03
Ga -7.013331e-03 -1.838506e+00 -2.717201e+00 4.981274e-04 -1.372167e-03 2.064480e-03
Al -3.163835e-02 1.780545e+00 4.953656e+00 7.791284e-04 -4.842508e-04 1.608408e-03
Al -3.522830e-02 1.780440e+00 -5.268973e+00 6.138573e-04 5.431959e-04 1.574265e-03
Al -2.772865e-02 1.775678e+00 -1.441537e-01 -4.108714e-04 3.930733e-04 -1.428319e-04
Al 3.152042e+00 -3.699383e+00 4.951892e+00 -9.118356e-04 9.586393e-04 3.177720e-04
Al 3.148006e+00 -3.682650e+00 -5.265946e+00 3.648749e-03 2.573420e-03 2.862255e-03
Ga 3.136347e+00 -3.689664e+00 -1.256767e-01 -2.293771e-05 2.877652e-04 -3.796055e-03
Ga 1.565565e+00 -9.602384e-01 4.956341e+00 -1.251159e-03 8.270560e-04 2.549988e-04
Al 1.565497e+00 -9.523386e-01 -5.276106e+00 -7.225889e-04 4.834088e-04 5.079120e-04
Al 1.560758e+00 -9.424402e-01 -1.361957e-01 -3.261951e-04 2.592940e-04 2.723089e-03
Al 3.133052e+00 1.784890e+00 4.952471e+00 -5.896063e-04 -4.709799e-04 9.471716e-04
Ga 3.126801e+00 1.785078e+00 -5.279436e+00 -3.000573e-04 -1.699735e-04 1.898698e-03
Al 3.124233e+00 1.782680e+00 -1.238141e-01 -6.635364e-04 -7.362618e-04 -7.060963e-04
Al 6.298286e+00 -3.699196e+00 4.970952e+00 5.013209e-04 6.861628e-04 -9.341359e-04
Al 6.292619e+00 -3.677653e+00 -5.285200e+00 5.613254e-04 4.428524e-04 -1.494325e-03
Ga 6.297621e+00 -3.703343e+00 -1.248585e-01 -1.250957e-03 -7.217936e-04 2.453301e-03
Al 4.721913e+00 -9.495014e-01 4.971299e+00 -5.190509e-04 -2.033587e-04 2.072558e-04
Al 4.721573e+00 -9.538511e-01 -5.281674e+00 -1.204326e-04 -2.685715e-05 -1.761647e-03
Ga 4.699604e+00 -9.383720e-01 -1.234406e-01 -9.037674e-04 7.959277e-05 -1.191945e-03
Al -3.188644e+00 1.778847e+00 4.942668e+00 -2.147834e-04 1.048012e-04 7.418434e-04
Al -3.173930e+00 1.785484e+00 -5.277385e+00 -2.143010e-04 -2.720107e-03 2.472406e-03
Al -3.190436e+00 1.793403e+00 -1.184529e-01 1.178589e-03 -2.557551e-04 1.631004e-04
Al -2.744753e-02 -3.688264e+00 4.945550e+00 1.040072e-04 3.791566e-04 6.757080e-04
Al -1.488616e-02 -3.670497e+00 -5.284890e+00 -2.250390e-03 1.669389e-03 2.514837e-03
Al -1.779067e-02 -3.684550e+00 -1.118867e-01 6.804765e-04 2.591376e-04 6.448582e-04
Al -1.597588e+00 -9.447705e-01 4.968140e+00 -2.755769e-04 -6.274109e-04 5.669284e-04
Al -1.596393e+00 -9.332914e-01 -5.279108e+00 -5.034738e-04 -1.034884e-03 -1.825579e-03
Ga -1.586774e+00 -9.272736e-01 -1.300333e-01 -8.940509e-05 1.051678e-03 -5.878733e-04
N 1.550571e+00 9.118125e-01 4.327948e+00 5.830334e-04 9.759525e-04 -8.914953e-04
N 1.507140e+00 8.518049e-01 -5.888973e+00 9.660012e-05 3.070589e-04 -1.155717e-03
N 1.545716e+00 8.699111e-01 -7.509464e-01 1.023179e-03 4.538276e-04 -1.057316e-03
N -2.453429e-02 3.591142e+00 4.363524e+00 -3.986264e-04 1.282344e-04 -5.776585e-04
N -2.784786e-02 3.600058e+00 -5.873922e+00 -4.880197e-04 -5.880454e-05 -5.546205e-04
N -2.976108e-02 3.554549e+00 -8.018093e-01 5.887684e-04 1.012707e-03 -2.932864e-03
N 3.184698e+00 -1.891765e+00 4.343133e+00 8.289841e-04 -2.211141e-04 -2.557584e-04
N 3.143600e+00 -1.864287e+00 -5.871475e+00 -2.806295e-04 -4.146118e-04 -1.189334e-04
N 3.094560e+00 -1.839623e+00 -7.987742e-01 9.478131e-04 -8.856268e-05 -2.655456e-03
N -4.769863e+00 8.686980e-01 4.354652e+00 6.764685e-04 4.623266e-04 -7.467113e-04
N -4.725095e+00 8.550612e-01 -5.893583e+00 1.545144e-03 4.665442e-04 -9.576476e-04
N -4.765617e+00 9.212647e-01 -7.158360e-01 4.039247e-04 1.319356e-03 -7.862583e-04
N -6.343610e+00 3.597461e+00 4.355356e+00 5.946538e-05 -1.120065e-04 -4.353232e-04
N -6.342601e+00 3.654576e+00 -5.896706e+00 5.010388e-04 2.968163e-04 -1.348698e-03
N -6.303768e+00 3.587318e+00 -7.169487e-01 6.678755e-04 -6.435114e-04 -3.081664e-05
N -3.175470e+00 -1.865053e+00 4.431478e+00 -2.689601e-05 -2.697325e-04 1.788758e-03
N -3.173631e+00 -1.856510e+00 -5.873278e+00 3.850739e-04 3.596214e-04 -1.126903e-03
N -3.179814e+00 -1.859233e+00 -7.634753e-01 1.248993e-05 -3.052049e-04 1.845347e-04
N -1.607225e+00 8.746148e-01 4.354368e+00 5.996275e-04 -4.448486e-04 -1.487746e-03
N -1.604346e+00 8.841590e-01 -5.882275e+00 -2.936377e-05 -3.361307e-04 -8.662749e-04
N -1.615251e+00 9.345550e-01 -7.771672e-01 3.198379e-04 -1.725962e-03 -3.055301e-03
N -3.188560e+00 3.606559e+00 4.357687e+00 3.639311e-04 -9.724659e-04 -8.270347e-04
N -3.176731e+00 3.613927e+00 -5.813447e+00 -2.090914e-03 -1.136196e-03 -2.193828e-03
N -3.231004e+00 3.589246e+00 -7.183624e-01 -6.208104e-04 -1.169108e-03 -1.370528e-03
N -6.028425e-02 -1.883034e+00 4.333254e+00 -1.072788e-05 -7.279611e-04 -1.973011e-04
N -1.785542e-02 -1.850509e+00 -5.864611e+00 -1.855225e-04 -9.468691e-04 -1.003851e-03
N 1.772694e-02 -1.878995e+00 -7.237078e-01 7.255869e-04 -1.566959e-03 -1.144730e-03
N -2.839791e-02 1.778107e+00 1.794768e+00 -2.319606e-04 5.377441e-04 2.507070e-04
N -2.847514e-02 1.774221e+00 6.876425e+00 -1.173011e-04 8.495437e-04 -1.728395e-03
N -2.483540e-02 1.778179e+00 -3.332877e+00 4.650379e-04 -1.256961e-04 -9.078913e-04
N 3.137524e+00 -3.694387e+00 1.852423e+00 4.433797e-03 1.208857e-03 5.414105e-03
N 3.183868e+00 -3.668977e+00 6.866674e+00 8.228776e-05 5.306180e-04 -1.131705e-03
N 3.188342e+00 -3.658630e+00 -3.337134e+00 -9.679417e-04 4.930512e-04 -1.944124e-03
N 1.561320e+00 -9.500011e-01 1.806633e+00 3.492706e-03 -2.933868e-03 5.591794e-04
N 1.564099e+00 -9.613945e-01 6.936937e+00 -2.584543e-04 2.003998e-04 -1.536769e-03
N 1.604937e+00 -9.210708e-01 -3.350044e+00 -5.977932e-04 7.632440e-04 -1.196707e-03
N 3.131649e+00 1.778678e+00 1.806995e+00 2.371477e-04 1.824536e-04 1.622382e-05
N 3.127718e+00 1.778063e+00 6.882056e+00 -1.094259e-04 -2.416444e-04 -1.388229e-03
N 3.088452e+00 1.760637e+00 -3.305633e+00 -1.138775e-03 -7.064360e-04 6.268493e-05
N 6.287814e+00 -3.735939e+00 1.867421e+00 2.408176e-03 -1.593866e-03 -1.733202e-03
N 6.295078e+00 -3.691360e+00 6.887350e+00 -3.540965e-04 -4.299599e-05 -6.656330e-04
N 6.266573e+00 -3.703418e+00 -3.378775e+00 -2.091857e-03 -1.782580e-03 2.606127e-03
N 4.689326e+00 -9.180550e-01 1.849867e+00 -2.936311e-03 -5.047040e-03 1.551609e-03
N 4.716893e+00 -9.547362e-01 6.887783e+00 -7.355105e-04 -2.909589e-04 -7.919417e-04
N 4.682004e+00 -9.637731e-01 -3.378023e+00 -2.119843e-03 -4.119410e-04 2.441572e-03
N -3.183549e+00 1.780644e+00 1.817397e+00 3.497807e-04 1.011734e-04 1.427016e-03
N -3.187182e+00 1.736901e+00 6.858639e+00 4.525129e-05 -2.369398e-04 -1.280120e-03
N -3.144513e+00 1.761416e+00 -3.357867e+00 -9.575491e-04 2.252008e-04 -2.754601e-03
N -1.658407e-02 -3.687069e+00 1.818252e+00 -3.105517e-04 -1.072187e-03 8.779015e-04
N -5.933262e-02 -3.657507e+00 6.863260e+00 -3.193444e-05 7.936745e-05 -1.193402e-03
N -1.996161e-02 -3.676105e+00 -3.374993e+00 6.492728e-05 -9.126315e-05 -1.616542e-03
N -1.557284e+00 -9.361705e-01 1.843913e+00 -1.915984e-03 4.973125e-03 2.496273e-03
N -1.593426e+00 -9.483299e-01 6.890671e+00 -5.834093e-04 -1.430719e-04 -1.050762e-03
N -1.594266e+00 -8.898795e-01 -3.365262e+00 -1.590408e-04 -1.360283e-03 7.748719e-04
