108
Energy=-1169071.702476 Lattice="9.483850 0.000000 0.000000 -4.754595 8.202500 0.000000 0.019791 0.009294 15.288719" Stress="-0.000008 -0.000007 0.000009 -0.000007 -0.000019 0.000002 0.000009 0.000002 0.000013" Properties=species:S:1:pos:R:3:forces:R:3
Al 1.560885 0.865449 2.394773 0.000210 0.000114 0.001670
Al 1.579006 0.853681 7.483572 -0.004699 0.006857 -0.001568
Al 1.571083 0.860265 -2.689837 -0.009062 -0.002377 0.001065
Al -0.006079 3.588644 2.411599 -0.005547 -0.002612 0.007993
Al -0.026696 3.623753 7.476201 -0.000057 -0.004744 -0.008371
Al -0.035297 3.600067 -2.688692 -0.000136 -0.001317 0.000691
Al 3.148528 -1.860411 2.409836 -0.000371 0.003038 0.005646
Al 3.155469 -1.865641 7.489183 0.001950 -0.001082 0.000934
Al 3.137060 -1.878720 -2.714137 0.000685 0.008143 0.001192
Al -4.768380 0.876222 2.408377 -0.016030 -0.009372 0.010111
Al -4.771229 0.867394 7.471105 0.001866 0.000627 0.000829
Ga -4.794191 0.858180 -2.702054 0.002211 0.000055 0.001655
Al -6.366756 3.596583 2.415949 -0.000112 -0.000265 0.004900
Ga -6.340813 3.601418 7.467159 0.001262 0.000908 -0.001014
Ga -6.369478 3.594342 -2.694154 0.001460 0.000489 0.001016
Ga -3.176353 -1.859099 2.411200 -0.001661 0.000916 0.001503
Al -3.171792 -1.848856 7.472582 0.000459 0.000523 -0.000470
Ga -3.182923 -1.851828 -2.689733 0.000136 0.000906 0.001935
Al -1.587468 0.869730 2.409249 -0.003500 0.002950 0.005584
Ga -1.598055 0.881096 7.455723 0.001615 -0.001322 0.000940
Al -1.593152 0.873396 -2.693868 0.000383 -0.000709 0.001238
Ga -3.213796 3.616674 2.469788 0.003844 -0.000038 -0.001040
Al -3.170067 3.627839 7.459706 -0.001135 -0.000903 -0.001493
Ga -3.176403 3.626771 -2.695283 -0.000674 -0.001832 0.000418
Al -0.010175 -1.853469 2.415883 -0.000507 0.008315 0.004185
Al -0.008308 -1.851950 7.484526 -0.000406 -0.001024 0.000649
Al -0.010264 -1.823874 -2.702965 0.000884 -0.000784 0.001485
Al -0.015850 1.787946 4.937112 -0.000781 0.001501 -0.004347
Ga -0.012844 1.777381 -5.251095 -0.001015 -0.001531 0.001867
Al -0.007129 1.777680 -0.151716 -0.002766 -0.002684 0.000902
Al 3.159078 -3.693811 4.949417 0.004283 0.002834 0.003258
Al 3.163776 -3.671520 -5.257169 -0.006490 -0.000716 -0.004692
Ga 3.172179 -3.680347 -0.115016 -0.001212 0.001649 0.000477
Ga 1.566012 -0.963880 4.952934 0.000452 0.001652 0.001658
Al 1.574516 -0.956102 -5.265844 -0.000974 -0.000557 0.001666
Al 1.569014 -0.940944 -0.144496 -0.000795 -0.000143 0.000190
Al 3.137993 1.780281 4.932640 0.000469 -0.000012 0.000813
Al 3.124972 1.756809 -5.272375 0.000451 0.000067 0.000865
Al 3.115952 1.773006 -0.112033 0.000231 0.000299 -0.001524
Al 6.307550 -3.682948 4.955022 -0.000600 -0.001793 -0.000260
Ga 6.284545 -3.676396 -5.269444 0.002122 0.000479 0.000933
Al 6.298079 -3.696021 -0.121402 0.000404 0.002152 -0.001356
Al 4.735092 -0.948645 4.961183 -0.002435 0.001130 0.000184
Al 4.713927 -0.951930 -5.286421 -0.001104 -0.000794 0.000976
Al 4.710661 -0.949767 -0.125758 -0.000867 -0.001634 -0.000601
Al -3.195179 1.783302 4.945173 -0.000053 -0.001117 0.002032
Ga -3.201013 1.781139 -5.271339 -0.000088 0.000162 -0.000237
Ga -3.200934 1.758626 -0.108264 0.001189 0.001103 -0.001075
Al -0.012523 -3.683074 4.936106 -0.011457 0.000297 0.011636
Ga -0.011400 -3.666307 -5.266784 0.000300 -0.000385 -0.000057
Ga -0.041761 -3.658714 -0.118667 0.000586 0.000947 -0.001718
Al -1.595117 -0.951496 4.939398 -0.001231 0.000597 0.002724
Al -1.599374 -0.958934 -5.253622 -0.000004 0.003573 -0.000827
Al -1.592036 -0.936324 -0.135104 0.000173 -0.001817 -0.000699
N 1.554580 0.907164 4.316329 0.001170 -0.000623 -0.004394
N 1.589525 0.840390 -5.887152 -0.000243 0.001068 -0.001869
N 1.564092 0.870207 -0.750825 -0.000570 -0.000380 -0.000621
N -0.018323 3.603915 4.340457 -0.000895 -0.000095 -0.002389
N -0.070515 3.619629 -5.920938 -0.001105 -0.000091 0.003715
N 0.011894 3.582049 -0.770595 -0.000296 -0.000482 0.000957
N 3.190448 -1.886154 4.336136 0.000318 0.000415 -0.002782
N 3.143246 -1.868367 -5.872427 0.000271 -0.000454 -0.000052
N 3.142380 -1.824463 -0.777709 0.000567 0.000670 -0.002027
N -4.767893 0.867644 4.341005 -0.000237 0.000107 -0.001399
N -4.815035 0.847815 -5.894231 -0.000150 0.000156 -0.001373
N -4.823597 0.849012 -0.719648 0.000194 -0.000320 -0.000193
N -6.351122 3.607154 4.351795 -0.000456 -0.001251 -0.002482
N -6.355872 3.559405 -5.851582 -0.000635 -0.001391 0.000156
N -6.393894 3.578037 -0.714382 -0.000634 -0.000441 0.001441
N -3.177238 -1.858832 4.392888 0.000443 -0.000055 -0.001935
N -3.178192 -1.815275 -5.890149 0.000101 0.001443 -0.000862
N -3.182381 -1.858123 -0.690228 0.000463 -0.000474 0.001848
N -1.603026 0.877927 4.346347 0.000510 -0.000439 -0.002636
N -1.606817 0.836004 -5.866643 0.000633 -0.003753 0.001579
N -1.581148 0.853251 -0.764618 0.003544 0.002114 0.000057
N -3.208409 3.636434 4.451448 0.010250 -0.010963 -0.011559
N -3.156887 3.633061 -5.916176 0.004799 0.001793 0.003734
N -3.194269 3.612526 -0.728064 0.000548 -0.001020 0.001306
N -0.060218 -1.902955 4.342999 0.002052 0.009926 -0.009664
N -0.021397 -1.808414 -5.884039 -0.000483 0.000813 -0.000520
N -0.016513 -1.801495 -0.774514 -0.000356 0.000438 -0.000601
N -0.020530 1.774717 1.792382 -0.001417 0.001669 -0.003781
N 0.020873 1.804638 6.820961 0.005939 0.001622 0.013164
N -0.023057 1.783285 -3.261971 0.002796 -0.000431 0.002467
N 3.187701 -3.673366 1.868047 -0.001282 -0.001806 -0.004539
N 3.159623 -3.679621 6.870534 0.001221 0.001958 -0.000922
N 3.190876 -3.657308 -3.337128 0.001456 -0.004894 -0.000168
N 1.570940 -0.960157 1.795129 -0.000965 -0.000161 -0.000367
N 1.576771 -0.953491 6.939278 -0.000577 -0.001909 -0.003336
N 1.572559 -0.954182 -3.321886 -0.001062 0.000941 -0.000468
N 3.138750 1.782471 1.801986 -0.001203 0.001112 0.002104
N 3.141547 1.731843 6.850013 -0.000811 -0.000192 -0.002501
N 3.081398 1.751961 -3.357232 0.003388 0.002423 -0.001224
N 6.291365 -3.737082 1.803093 0.005860 0.002099 -0.005681
N 6.276938 -3.656137 6.869507 -0.000906 0.000297 -0.000982
N 6.258892 -3.703188 -3.298363 -0.001017 0.000181 -0.000514
N 4.678602 -0.926523 1.791188 0.001634 -0.000685 -0.002597
N 4.729697 -0.945588 6.885477 -0.000535 -0.001535 -0.001164
N 4.684752 -0.976055 -3.367611 -0.001366 -0.001905 0.000741
N -3.235815 1.733869 1.883242 0.023590 0.006373 -0.008227
N -3.223987 1.809943 6.864141 -0.001911 -0.000190 -0.001421
N -3.158987 1.764977 -3.295273 0.000605 -0.000662 0.001102
N -0.067203 -3.632671 1.857657 -0.001068 -0.010025 -0.002510
N 0.030512 -3.650474 6.860294 -0.001273 0.000475 0.000737
N -0.022571 -3.628960 -3.293491 -0.000597 0.000458 0.001793
N -1.551630 -0.920229 1.787570 -0.000877 -0.001216 -0.001646
N -1.584832 -0.990622 6.850095 -0.000821 -0.001086 -0.000571
N -1.563750 -0.923120 -3.327228 -0.000455 -0.000342 -0.001396
