108
Energy=-1.077521e+06 Lattice="9.471790e+00 0.000000e+00 0.000000e+00 -4.738174e+00 8.201469e+00 0.000000e+00 -2.281674e-03 5.047598e-04 1.525619e+01" Stress="1.932310e-04 -1.852840e-05 -2.003923e-05 -3.284346e-05 -1.107036e-04 4.563179e-05 -1.588149e-05 5.182824e-05 3.919420e-04" Properties=species:S:1:pos:R:3:forces:R:3 Config_type=AlGaN_super3_14_1_18.xyz
Al 1.553374e+00 8.564207e-01 2.399133e+00 7.498547e-04 -1.815102e-04 -5.279194e-04
Al 1.564604e+00 8.815150e-01 7.482202e+00 -1.914525e-04 1.185683e-04 3.322156e-05
Al 1.548483e+00 8.845003e-01 -2.697062e+00 -6.363554e-05 1.501175e-04 1.997853e-04
Al -2.626087e-02 3.607463e+00 2.384320e+00 -8.073194e-04 -1.099273e-04 -1.853066e-04
Al -2.483000e-02 3.607919e+00 7.485935e+00 -1.256270e-04 2.206849e-04 -5.076761e-05
Al -2.544803e-02 3.593621e+00 -2.690444e+00 1.341432e-05 -9.135905e-05 2.884336e-04
Al 3.119818e+00 -1.867024e+00 2.395889e+00 5.840828e-05 1.796444e-04 -2.467990e-04
Al 3.147513e+00 -1.861711e+00 7.457172e+00 2.868746e-05 2.619801e-05 7.681635e-05
Ga 3.134974e+00 -1.872180e+00 -2.671166e+00 1.493635e-04 -5.554068e-06 4.474192e-04
Al -4.760861e+00 8.795420e-01 2.422327e+00 1.214367e-04 -3.735889e-04 1.070924e-05
Al -4.767525e+00 8.718870e-01 7.470605e+00 2.760592e-04 -1.000519e-04 -7.654749e-06
Al -4.750719e+00 8.884334e-01 -2.708843e+00 2.811149e-05 -2.671439e-04 2.113890e-05
Ga -6.352622e+00 3.595932e+00 2.405504e+00 3.830801e-04 8.656094e-05 -3.114574e-04
Al -6.354473e+00 3.591079e+00 7.484278e+00 -9.436270e-05 -9.591784e-05 1.765200e-04
Al -6.335318e+00 3.602310e+00 -2.701428e+00 -1.213991e-04 4.341458e-05 -1.090390e-04
Ga -3.176813e+00 -1.869442e+00 2.408876e+00 -2.625987e-04 6.700647e-06 5.633698e-04
Al -3.184623e+00 -1.857095e+00 7.457669e+00 -1.446919e-04 5.562024e-06 -7.399682e-05
Al -3.161281e+00 -1.860975e+00 -2.681918e+00 -1.723584e-04 1.805456e-04 -2.181132e-04
Ga -1.601694e+00 8.789107e-01 2.377796e+00 -2.168999e-04 -9.528007e-05 -9.160675e-05
Al -1.610537e+00 8.701951e-01 7.494322e+00 1.289348e-04 -8.786312e-05 5.751859e-05
Al -1.601709e+00 8.761238e-01 -2.696616e+00 2.590855e-04 -2.524971e-04 3.369709e-04
Al -3.166029e+00 3.601647e+00 2.397869e+00 -1.792106e-04 -9.106274e-05 -7.760591e-04
Ga -3.171123e+00 3.599224e+00 7.496221e+00 4.276808e-04 -8.613219e-05 1.972895e-04
Al -3.177828e+00 3.596635e+00 -2.707299e+00 1.909038e-04 -5.584674e-05 6.032610e-05
Al -6.845750e-03 -1.849504e+00 2.397787e+00 6.327279e-05 1.618644e-04 -2.443691e-04
Ga -3.254434e-02 -1.846317e+00 7.491524e+00 3.315732e-04 -1.911315e-04 2.375196e-04
Al -3.294337e-02 -1.860024e+00 -2.699581e+00 -3.993119e-05 2.179551e-04 3.222771e-05
Ga -2.086256e-02 1.785090e+00 4.949228e+00 -4.641012e-04 1.566422e-04 1.299959e-04
Al -3.172040e-02 1.783674e+00 -5.239722e+00 -1.147469e-04 1.231426e-04 3.500490e-04
Al -2.433783e-02 1.786298e+00 -1.634320e-01 -7.383517e-04 3.797343e-04 4.579318e-05
Al 3.143358e+00 -3.678762e+00 4.921490e+00 2.496422e-04 1.252727e-04 1.689262e-04
Al 3.135293e+00 -3.698848e+00 -5.228244e+00 8.056660e-05 5.512226e-05 -1.238893e-04
Al 3.141550e+00 -3.703632e+00 -1.397821e-01 -2.200034e-04 1.262920e-04 6.349681e-04
Al 1.567529e+00 -9.479311e-01 4.934331e+00 -3.807271e-04 -2.695496e-05 2.274726e-05
Ga 1.558711e+00 -9.452395e-01 -5.231177e+00 -5.751938e-04 2.344991e-04 9.609745e-05
Al 1.540502e+00 -9.461787e-01 -1.449968e-01 -3.119124e-04 -2.256899e-05 4.861126e-04
Al 3.133804e+00 1.769918e+00 4.949436e+00 -1.565702e-05 -1.467417e-04 -6.242256e-05
Al 3.138888e+00 1.789497e+00 -5.236162e+00 1.574564e-05 8.504870e-05 2.195673e-04
Ga 3.127479e+00 1.774949e+00 -1.528754e-01 6.817988e-05 1.152519e-04 2.742414e-04
Al 6.276863e+00 -3.683279e+00 4.969005e+00 2.064412e-04 4.808918e-05 2.260754e-04
Ga 6.295263e+00 -3.689211e+00 -5.234884e+00 1.095642e-05 1.148139e-05 6.653147e-05
Al 6.280968e+00 -3.685589e+00 -1.779552e-01 -6.263363e-05 -2.387479e-04 1.420905e-04
Al 4.705880e+00 -9.480237e-01 4.941614e+00 -1.819446e-04 3.101914e-04 -1.135587e-04
Ga 4.724775e+00 -9.431294e-01 -5.243922e+00 -3.895182e-04 1.696823e-04 1.890475e-04
Ga 4.723991e+00 -9.471659e-01 -1.388096e-01 4.882846e-05 2.050786e-04 4.241689e-04
Al -3.188176e+00 1.776134e+00 4.947754e+00 -7.029629e-05 -5.810699e-05 2.544701e-04
Al -3.175569e+00 1.784106e+00 -5.227492e+00 2.435475e-06 -6.813138e-05 6.430866e-05
Al -3.169264e+00 1.789230e+00 -1.671575e-01 -8.527351e-05 -1.886581e-04 4.095021e-04
Ga -2.067355e-02 -3.680626e+00 4.928380e+00 -5.955163e-05 -4.759509e-06 1.768341e-04
Al -2.207019e-02 -3.695083e+00 -5.214494e+00 -1.177003e-04 -6.942772e-05 6.140568e-05
Ga -1.077556e-02 -3.673574e+00 -1.532229e-01 1.786057e-04 -7.065638e-05 -4.958258e-04
Al -1.609041e+00 -9.447724e-01 4.949817e+00 6.116208e-04 -5.550512e-04 5.970015e-05
Al -1.604271e+00 -9.367504e-01 -5.218871e+00 6.870769e-05 -1.654164e-04 4.654590e-05
Al -1.589887e+00 -9.427846e-01 -1.737197e-01 -2.480227e-04 -3.468847e-04 -2.173493e-04
N 1.590597e+00 8.483445e-01 4.315110e+00 6.571057e-04 -6.447748e-05 -1.970507e-04
N 1.558907e+00 9.226380e-01 -5.857549e+00 1.335588e-04 8.148928e-05 -3.328355e-04
N 1.512161e+00 8.503435e-01 -7.815338e-01 5.646197e-04 -4.657802e-04 -2.875064e-04
N -1.995256e-02 3.649826e+00 4.303688e+00 7.884347e-05 3.637497e-04 -6.346606e-05
N -6.515227e-02 3.584753e+00 -5.858893e+00 -2.828806e-04 -3.530143e-04 4.546210e-05
N -2.963293e-02 3.603107e+00 -7.685928e-01 -5.181937e-05 -1.280028e-04 -6.977926e-05
N 3.131369e+00 -1.862900e+00 4.324876e+00 -2.288253e-05 -4.348347e-05 -1.290632e-04
N 3.138192e+00 -1.912528e+00 -5.882876e+00 8.629744e-05 -3.074258e-04 -4.078235e-04
N 3.094737e+00 -1.890505e+00 -6.999057e-01 -2.086484e-04 1.448522e-04 4.609720e-05
N -4.759242e+00 8.756038e-01 4.344815e+00 1.156004e-04 9.462824e-05 -3.639993e-04
N -4.758496e+00 9.233010e-01 -5.865846e+00 2.800522e-04 2.029924e-04 1.743064e-04
N -4.717033e+00 8.994362e-01 -8.050147e-01 5.638961e-05 -1.071335e-04 -1.363342e-04
N -6.392693e+00 3.582056e+00 4.375357e+00 -1.889428e-05 -3.347964e-04 1.201650e-04
N -6.297679e+00 3.581995e+00 -5.854120e+00 2.266789e-04 -1.468684e-04 3.732281e-05
N -6.371833e+00 3.625509e+00 -7.936876e-01 -2.499362e-04 9.248436e-05 2.938772e-04
N -3.179345e+00 -1.867081e+00 4.394870e+00 -4.511466e-05 -4.272336e-06 8.770229e-05
N -3.132521e+00 -1.838153e+00 -5.887931e+00 2.682270e-04 1.110921e-04 -7.288236e-05
N -3.136913e+00 -1.880561e+00 -7.731240e-01 4.995306e-04 1.854568e-04 3.244182e-04
N -1.644392e+00 8.515761e-01 4.351382e+00 -5.567569e-05 1.484390e-04 -7.430263e-05
N -1.605288e+00 8.713669e-01 -5.834925e+00 1.900588e-04 -1.337958e-04 -2.227345e-04
N -1.600888e+00 8.781332e-01 -7.650759e-01 2.610938e-04 -2.075338e-04 1.167805e-04
N -3.136729e+00 3.576829e+00 4.314843e+00 2.581672e-04 -3.598747e-04 -3.279489e-04
N -3.180288e+00 3.605872e+00 -5.780244e+00 2.179803e-05 -1.082719e-04 1.416241e-06
N -3.136974e+00 3.586014e+00 -7.870357e-01 4.772962e-04 -3.058807e-04 -3.148600e-04
N -2.411324e-02 -1.803797e+00 4.316501e+00 -1.449607e-04 1.285645e-04 -2.258975e-04
N -6.500142e-02 -1.884142e+00 -5.793258e+00 -1.202325e-04 -8.012161e-06 -2.401557e-05
N -1.958783e-02 -1.815981e+00 -7.894627e-01 -1.810642e-04 3.860819e-04 5.022235e-04
N 2.382057e-02 1.805797e+00 1.761311e+00 -5.168563e-04 2.765839e-04 3.532727e-04
N -2.702421e-02 1.782057e+00 6.930341e+00 2.407121e-04 -2.662424e-05 2.391968e-04
N -2.459987e-02 1.783161e+00 -3.309792e+00 -7.538594e-05 1.781739e-04 -1.586901e-04
N 3.136371e+00 -3.690787e+00 1.787317e+00 1.314987e-04 1.462732e-04 -1.882893e-04
N 3.176065e+00 -3.665806e+00 6.838762e+00 -4.890792e-05 1.946279e-04 -1.214351e-04
N 3.143780e+00 -3.730720e+00 -3.319647e+00 -4.224936e-04 5.154119e-05 1.489787e-04
N 1.553555e+00 -9.510658e-01 1.782552e+00 8.692623e-05 1.157609e-04 -2.806630e-04
N 1.596012e+00 -9.244255e-01 6.856475e+00 -3.123329e-05 2.097086e-05 -9.282552e-05
N 1.523457e+00 -9.246954e-01 -3.266233e+00 -2.060022e-04 -2.936819e-04 -2.803664e-04
N 3.133066e+00 1.728361e+00 1.819709e+00 1.536064e-04 2.935624e-04 -3.015195e-04
N 3.131550e+00 1.780801e+00 6.869462e+00 -1.659864e-04 1.567581e-05 -3.587869e-04
N 3.132791e+00 1.781940e+00 -3.309708e+00 2.895713e-05 -9.410499e-05 -9.378124e-05
N 6.250107e+00 -3.706538e+00 1.733449e+00 3.535058e-04 1.972950e-04 -7.606409e-04
N 6.285881e+00 -3.689079e+00 6.889854e+00 1.424251e-04 -1.564219e-04 -1.863261e-04
N 6.289538e+00 -3.684537e+00 -3.253126e+00 1.670831e-04 1.042530e-04 -4.058573e-05
N 4.677919e+00 -9.226439e-01 1.838767e+00 -6.765084e-04 -3.041056e-04 6.961279e-05
N 4.710082e+00 -9.448019e-01 6.867144e+00 -1.365185e-04 -3.633378e-05 -8.956770e-05
N 4.756561e+00 -9.304953e-01 -3.266075e+00 1.384830e-04 1.497447e-04 -1.423129e-04
N -3.228570e+00 1.806105e+00 1.756674e+00 6.419167e-05 1.326434e-04 -5.398633e-04
N -3.181804e+00 1.739231e+00 6.861758e+00 -6.678521e-05 -2.202277e-04 -9.250278e-05
N -3.175295e+00 1.780836e+00 -3.309883e+00 -2.557021e-05 -1.104345e-04 -8.782538e-05
N 1.823237e-02 -3.663783e+00 1.828230e+00 2.223977e-04 5.436001e-04 1.484484e-03
N -6.102813e-02 -3.706153e+00 6.892861e+00 1.910383e-05 9.491373e-05 -1.410961e-04
N -2.121604e-02 -3.685876e+00 -3.291563e+00 1.567641e-04 -2.360507e-05 7.417937e-05
N -1.559615e+00 -9.776112e-01 1.738323e+00 1.131644e-04 8.817992e-05 -9.177196e-05
N -1.638085e+00 -9.203762e-01 6.854947e+00 -4.732119e-04 2.074455e-04 1.297700e-04
N -1.603469e+00 -9.446126e-01 -3.297967e+00 -2.630436e-04 9.671523e-05 -3.822273e-04
