108
Energy=-8.486435e+05 Lattice="9.447177e+00 0.000000e+00 0.000000e+00 -4.726557e+00 8.177284e+00 0.000000e+00 -1.162568e-02 -7.161437e-03 1.519360e+01" Stress="1.005540e-03 -1.921545e-04 -5.189959e-04 -1.950270e-04 2.346005e-04 -3.231936e-04 -5.334416e-04 -3.275983e-04 1.522774e-03" Properties=species:S:1:pos:R:3:forces:R:3 Config_type=AlGaN_super3_9_1_82.xyz
Al 1.550176e+00 8.689201e-01 2.422551e+00 -1.455719e-04 -1.437790e-04 1.519864e-04
Al 1.550937e+00 8.735913e-01 7.445489e+00 -2.028309e-05 1.439848e-05 -1.416073e-05
Al 1.552911e+00 8.726855e-01 -2.719861e+00 7.384038e-05 1.493025e-05 -1.793297e-04
Al -9.607742e-03 3.598001e+00 2.419143e+00 -7.548380e-05 -3.552629e-05 -2.825231e-05
Al -3.008499e-02 3.590574e+00 7.444354e+00 -1.048282e-05 -3.097620e-05 -2.709632e-05
Al -2.020736e-02 3.590485e+00 -2.714788e+00 -6.647350e-06 -6.093300e-06 -2.268455e-04
Al 3.135228e+00 -1.846627e+00 2.414374e+00 -1.108291e-04 1.040200e-04 -2.835278e-05
Al 3.130171e+00 -1.860647e+00 7.446685e+00 3.834465e-05 -1.726446e-05 1.792489e-05
Al 3.128141e+00 -1.849868e+00 -2.710414e+00 -9.418943e-05 -1.223762e-04 -5.310211e-05
Al -4.745619e+00 8.596023e-01 2.403009e+00 -1.989419e-04 -3.989025e-05 7.092502e-05
Al -4.758466e+00 8.637492e-01 7.434449e+00 1.640099e-05 4.723583e-06 -7.197866e-05
Al -4.751858e+00 8.698265e-01 -2.688682e+00 1.245705e-04 -2.126299e-04 -3.772887e-04
Al -6.337770e+00 3.597853e+00 2.391522e+00 -1.659680e-04 -1.080192e-04 -1.828375e-05
Al -6.338780e+00 3.579049e+00 7.461022e+00 3.399471e-06 -2.639536e-05 -6.400086e-05
Al -6.318554e+00 3.593789e+00 -2.700226e+00 -2.976104e-06 1.922204e-05 -1.741335e-04
Al -3.173538e+00 -1.859531e+00 2.380582e+00 2.935001e-06 -4.321151e-05 -4.230181e-05
Al -3.183559e+00 -1.858816e+00 7.445627e+00 -1.827666e-05 2.894401e-05 -8.806960e-06
Ga -3.172740e+00 -1.854304e+00 -2.678754e+00 -8.404581e-05 3.985322e-07 -1.982320e-05
Al -1.602201e+00 8.603290e-01 2.400072e+00 3.403198e-05 5.850388e-06 2.339214e-05
Al -1.602737e+00 8.685492e-01 7.436905e+00 7.309900e-05 1.110113e-04 -2.610075e-04
Al -1.587642e+00 8.739308e-01 -2.684744e+00 2.294386e-04 -1.102602e-04 -1.270766e-04
Ga -3.175355e+00 3.586573e+00 2.389476e+00 -1.459796e-05 -4.435788e-05 -3.876757e-05
Al -3.167266e+00 3.585683e+00 7.452317e+00 8.706510e-05 -1.106075e-05 2.116422e-06
Al -3.175217e+00 3.601197e+00 -2.685280e+00 1.136869e-04 -1.460677e-04 -2.903630e-04
Al -3.204735e-02 -1.848492e+00 2.392754e+00 -1.693399e-05 2.308044e-04 1.344281e-04
Ga -2.902533e-02 -1.849946e+00 7.466354e+00 9.173358e-06 -8.364629e-06 -3.118663e-05
Al -1.614098e-02 -1.855529e+00 -2.703473e+00 2.092269e-05 -4.164299e-05 -1.890983e-04
Al -2.837982e-02 1.775466e+00 4.921964e+00 3.358472e-05 3.759714e-06 -7.008144e-06
Al -1.369761e-02 1.779323e+00 -5.228197e+00 3.981577e-05 -1.673321e-06 -8.206552e-05
Ga -2.884577e-02 1.781488e+00 -1.391839e-01 -3.815843e-06 5.600642e-05 6.624457e-05
Al 3.138825e+00 -3.671560e+00 4.934149e+00 1.969828e-05 -3.047137e-06 -1.233727e-05
Al 3.136210e+00 -3.664427e+00 -5.220518e+00 7.038882e-07 5.088301e-05 -1.110399e-05
Ga 3.139241e+00 -3.667656e+00 -1.565314e-01 2.957897e-06 2.092017e-05 -1.553346e-05
Al 1.556156e+00 -9.418942e-01 4.917922e+00 1.481588e-04 1.250915e-04 1.261665e-04
Al 1.563377e+00 -9.427175e-01 -5.212469e+00 7.255656e-05 3.914603e-05 -2.111475e-05
Ga 1.551222e+00 -9.544355e-01 -1.479308e-01 -8.886386e-06 1.146772e-05 4.041883e-05
Al 3.117675e+00 1.771200e+00 4.920532e+00 -3.720962e-05 4.185149e-06 6.957664e-05
Al 3.123343e+00 1.779558e+00 -5.220459e+00 -3.971024e-05 -2.762047e-06 -3.309000e-05
Ga 3.138809e+00 1.785273e+00 -1.456243e-01 -1.272005e-05 -4.348433e-05 6.858776e-05
Al 6.266689e+00 -3.672841e+00 4.927566e+00 -7.616922e-05 5.072004e-05 6.151511e-05
Al 6.280790e+00 -3.673321e+00 -5.235277e+00 -5.006827e-05 1.852487e-05 -6.286428e-05
Al 6.285599e+00 -3.667110e+00 -1.402610e-01 -6.287015e-04 9.075224e-05 6.549012e-05
Al 4.701449e+00 -9.524342e-01 4.921264e+00 -5.995942e-05 -9.786910e-06 -1.085344e-05
Al 4.699547e+00 -9.498702e-01 -5.237429e+00 -3.349265e-05 -5.246117e-05 6.651715e-06
Al 4.711665e+00 -9.434618e-01 -1.318243e-01 -5.016929e-05 1.258528e-05 1.091975e-04
Al -3.172264e+00 1.760771e+00 4.939181e+00 9.815256e-07 4.273677e-05 2.585880e-05
Ga -3.167492e+00 1.777130e+00 -5.217457e+00 3.612974e-06 -1.728231e-05 2.601309e-05
Al -3.176336e+00 1.764305e+00 -1.643824e-01 1.887300e-06 -6.371777e-05 7.155031e-05
Ga -3.364235e-02 -3.676646e+00 4.931482e+00 -1.664500e-05 -5.420834e-06 -2.574331e-05
Al -2.114619e-02 -3.672839e+00 -5.211253e+00 -5.870937e-05 1.406341e-04 -3.369780e-05
Al -3.647794e-02 -3.667191e+00 -1.591766e-01 2.089248e-04 -1.705795e-04 3.791255e-05
Al -1.611911e+00 -9.429863e-01 4.908685e+00 -3.080665e-05 3.293138e-05 -2.745602e-05
Al -1.593242e+00 -9.455993e-01 -5.214206e+00 -1.140031e-04 1.064102e-04 -1.008115e-04
Al -1.600730e+00 -9.500718e-01 -1.391348e-01 -1.984323e-04 -8.808478e-05 1.230672e-04
N 1.546653e+00 8.693097e-01 4.332542e+00 5.290642e-05 7.731446e-06 1.623862e-05
N 1.556507e+00 8.714273e-01 -5.823194e+00 6.163558e-05 3.325392e-05 4.883911e-05
N 1.552215e+00 8.726212e-01 -8.159121e-01 3.533417e-05 -2.184552e-05 2.131677e-04
N -2.417472e-02 3.595343e+00 4.334952e+00 3.526331e-05 1.695112e-05 3.316110e-05
N -2.261774e-02 3.596930e+00 -5.827850e+00 -5.099629e-06 -7.627185e-06 2.576612e-05
N 2.391741e-02 3.618449e+00 -8.050986e-01 1.093086e-04 5.477190e-06 3.466560e-04
N 3.127462e+00 -1.858165e+00 4.329156e+00 4.329502e-05 1.859926e-05 1.288893e-05
N 3.129134e+00 -1.855383e+00 -5.827538e+00 -4.881198e-06 1.212405e-05 1.576785e-05
N 3.174520e+00 -1.825744e+00 -8.007214e-01 -1.104857e-04 -3.045118e-05 8.123206e-05
N -4.746967e+00 8.667948e-01 4.326931e+00 8.363856e-05 5.112313e-05 2.775433e-05
N -4.785541e+00 8.506912e-01 -5.848761e+00 6.889206e-05 2.548670e-06 1.774865e-05
N -4.710860e+00 8.400968e-01 -7.756476e-01 4.099222e-05 1.852301e-05 1.199569e-04
N -6.372127e+00 3.572350e+00 4.301361e+00 9.825520e-05 -9.288262e-05 -1.267476e-04
N -6.318627e+00 3.593714e+00 -5.817903e+00 1.339143e-05 2.145892e-05 3.141941e-05
N -6.326838e+00 3.643034e+00 -7.812596e-01 3.438102e-04 -1.436175e-04 3.404272e-05
N -3.176966e+00 -1.862000e+00 4.306947e+00 3.014921e-05 3.653030e-05 1.849269e-05
N -3.165033e+00 -1.852056e+00 -5.826271e+00 -1.451537e-06 4.974091e-06 5.473507e-06
N -3.171983e+00 -1.855019e+00 -6.930632e-01 1.618892e-04 5.443450e-05 -1.414202e-05
N -1.605476e+00 8.695573e-01 4.319284e+00 5.362646e-05 -6.772284e-06 -1.852446e-06
N -1.551747e+00 8.472811e-01 -5.848913e+00 -4.026133e-06 -8.729279e-05 6.121878e-04
N -1.630783e+00 8.437833e-01 -7.706989e-01 6.825533e-05 -2.318260e-05 1.396391e-04
N -3.134816e+00 3.565970e+00 4.360164e+00 -4.367232e-05 -3.603940e-05 -7.040491e-05
N -3.166055e+00 3.644478e+00 -5.830997e+00 9.223054e-05 -8.361794e-05 -4.684777e-05
N -3.214046e+00 3.576658e+00 -7.628599e-01 -8.901492e-05 -6.089738e-05 1.446411e-04
N -2.706518e-02 -1.810788e+00 4.306490e+00 -1.997901e-04 -1.072122e-04 -6.028682e-05
N -1.683715e-02 -1.850537e+00 -5.756340e+00 -2.669911e-05 -2.957222e-04 -5.150142e-05
N -6.378366e-02 -1.874969e+00 -7.807881e-01 -1.016612e-05 1.405020e-04 4.376275e-05
N -2.376051e-02 1.778759e+00 1.847331e+00 -8.244487e-05 6.581137e-05 2.560227e-06
N -2.697404e-02 1.774183e+00 6.842847e+00 5.759946e-06 8.067602e-05 -4.270810e-05
N -2.558016e-02 1.778134e+00 -3.308598e+00 8.153243e-06 -4.163481e-05 -3.571500e-05
N 3.174392e+00 -3.648196e+00 1.819500e+00 -1.046257e-05 -2.357668e-05 -3.798713e-05
N 3.126395e+00 -3.675318e+00 6.850539e+00 -6.119713e-06 6.154230e-05 1.435624e-05
N 3.127960e+00 -3.672980e+00 -3.295992e+00 -4.739015e-05 3.127277e-05 -1.014642e-05
N 1.553706e+00 -9.474984e-01 1.838720e+00 2.082036e-04 -1.201063e-04 -3.775584e-05
N 1.589258e+00 -9.279772e-01 6.831582e+00 -1.514721e-04 5.100050e-05 -1.364392e-04
N 1.556694e+00 -9.472025e-01 -3.297430e+00 -1.021937e-04 5.697098e-05 5.288318e-05
N 3.123698e+00 1.773375e+00 1.839276e+00 5.327692e-04 2.308662e-04 -5.940983e-05
N 3.118573e+00 1.776887e+00 6.839434e+00 2.301071e-05 6.973336e-06 2.311782e-05
N 3.132459e+00 1.780918e+00 -3.299547e+00 6.572811e-05 3.056507e-05 2.812122e-05
N 6.272235e+00 -3.678644e+00 1.781846e+00 -2.208412e-05 -5.446741e-06 2.103433e-05
N 6.272991e+00 -3.676327e+00 6.850781e+00 1.262124e-05 3.875351e-05 4.518497e-05
N 6.281225e+00 -3.714227e+00 -3.325835e+00 5.812735e-05 -2.812949e-05 1.429964e-06
N 4.695968e+00 -9.465183e-01 1.791999e+00 5.775907e-06 4.202052e-05 4.986847e-05
N 4.697580e+00 -9.543736e-01 6.840530e+00 -9.702065e-06 1.549775e-05 8.364447e-06
N 4.667058e+00 -9.224693e-01 -3.327654e+00 2.215497e-04 3.770168e-04 1.130999e-05
N -3.174823e+00 1.723785e+00 1.756305e+00 1.627964e-05 5.169831e-05 -1.148721e-04
N -3.178026e+00 1.771238e+00 6.855802e+00 -1.914148e-05 5.522253e-05 7.682294e-06
N -3.168029e+00 1.777858e+00 -3.240045e+00 -5.789347e-04 3.515047e-04 1.414564e-04
N -6.653524e-02 -3.649126e+00 1.765524e+00 -2.925727e-06 -1.821213e-04 -2.361537e-04
N -3.130682e-02 -3.723356e+00 6.894606e+00 -6.040807e-05 3.529654e-05 -1.803887e-05
N -1.883156e-02 -3.675874e+00 -3.293200e+00 -8.550526e-06 -4.811661e-05 2.247627e-06
N -1.596533e+00 -9.459482e-01 1.785127e+00 -3.469884e-06 1.851348e-05 4.156388e-05
N -1.644886e+00 -9.301670e-01 6.820354e+00 -6.238315e-05 -2.015102e-04 -8.720646e-05
N -1.560761e+00 -9.200530e-01 -3.306903e+00 1.370530e-04 -1.124730e-04 1.641104e-04
