108
Energy=-848641.289749 Lattice="9.461321 0.000000 0.000000 -4.733035 8.192786 0.000000 0.007855 0.002194 15.243635" Stress="-0.000013 0.000005 0.000012 0.000005 0.000033 0.000009 0.000012 0.000009 0.000056" Properties=species:S:1:pos:R:3:forces:R:3
Al 1.573635 0.882496 2.417009 -0.007319 -0.003873 0.001065
Al 1.564972 0.886942 7.473635 -0.005185 -0.006588 -0.003306
Al 1.560254 0.888764 -2.720308 0.002139 -0.008796 -0.000178
Al 0.052444 3.633807 2.423011 -0.102554 -0.057975 0.033769
Al -0.003486 3.613919 7.471240 -0.003870 -0.001856 -0.001239
Al -0.016842 3.596111 -2.739863 0.000258 0.004391 0.003851
Al 3.139330 -1.842569 2.438972 0.007329 -0.015834 -0.003977
Al 3.163817 -1.867574 7.474921 -0.000618 -0.000025 -0.001350
Al 3.150244 -1.872851 -2.739406 -0.000834 0.000210 -0.000029
Al -4.752876 0.886150 2.428094 -0.000097 -0.017490 0.002145
Al -4.761762 0.893905 7.479474 0.002613 -0.008157 -0.001372
Al -4.784912 0.896702 -2.721115 0.002539 -0.008033 0.002466
Al -6.315576 3.603921 2.418612 -0.019922 -0.003831 0.006157
Al -6.329367 3.608003 7.478037 0.000378 0.000111 0.000330
Al -6.340746 3.601399 -2.738788 0.000455 -0.000260 0.001700
Al -3.199200 -1.920924 2.439474 0.004318 0.016585 -0.000631
Al -3.161547 -1.863691 7.477950 -0.000233 0.001751 -0.000714
Ga -3.168578 -1.875740 -2.734446 -0.000676 0.000328 0.000371
Al -1.631349 0.976752 2.476520 0.025971 -0.033681 -0.023105
Al -1.614624 0.896061 7.484696 -0.004315 -0.008928 -0.003803
Ga -1.634765 0.893180 -2.719147 0.007745 -0.005016 -0.001177
Ga -3.195093 3.566988 2.429698 0.016132 0.009960 -0.001732
Al -3.192767 3.612276 7.479827 0.008802 0.002454 -0.002053
Al -3.209976 3.613896 -2.740659 0.007832 0.001675 0.003966
Ga -0.039500 -1.877912 2.436072 0.005474 0.012621 -0.004114
Al -0.027276 -1.863632 7.476716 0.008042 0.003692 -0.001987
Al -0.038602 -1.866476 -2.729076 0.011139 0.001116 -0.001003
Ga -0.015480 1.796419 4.949140 -0.007488 -0.002572 -0.002587
Ga -0.019281 1.790022 -5.257140 -0.008971 -0.005643 -0.001257
Al -0.012112 1.783125 -0.202398 -0.007759 -0.002431 0.021633
Al 3.165400 -3.674356 4.955932 -0.005941 -0.003712 -0.002844
Al 3.153457 -3.679345 -5.255766 -0.008456 -0.002753 -0.001173
Al 3.158760 -3.692750 -0.216974 -0.007244 -0.002215 0.023562
Al 1.599646 -0.967940 4.964434 -0.009347 0.005123 -0.003336
Al 1.589866 -0.969566 -5.252568 -0.009946 0.004662 -0.001670
Al 1.590996 -0.971382 -0.210957 -0.009163 0.004134 0.017234
Al 3.137152 1.795475 4.955093 -0.000100 -0.001658 0.000712
Al 3.123680 1.791795 -5.252425 0.000331 -0.000309 0.001163
Al 3.113856 1.755061 -0.104376 0.002921 0.009368 -0.017103
Al 6.303629 -3.673322 4.965253 -0.001311 -0.000749 -0.001222
Al 6.289375 -3.680517 -5.256559 0.000638 0.001223 0.000480
Ga 6.289066 -3.697712 -0.161622 -0.005101 -0.001319 0.012699
Al 4.731586 -0.962620 4.962059 -0.001673 0.006861 -0.003139
Al 4.720168 -0.962632 -5.253303 -0.000582 0.007947 -0.001601
Al 4.721442 -0.973222 -0.204317 -0.002364 0.008208 0.020996
Al -3.186141 1.793894 4.972312 -0.004115 0.000657 0.000575
Al -3.205886 1.797131 -5.250332 -0.002222 0.000298 -0.001124
Ga -3.202225 1.788916 -0.139869 0.001126 -0.002863 0.003447
Al -0.026300 -3.681039 4.969089 0.001673 0.000821 0.000352
Al -0.038832 -3.675032 -5.253674 0.000858 0.001277 -0.000271
Ga -0.035242 -3.684263 -0.163284 0.000856 0.000721 0.001449
Al -1.595251 -0.949526 4.961433 -0.002532 0.003855 -0.006131
Al -1.604861 -0.943504 -5.267154 -0.000034 -0.000479 0.000397
Al -1.601032 -0.962089 -0.198433 -0.000096 0.008971 0.025301
N 1.576163 0.884051 4.353075 0.012498 -0.014855 -0.004128
N 1.564072 0.879839 -5.853958 0.012209 -0.015141 -0.003977
N 1.554375 0.881792 -0.788488 0.001139 -0.008628 0.003679
N 0.005632 3.631814 4.352981 -0.003069 0.010427 0.000325
N -0.014354 3.619883 -5.857380 -0.001025 0.013182 -0.004617
N -0.021633 3.588066 -0.810883 -0.011993 -0.006986 -0.005409
N 3.157954 -1.864728 4.365253 -0.000885 0.001191 -0.000327
N 3.152964 -1.870470 -5.848250 -0.000821 0.000812 0.000078
N 3.154922 -1.878745 -0.811865 -0.001216 0.000869 0.001843
N -4.757914 0.893324 4.363237 -0.000157 -0.006409 -0.001294
N -4.773630 0.891314 -5.845767 0.000547 -0.007977 0.001303
N -4.787424 0.879713 -0.777783 -0.010660 -0.015353 -0.003994
N -6.324518 3.607310 4.358750 0.000863 0.000316 -0.005064
N -6.338688 3.605649 -5.847807 0.000096 -0.000573 0.000570
N -6.334972 3.594290 -0.826579 -0.002727 -0.020927 0.007172
N -3.164518 -1.869387 4.367925 0.000729 0.000020 0.000186
N -3.171785 -1.865325 -5.846235 -0.000806 -0.000071 -0.000331
N -3.169571 -1.865934 -0.786037 0.000036 0.012987 0.013706
N -1.662275 0.887619 4.313781 0.004081 -0.008238 0.022860
N -1.673166 0.871579 -5.865756 0.004860 -0.004076 0.005490
N -1.629347 0.880773 -0.774659 0.021892 -0.011507 0.010541
N -3.191919 3.602801 4.379886 0.006088 0.003683 0.014127
N -3.203536 3.611798 -5.845575 0.008079 0.002586 0.002330
N -3.192135 3.604302 -0.794679 0.019698 0.010069 -0.010574
N -0.029800 -1.868936 4.381931 0.008411 0.003563 0.016026
N -0.037934 -1.861251 -5.848166 0.007850 0.003758 0.000666
N -0.036890 -1.858763 -0.798371 0.008283 0.017949 -0.002964
N 0.010638 1.817268 1.850224 -0.008239 -0.010412 -0.018994
N -0.065832 1.787617 6.900476 0.016039 -0.001002 0.012319
N 0.006778 1.803793 -3.314873 0.001355 -0.002982 0.010173
N 3.180265 -3.700483 1.836847 -0.005613 0.011134 -0.021140
N 3.165607 -3.678169 6.879309 -0.009415 -0.002193 0.001713
N 3.152664 -3.685356 -3.335904 -0.007785 -0.003298 0.002976
N 1.607209 -0.952440 1.846094 -0.003240 0.008655 -0.025989
N 1.599971 -0.966278 6.882662 -0.010441 0.006296 0.002874
N 1.586778 -0.967660 -3.327995 -0.009236 0.006186 0.004418
N 3.147202 1.792256 1.788976 -0.000712 0.000978 0.004622
N 3.132955 1.796543 6.879682 -0.002066 0.000015 -0.001186
N 3.120240 1.794187 -3.326309 -0.000332 -0.001784 -0.002647
N 6.118546 -3.758648 1.904175 0.132812 0.063440 -0.047147
N 6.299601 -3.676360 6.883406 0.000965 -0.001953 0.000246
N 6.286083 -3.701758 -3.338614 -0.000701 -0.013327 -0.005647
N 4.722394 -0.971462 1.852775 -0.003222 0.008723 -0.020109
N 4.733534 -0.960965 6.883905 -0.001463 0.008597 0.001366
N 4.710138 -0.957259 -3.334087 -0.012795 0.015883 -0.001718
N -3.172625 1.719325 1.830873 -0.014484 0.008537 -0.004998
N -3.187741 1.798352 6.891331 -0.000222 -0.001435 -0.002404
N -3.219243 1.804105 -3.327804 -0.009866 0.004850 -0.005996
N -0.046610 -3.713489 1.800528 -0.010985 -0.001323 -0.001328
N -0.027998 -3.679044 6.886940 0.000767 0.000376 -0.000010
N -0.041306 -3.677305 -3.332053 0.001098 0.000500 0.000184
N -1.623560 -0.948240 1.851940 -0.013163 0.006501 -0.023109
N -1.591461 -0.958604 6.884698 -0.000375 0.009169 -0.000949
N -1.578865 -0.976217 -3.347754 0.007821 0.007223 -0.006333
