108
Energy=-1260622.878791 Lattice="9.492686 0.000000 0.000000 -4.749126 8.217907 0.000000 -0.002601 0.006918 15.309162" Stress="-0.000004 -0.000003 0.000001 -0.000002 -0.000006 0.000002 0.000001 0.000002 0.000000" Properties=species:S:1:pos:R:3:forces:R:3
Al 1.561173 0.874881 2.418597 -0.000673 -0.000768 0.000065
Al 1.558373 0.885028 7.513805 -0.000184 -0.000366 0.000307
Al 1.551411 0.866920 -2.732309 0.000378 0.000426 0.000690
Al -0.012662 3.602370 2.425687 -0.004998 0.001152 0.000676
Al -0.024620 3.606480 7.495624 -0.000022 0.000676 0.000807
Al -0.015299 3.597501 -2.718713 0.000168 0.000670 0.000078
Al 3.143094 -1.858978 2.379565 -0.001966 -0.001445 0.003629
Al 3.143586 -1.860020 7.530302 -0.002244 -0.000906 0.000924
Ga 3.137925 -1.854088 -2.717632 0.000020 0.000046 0.000860
Al -4.769895 0.877923 2.420816 -0.003313 0.000586 -0.000595
Al -4.787141 0.881662 7.500603 -0.000090 0.001075 0.000694
Al -4.782008 0.865862 -2.705690 0.000003 0.000458 0.000396
Ga -6.364069 3.597158 2.438453 0.000818 0.000041 -0.000381
Al -6.358862 3.605955 7.502943 0.000322 0.000326 0.000186
Ga -6.362289 3.602905 -2.726542 0.000404 0.000130 -0.000068
Ga -3.199889 -1.870119 2.410405 0.000781 0.000351 0.000918
Ga -3.188726 -1.864561 7.508137 0.000326 -0.000477 0.000550
Ga -3.194247 -1.872710 -2.700809 -0.000195 0.000081 0.000292
Ga -1.604520 0.891694 2.408606 0.000474 0.000296 0.000516
Al -1.593556 0.884901 7.484558 0.000278 0.000133 0.000525
Ga -1.592901 0.885617 -2.679883 0.000599 0.000050 0.000846
Al -3.179996 3.604696 2.442870 0.000249 0.000430 -0.000583
Ga -3.187739 3.628751 7.497775 0.000184 0.000122 0.000019
Ga -3.187854 3.616864 -2.719308 -0.000312 -0.000083 -0.000322
Ga -0.006352 -1.857689 2.426599 0.000124 0.000031 0.000315
Al -0.017492 -1.856567 7.500532 -0.000493 -0.000969 0.000711
Al -0.006008 -1.854480 -2.706120 -0.000076 -0.000756 0.000152
Al -0.020728 1.797644 4.969950 0.000079 0.000401 0.000114
Al -0.010102 1.796319 -5.275864 0.000373 0.000486 0.000270
Al -0.013226 1.783201 -0.145626 0.000150 0.000387 -0.000742
Al 3.152434 -3.699199 4.940990 -0.000204 0.001080 0.001676
Al 3.163729 -3.687954 -5.266083 -0.000102 0.000344 -0.001065
Ga 3.161536 -3.705976 -0.128173 0.000173 0.000596 -0.000449
Ga 1.565556 -0.947220 4.980811 -0.000560 0.000484 0.000790
Al 1.563819 -0.953230 -5.281694 -0.000059 -0.000246 0.000579
Al 1.554835 -0.939138 -0.152394 -0.000480 0.000340 0.000206
Al 3.136935 1.797503 4.974095 -0.000295 -0.000175 -0.000018
Al 3.131544 1.777124 -5.273834 0.000251 0.000401 0.000631
Ga 3.131741 1.762303 -0.146748 -0.000149 -0.000005 -0.000998
Al 6.305858 -3.705599 4.980387 -0.000249 -0.000545 0.000564
Al 6.298653 -3.713886 -5.277133 -0.000095 0.000691 -0.000802
Al 6.291416 -3.695015 -0.143617 0.000074 -0.000171 -0.001279
Ga 4.720384 -0.945711 4.962012 -0.000523 -0.000122 0.000460
Al 4.709058 -0.950399 -5.270267 -0.000242 -0.000485 0.000617
Al 4.731261 -0.943699 -0.135251 -0.000198 -0.000296 -0.000843
Al -3.190699 1.794198 4.967858 -0.000033 0.000330 0.000247
Ga -3.197037 1.782218 -5.274537 0.000203 -0.000108 0.000788
Al -3.193634 1.773766 -0.132007 0.000065 -0.000047 -0.000949
Al -0.027485 -3.694865 4.971974 0.000061 -0.000884 0.000673
Al -0.026823 -3.683417 -5.276479 -0.000523 0.000428 0.001532
Ga -0.022086 -3.681637 -0.141834 0.000225 0.000254 0.001056
Al -1.599867 -0.943431 4.986515 -0.000311 -0.000218 0.000214
Ga -1.587110 -0.956366 -5.262780 -0.000291 -0.000436 0.000876
Al -1.600528 -0.949021 -0.157551 -0.000247 -0.000264 -0.001538
N 1.554768 0.922587 4.340869 0.000608 -0.000145 -0.000442
N 1.555937 0.875147 -5.874116 0.000434 0.000171 -0.000543
N 1.513823 0.846929 -0.803978 0.000074 0.000171 -0.000698
N -0.016410 3.609345 4.349338 0.000035 0.000166 0.000024
N -0.025525 3.608126 -5.894027 0.000052 -0.000350 0.000080
N 0.018607 3.582453 -0.794018 -0.000438 -0.000029 -0.000780
N 3.138249 -1.903088 4.301395 0.000719 -0.000866 -0.002054
N 3.143927 -1.871127 -5.858490 0.000028 0.000129 -0.000626
N 3.143825 -1.823396 -0.725589 0.000259 0.000182 -0.000397
N -4.771910 0.927590 4.337458 0.000249 -0.000024 -0.000468
N -4.816092 0.850758 -5.900066 0.000187 0.000337 -0.000782
N -4.731265 0.846887 -0.784476 0.000258 0.000079 0.000242
N -6.357227 3.614435 4.415071 0.000107 0.000046 -0.000319
N -6.349446 3.605852 -5.873538 -0.000437 -0.000150 -0.000375
N -6.393741 3.629720 -0.751206 -0.000335 0.000356 0.000268
N -3.142616 -1.890301 4.397852 -0.000164 0.000364 -0.001274
N -3.224698 -1.890713 -5.829558 0.000304 -0.000281 -0.000406
N -3.191023 -1.871341 -0.707171 0.000031 0.000402 -0.000309
N -1.605754 0.880257 4.403144 0.000223 -0.000291 -0.000967
N -1.561215 0.899943 -5.912179 -0.000294 -0.000106 -0.000756
N -1.604542 0.883341 -0.691433 0.000225 -0.000124 -0.000501
N -3.188968 3.613630 4.369857 0.000079 -0.000259 0.000204
N -3.184931 3.664371 -5.836042 0.000516 -0.000612 -0.000862
N -3.184859 3.567426 -0.749777 -0.000273 -0.000636 0.000118
N -0.060719 -1.881484 4.399388 0.000172 0.000378 -0.001311
N 0.019820 -1.889934 -5.901273 -0.000140 -0.000028 -0.000316
N -0.014373 -1.818700 -0.784340 -0.000079 -0.000415 0.000094
N 0.024616 1.814255 1.778240 0.000173 -0.000984 0.000728
N -0.016155 1.791738 6.889767 -0.000208 0.000204 -0.000508
N 0.015351 1.807232 -3.352270 -0.000463 0.000435 -0.000321
N 3.144369 -3.703520 1.857852 0.002116 -0.000010 0.001544
N 3.188763 -3.654792 6.873755 0.000092 -0.001192 -0.002795
N 3.189855 -3.713671 -3.357581 0.001271 -0.000407 0.002018
N 1.594054 -0.921392 1.772900 0.000592 0.000157 0.000391
N 1.566318 -0.948312 6.961538 0.001123 0.001351 -0.000691
N 1.519865 -0.931165 -3.356867 -0.000083 -0.000072 -0.000743
N 3.131670 1.736791 1.828925 0.003318 -0.000687 0.000917
N 3.134772 1.788149 6.897935 0.000035 -0.000146 -0.000703
N 3.140079 1.732260 -3.346524 0.000003 -0.000066 0.000160
N 6.261340 -3.721765 1.767997 0.001390 0.000792 0.000144
N 6.302681 -3.739832 6.890229 0.000147 0.000076 -0.000159
N 6.263808 -3.718093 -3.370378 -0.000442 -0.000105 0.000759
N 4.685583 -0.921772 1.785927 0.001288 0.000881 0.000153
N 4.673481 -0.924137 6.932427 0.001533 0.000060 -0.001075
N 4.725858 -0.903924 -3.358748 -0.000210 -0.000890 -0.000367
N -3.235785 1.812819 1.789721 0.000573 -0.000089 0.000777
N -3.194073 1.746497 6.885032 -0.000220 -0.000134 -0.000476
N -3.228574 1.755221 -3.306983 0.000166 0.000096 -0.000162
N 0.017610 -3.717342 1.836718 -0.000171 -0.000018 -0.001049
N -0.067677 -3.664248 6.883604 0.000090 -0.000506 0.000036
N -0.026598 -3.638780 -3.357094 -0.000084 -0.000080 -0.000659
N -1.600236 -0.952898 1.746906 -0.000724 -0.000239 0.000875
N -1.563843 -0.923395 6.894762 -0.000612 -0.000137 -0.000343
N -1.561385 -0.969678 -3.289988 -0.000746 -0.000287 -0.000108
