108
Energy=-1306398.207125 Lattice="9.492111 0.000000 0.000000 -4.754110 8.216069 0.000000 -0.002370 0.002692 15.313912" Stress="-0.000019 -0.000006 0.000001 -0.000006 -0.000021 0.000002 0.000001 0.000002 -0.000013" Properties=species:S:1:pos:R:3:forces:R:3
Al 1.560440 0.870834 2.428075 0.001092 0.003246 0.001095
Al 1.564563 0.883795 7.520516 0.002119 -0.006220 0.000957
Al 1.547274 0.870257 -2.736919 0.000434 0.000687 -0.000969
Al -0.015824 3.625936 2.405812 -0.003725 -0.001461 0.003107
Al -0.023644 3.613983 7.472460 0.001842 0.003151 0.009067
Ga -0.024598 3.597597 -2.689672 0.000324 0.000087 -0.000383
Al 3.146212 -1.877027 2.420511 0.005374 0.000768 0.000982
Al 3.164654 -1.859772 7.499629 -0.002175 0.003094 0.001507
Ga 3.139245 -1.862734 -2.714064 0.000001 0.000476 0.000401
Al -4.760052 0.882171 2.421468 -0.001807 -0.001863 0.000145
Al -4.775669 0.862633 7.478187 -0.006673 -0.003147 0.006016
Ga -4.774939 0.878571 -2.704388 0.000045 0.000456 0.000609
Al -6.357272 3.616943 2.432942 0.002509 -0.008121 0.004156
Ga -6.356068 3.611990 7.494166 -0.000808 0.000031 0.000822
Al -6.341730 3.618893 -2.716458 -0.000035 -0.000576 0.000463
Al -3.173858 -1.868571 2.428743 -0.004829 -0.000565 0.001662
Al -3.198742 -1.862735 7.485302 -0.003185 -0.001501 0.002056
Al -3.168357 -1.856628 -2.703285 -0.000449 -0.000193 0.000843
Al -1.624695 0.871757 2.396931 -0.000790 0.001818 0.001487
Ga -1.614232 0.880229 7.506382 0.001090 -0.000647 0.002034
Al -1.603910 0.869871 -2.697067 0.000111 0.000068 0.000602
Al -3.175942 3.604520 2.405917 -0.004624 0.000999 -0.000085
Ga -3.194504 3.627946 7.476119 -0.000310 0.000509 0.002335
Al -3.204595 3.619156 -2.681254 -0.001155 -0.000430 0.002077
Ga -0.038250 -1.870174 2.398903 0.000685 -0.002138 0.000427
Al -0.016556 -1.865798 7.517532 0.000931 0.000026 0.001845
Al -0.025898 -1.869991 -2.691159 0.000378 0.000363 -0.004319
Ga -0.021679 1.802206 4.943843 0.000459 -0.000206 -0.001852
Al -0.009499 1.773289 -5.255031 0.001637 0.002358 0.000144
Ga -0.038839 1.768748 -0.123741 -0.000305 0.001212 0.000568
Al 3.155089 -3.689571 4.944958 0.000326 0.000541 0.000022
Ga 3.142763 -3.689289 -5.268375 0.001868 0.000830 0.000064
Al 3.126624 -3.701720 -0.122126 -0.000947 0.000268 -0.001888
Ga 1.578947 -0.965073 4.978206 0.000482 0.000979 0.001315
Al 1.566270 -0.947143 -5.276364 0.000046 0.000238 -0.000307
Ga 1.553769 -0.963112 -0.137451 0.000523 -0.000068 -0.003542
Al 3.149743 1.788494 4.950854 0.001344 0.001344 -0.000641
Al 3.135982 1.775617 -5.264883 -0.002633 -0.000390 0.000579
Ga 3.138881 1.799104 -0.119652 0.000311 0.000324 -0.004932
Al 6.306733 -3.686067 4.951961 0.001348 -0.000757 -0.000968
Ga 6.315048 -3.691996 -5.257465 -0.001373 -0.000290 -0.000373
Ga 6.324882 -3.679397 -0.120223 0.001171 -0.000004 -0.004639
Al 4.727223 -0.949788 4.949044 -0.000427 -0.000095 -0.001073
Al 4.720200 -0.944546 -5.278915 -0.000782 -0.001394 -0.000410
Ga 4.744474 -0.951734 -0.112269 -0.000622 -0.001092 0.000220
Al -3.207646 1.795089 4.945398 -0.001470 -0.000266 -0.005082
Ga -3.210711 1.793518 -5.247277 -0.000056 -0.000644 0.001542
Al -3.183572 1.801034 -0.137183 0.000096 0.001167 -0.001609
Al -0.012884 -3.698851 4.957428 -0.001962 -0.002903 -0.004728
Al -0.015245 -3.683425 -5.238672 -0.000775 0.000803 0.001452
Al -0.020853 -3.697201 -0.144964 0.002641 -0.000581 -0.001962
Ga -1.619755 -0.956596 4.973104 -0.000247 -0.000678 0.000076
Ga -1.593005 -0.955959 -5.250397 -0.000611 -0.001723 0.001111
Al -1.608373 -0.945807 -0.157978 -0.000862 -0.001155 -0.002826
N 1.602744 0.888153 4.328541 -0.001271 -0.000056 -0.000965
N 1.559581 0.873923 -5.869833 -0.000024 0.000736 -0.000619
N 1.556582 0.871738 -0.826350 0.000091 0.000595 0.002233
N -0.021183 3.664941 4.319733 -0.001210 -0.000141 0.000604
N -0.022406 3.559164 -5.901414 -0.000023 0.001009 -0.004846
N -0.066100 3.631549 -0.717554 0.001345 -0.000360 0.001174
N 3.186829 -1.891906 4.335942 -0.000843 0.000153 -0.000707
N 3.149917 -1.819544 -5.892898 -0.000028 -0.000714 -0.000402
N 3.152071 -1.911794 -0.738271 -0.000064 0.000569 0.000214
N -4.771941 0.873171 4.346044 0.000633 0.001331 -0.001403
N -4.822622 0.849390 -5.889376 0.004117 0.001557 -0.005329
N -4.735779 0.897849 -0.732581 0.000098 0.000132 0.000115
N -6.350651 3.618698 4.364514 -0.000305 -0.001738 -0.001729
N -6.304902 3.585464 -5.837991 -0.000046 0.001797 -0.001607
N -6.309936 3.636514 -0.799412 -0.002597 -0.001500 -0.000841
N -3.221592 -1.887588 4.341330 0.000509 0.000738 -0.001580
N -3.225348 -1.839534 -5.916898 0.001268 -0.000645 -0.000330
N -3.147869 -1.840269 -0.795804 -0.000327 -0.000655 0.001491
N -1.656715 0.895439 4.311016 0.001005 -0.000466 0.001159
N -1.573936 0.904063 -5.842880 -0.001296 -0.000333 -0.002126
N -1.652759 0.856217 -0.773030 0.001201 -0.000347 0.001024
N -3.184185 3.618741 4.342233 -0.000016 -0.000731 -0.000846
N -3.237890 3.641373 -5.871744 -0.000152 -0.001625 -0.001962
N -3.192129 3.618949 -0.748315 -0.000901 -0.000258 0.000381
N -0.024169 -1.910917 4.364408 0.000107 0.002357 -0.002719
N 0.022836 -1.892169 -5.879267 -0.001377 -0.000909 -0.000442
N -0.061405 -1.891975 -0.777575 -0.000191 0.000638 0.004795
N -0.032242 1.785136 1.876356 0.003044 -0.002249 -0.004732
N 0.019395 1.809007 6.919779 -0.002005 -0.001309 -0.003096
N -0.030922 1.736515 -3.339026 0.000418 0.001184 0.001193
N 3.146349 -3.694673 1.794607 -0.000534 0.001147 0.002965
N 3.191352 -3.663213 6.872780 -0.000956 -0.001446 -0.003385
N 3.101099 -3.722509 -3.303975 0.001230 0.001017 0.000139
N 1.598342 -0.932621 1.833054 -0.000499 -0.000344 0.001033
N 1.558655 -0.960363 6.961427 0.002353 0.004394 -0.000857
N 1.517639 -0.931766 -3.350252 -0.000002 -0.001773 0.001149
N 3.130878 1.784389 1.842368 0.001546 0.001281 0.006907
N 3.137812 1.740622 6.868444 -0.000282 -0.000302 0.000094
N 3.095318 1.809818 -3.347814 0.000590 -0.000030 0.001229
N 6.333778 -3.700596 1.860812 -0.005044 0.004967 -0.001299
N 6.270403 -3.667689 6.867917 0.000115 -0.000035 -0.000170
N 6.347906 -3.663000 -3.282049 -0.000231 -0.000735 0.000529
N 4.742651 -0.959862 1.869011 -0.004161 0.001447 0.000126
N 4.728583 -0.946803 6.874348 -0.000587 -0.000694 -0.000975
N 4.772082 -0.974159 -3.366918 -0.000798 -0.000277 0.000932
N -3.185663 1.793219 1.787407 -0.001370 -0.000469 0.002097
N -3.248440 1.761793 6.846371 0.006150 0.003009 0.000852
N -3.151086 1.816793 -3.273956 -0.000283 -0.000190 0.000284
N -0.043253 -3.751364 1.775170 0.009218 0.002074 0.000431
N -0.026221 -3.635550 6.843093 0.000918 -0.001086 0.002024
N -0.013585 -3.686494 -3.313113 0.000249 0.000122 0.000469
N -1.658432 -0.933814 1.764061 0.003910 0.001735 0.000657
N -1.607305 -0.998319 6.945160 0.001923 0.001526 -0.002073
N -1.597297 -0.949728 -3.264786 -0.000164 -0.000835 -0.000465
