108
Energy=-1443724.751622 Lattice="9.523596 0.000000 0.000000 -4.771710 8.245582 0.000000 0.004014 -0.002137 15.357875" Stress="0.000007 -0.000003 0.000001 -0.000003 0.000008 -0.000001 0.000001 -0.000001 0.000003" Properties=species:S:1:pos:R:3:forces:R:3
Al 1.573595 0.891204 2.425036 0.001474 -0.006130 0.000863
Al 1.568577 0.880414 7.532291 -0.000081 0.000447 0.001016
Al 1.558602 0.891428 -2.732027 0.000409 -0.000586 0.000559
Al -0.037286 3.625313 2.409758 -0.000227 0.001520 0.000026
Al -0.012882 3.619984 7.572711 -0.001580 0.000822 -0.000595
Al -0.023794 3.622102 -2.753859 0.000080 0.000908 0.001120
Al 3.152766 -1.883075 2.417183 -0.003256 0.002289 -0.004099
Al 3.162530 -1.873137 7.543886 0.000276 -0.000359 0.000890
Ga 3.159947 -1.890675 -2.720426 -0.000007 -0.000495 0.001038
Al -4.799226 0.893340 2.416359 -0.000366 -0.000527 -0.001135
Ga -4.793285 0.876657 7.548673 0.001787 0.000497 0.001419
Ga -4.796841 0.889591 -2.732680 -0.000792 -0.001418 0.001411
Ga -6.377260 3.605588 2.412432 0.000827 0.000759 -0.000743
Al -6.388773 3.618106 7.561059 0.000457 -0.000434 0.001100
Al -6.383669 3.625953 -2.740356 0.000223 0.000445 -0.002517
Ga -3.189004 -1.874316 2.435580 -0.000466 -0.000485 -0.000905
Al -3.191646 -1.882540 7.548837 -0.001277 0.000829 -0.000446
Al -3.191044 -1.885843 -2.742521 -0.000372 -0.000904 0.000086
Ga -1.619841 0.888142 2.420242 0.000476 -0.000395 -0.000156
Al -1.609836 0.882800 7.535077 -0.000199 0.000294 0.000564
Ga -1.612580 0.894865 -2.713778 0.002946 -0.001812 0.000546
Al -3.193547 3.630335 2.404163 0.000706 -0.000491 0.000196
Ga -3.194262 3.624000 7.559531 0.000248 -0.001466 -0.000299
Al -3.200369 3.624946 -2.745895 0.000059 0.005594 0.006774
Al 0.000224 -1.858021 2.445538 0.001247 -0.000497 -0.001262
Ga -0.021175 -1.861962 7.528274 0.001038 -0.000205 0.000795
Al -0.023170 -1.879827 -2.732223 0.001119 -0.001261 -0.001342
Ga -0.017004 1.781552 4.989742 -0.000981 0.000586 0.001198
Al -0.021296 1.807143 -5.285854 -0.000148 -0.000875 0.000750
Ga -0.017289 1.801893 -0.145480 -0.000591 0.001076 -0.003397
Ga 3.153673 -3.705095 4.975057 -0.000863 -0.000887 0.002217
Al 3.164393 -3.711149 -5.272699 0.000039 -0.000024 -0.000401
Al 3.154624 -3.725651 -0.157146 -0.000906 -0.000538 0.001773
Al 1.575913 -0.946539 4.966634 -0.001201 0.001137 0.000698
Ga 1.584349 -0.950840 -5.269962 -0.001069 0.001253 0.000694
Ga 1.568433 -0.957670 -0.145306 -0.000529 0.001387 0.001790
Al 3.151508 1.780078 4.991701 -0.000313 0.002152 -0.000127
Al 3.140849 1.803775 -5.271995 -0.000295 -0.000015 0.000123
Al 3.146579 1.783425 -0.173947 -0.000231 0.000128 0.004141
Ga 6.335310 -3.711030 5.012298 -0.000514 -0.000656 0.000859
Al 6.327664 -3.712266 -5.274054 0.000521 0.000529 0.000292
Ga 6.320676 -3.720222 -0.194969 -0.000502 0.000274 0.003560
Ga 4.736153 -0.939974 4.980008 -0.000480 -0.001194 0.000577
Al 4.742921 -0.963559 -5.282687 0.000273 0.001276 -0.000184
Ga 4.744726 -0.953235 -0.138380 -0.000766 0.000500 0.000698
Al -3.220457 1.771115 4.963010 0.004959 0.009070 0.004506
Al -3.200420 1.816529 -5.246471 -0.000731 -0.004768 -0.007808
Al -3.217085 1.809613 -0.152261 0.000073 0.000927 0.001284
Ga -0.018515 -3.706426 4.969479 0.001034 -0.000169 0.000117
Al -0.025908 -3.720081 -5.249045 -0.000110 -0.000078 -0.000258
Ga -0.011623 -3.718498 -0.172172 0.001397 0.000304 0.002711
Al -1.601244 -0.943679 4.998643 -0.000203 -0.000647 0.001033
Ga -1.620682 -0.953247 -5.271112 -0.000494 0.001635 0.000073
Ga -1.606442 -0.961058 -0.159855 -0.000477 0.000047 -0.001376
N 1.606620 0.862390 4.351647 0.000825 -0.001244 -0.000353
N 1.563275 0.922830 -5.906667 0.000370 0.000129 -0.000926
N 1.593872 0.895618 -0.814688 0.001507 0.000245 -0.000139
N -0.024999 3.624794 4.320401 0.000450 -0.000341 -0.001561
N -0.025278 3.627327 -5.868965 -0.000527 -0.000144 -0.000110
N -0.075573 3.641117 -0.834173 -0.000031 0.000052 0.000064
N 3.116481 -1.854267 4.325127 0.000281 0.000473 0.000391
N 3.191829 -1.897451 -5.893217 0.000594 -0.000215 -0.000961
N 3.156911 -1.924700 -0.744479 0.000666 -0.000857 0.000166
N -4.788433 0.928759 4.348702 -0.003976 -0.001199 -0.002239
N -4.796773 0.882286 -5.827919 0.003395 0.000704 0.003065
N -4.791247 0.917134 -0.747770 0.001046 0.000814 -0.000664
N -6.383589 3.576225 4.380048 0.000406 -0.002335 0.000255
N -6.375318 3.624912 -5.867558 -0.000430 0.000268 -0.000987
N -6.376172 3.569922 -0.829061 -0.000020 0.000223 0.003584
N -3.151397 -1.853548 4.401470 0.000579 0.000742 0.000612
N -3.231542 -1.896719 -5.896809 -0.000615 -0.000693 -0.000316
N -3.199108 -1.874017 -0.834162 0.000047 0.000270 0.000436
N -1.656298 0.856153 4.401331 0.000741 -0.000508 -0.001133
N -1.614721 0.927232 -5.899708 -0.001922 0.001663 0.001807
N -1.657413 0.906860 -0.740855 -0.000323 0.000093 0.000149
N -3.199370 3.584993 4.321834 -0.000121 -0.004776 -0.000046
N -3.207482 3.633716 -5.822415 0.000506 -0.000452 0.000895
N -3.163265 3.602785 -0.798996 0.000772 -0.000623 -0.002399
N -0.021380 -1.817319 4.371197 0.000660 0.000568 -0.000264
N -0.018776 -1.917579 -5.861397 0.000188 -0.000644 0.000018
N -0.018184 -1.874981 -0.832731 0.000162 -0.000779 0.000869
N 0.021520 1.816470 1.827231 -0.001104 0.000563 0.003771
N -0.016568 1.793626 6.978901 -0.001171 0.000451 -0.000089
N 0.015097 1.813644 -3.357236 -0.000592 -0.000590 -0.002525
N 3.161673 -3.712639 1.791478 -0.000651 0.000909 -0.002122
N 3.200501 -3.685432 6.960908 0.002044 -0.000214 0.000031
N 3.159338 -3.754687 -3.362264 -0.000564 0.000083 -0.000637
N 1.566011 -0.939650 1.848614 0.000968 -0.002593 0.001078
N 1.615988 -0.932106 6.902539 0.000649 0.000079 -0.001094
N 1.538728 -0.933256 -3.298178 -0.001714 0.001116 0.000540
N 3.141100 1.741272 1.769541 0.001916 0.001763 -0.004438
N 3.113307 1.816633 6.915252 -0.000673 0.000018 -0.001827
N 3.104110 1.817287 -3.357216 -0.000398 -0.000084 -0.001453
N 6.291459 -3.726883 1.799300 0.000110 -0.000593 -0.003347
N 6.333373 -3.712253 6.997039 -0.000369 0.000271 -0.000163
N 6.331099 -3.705474 -3.343585 0.000317 0.000007 -0.000614
N 4.712179 -0.930375 1.847827 -0.001167 0.000044 0.000719
N 4.742057 -0.999985 6.957938 0.000464 -0.000738 -0.000010
N 4.781124 -0.978583 -3.368314 0.000074 0.000422 -0.000913
N -3.244918 1.820111 1.779126 -0.000951 0.000380 -0.001081
N -3.165373 1.774852 6.891849 -0.000262 -0.000890 -0.003034
N -3.201425 1.845608 -3.355135 -0.000250 -0.003001 -0.001620
N 0.023159 -3.672011 1.836399 -0.000848 0.000288 -0.002416
N -0.056284 -3.731849 6.942359 -0.001010 -0.000131 -0.000743
N -0.019956 -3.709274 -3.326036 -0.000089 0.000245 0.000015
N -1.559109 -0.981357 1.809279 -0.000340 0.000290 0.001458
N -1.647110 -0.931459 6.921183 -0.000675 0.000759 -0.000405
N -1.608016 -0.992298 -3.300262 -0.000583 0.000344 0.000260
