108
Energy=-1031745.446562 Lattice="9.466614 0.000000 0.000000 -4.734383 8.196436 0.000000 0.010073 -0.000533 15.240789" Stress="0.000000 -0.000000 0.000003 -0.000000 -0.000000 0.000000 0.000003 0.000000 -0.000000" Properties=species:S:1:pos:R:3:forces:R:3
Al 1.554749 0.886943 2.397784 -0.000044 0.000066 0.000075
Al 1.555629 0.870903 7.455099 0.000012 0.000019 0.000032
Al 1.554608 0.871479 -2.675251 0.000038 -0.000000 0.000000
Al -0.031154 3.597419 2.398421 0.000064 0.000029 -0.000011
Al -0.014207 3.601046 7.453252 0.000012 -0.000020 -0.000038
Al -0.038637 3.608328 -2.682508 -0.000108 -0.000019 0.000016
Al 3.153198 -1.866480 2.396635 0.000028 -0.000006 0.000010
Al 3.144516 -1.852099 7.468844 -0.000017 0.000013 0.000035
Al 3.146188 -1.864567 -2.697519 0.000036 -0.000008 0.000059
Al -4.755111 0.865299 2.361565 0.000005 -0.000022 0.000103
Al -4.752693 0.860562 7.482029 -0.000062 0.000027 -0.000025
Al -4.749173 0.860884 -2.674310 0.000089 -0.000046 0.000036
Al -6.337790 3.591295 2.400862 -0.000087 0.000079 0.000013
Al -6.341115 3.601627 7.473229 -0.000011 -0.000002 -0.000032
Ga -6.345851 3.596475 -2.686636 0.000028 -0.000001 0.000015
Al -3.189387 -1.851386 2.406629 0.000036 -0.000038 0.000011
Ga -3.186252 -1.861211 7.469255 0.000048 0.000007 0.000031
Al -3.194995 -1.848593 -2.702136 -0.000107 0.000098 0.000046
Al -1.597404 0.879277 2.371924 0.000016 0.000020 0.000058
Al -1.591722 0.876649 7.474558 -0.000002 -0.000005 0.000065
Al -1.612230 0.876932 -2.672626 0.000011 0.000070 -0.000040
Al -3.162084 3.597526 2.397287 0.000086 -0.000040 0.000116
Ga -3.165350 3.599549 7.481708 0.000017 -0.000002 0.000018
Al -3.159564 3.593188 -2.702764 0.000096 -0.000086 -0.000029
Ga -0.027907 -1.855059 2.417072 0.000020 -0.000016 0.000028
Ga -0.011432 -1.850253 7.471349 0.000028 -0.000006 -0.000029
Ga -0.024247 -1.847326 -2.699899 0.000025 0.000021 -0.000002
Al -0.024636 1.781409 4.928417 -0.000018 0.000042 -0.000017
Ga -0.036569 1.782953 -5.225019 -0.000012 0.000008 -0.000006
Al -0.031059 1.784000 -0.152687 0.000005 0.000123 -0.000028
Al 3.146385 -3.671679 4.922579 -0.000048 -0.000053 -0.000097
Al 3.134380 -3.670776 -5.226301 -0.000030 -0.000045 0.000006
Al 3.137160 -3.689236 -0.148219 0.000128 -0.000013 0.000026
Al 1.568711 -0.953327 4.923498 -0.000039 -0.000065 0.000041
Al 1.563398 -0.958752 -5.225845 -0.000047 -0.000001 -0.000017
Ga 1.573444 -0.939628 -0.137988 0.000014 0.000021 -0.000013
Ga 3.132275 1.781296 4.938010 0.000056 0.000016 -0.000000
Ga 3.137051 1.774060 -5.240649 -0.000006 0.000022 0.000006
Al 3.133968 1.767306 -0.133495 0.000000 -0.000038 -0.000015
Al 6.286684 -3.680375 4.911060 0.000034 -0.000040 -0.000119
Al 6.276801 -3.670615 -5.227426 -0.000104 -0.000063 -0.000021
Ga 6.270299 -3.671675 -0.127183 -0.000030 0.000002 0.000044
Al 4.708714 -0.961358 4.920669 -0.000003 0.000085 -0.000213
Al 4.704958 -0.954730 -5.216870 0.000032 -0.000026 0.000030
Al 4.716387 -0.947981 -0.153532 -0.000057 -0.000027 -0.000020
Ga -3.164953 1.773830 4.915777 -0.000025 0.000015 -0.000018
Al -3.180923 1.771391 -5.214956 0.000060 0.000072 0.000031
Al -3.173049 1.778794 -0.149791 -0.000003 -0.000073 0.000000
Al -0.020666 -3.678587 4.924694 -0.000028 -0.000017 -0.000018
Al -0.022931 -3.679652 -5.224720 -0.000071 -0.000083 -0.000041
Ga -0.006592 -3.697078 -0.132089 -0.000019 0.000016 0.000004
Al -1.599693 -0.945915 4.924022 0.000049 -0.000032 0.000029
Al -1.613894 -0.946496 -5.221215 -0.000018 0.000030 -0.000084
Al -1.622952 -0.931070 -0.144453 -0.000001 -0.000058 -0.000020
N 1.515494 0.853912 4.312329 0.000087 -0.000011 -0.000049
N 1.543121 0.821707 -5.879366 0.000006 -0.000001 -0.000020
N 1.554258 0.919795 -0.764544 0.000023 0.000022 0.000061
N -0.025876 3.597326 4.320709 0.000005 0.000021 -0.000009
N -0.028170 3.650340 -5.866075 0.000027 0.000069 0.000071
N -0.064560 3.583856 -0.768608 0.000010 -0.000133 0.000088
N 3.141687 -1.864018 4.312951 -0.000004 -0.000018 -0.000011
N 3.132665 -1.860226 -5.842218 -0.000003 -0.000022 -0.000032
N 3.177942 -1.889065 -0.778181 0.000004 0.000077 -0.000076
N -4.755418 0.822553 4.270070 0.000007 -0.000042 -0.000052
N -4.712906 0.839983 -5.848592 -0.000039 -0.000025 -0.000026
N -4.754839 0.871211 -0.744058 -0.000010 -0.000009 0.000020
N -6.331048 3.644430 4.307728 -0.000044 0.000047 0.000019
N -6.342948 3.655757 -5.848427 0.000092 0.000055 0.000051
N -6.340581 3.559384 -0.724285 -0.000010 -0.000010 -0.000009
N -3.177348 -1.855966 4.327974 0.000038 0.000003 -0.000013
N -3.185688 -1.858796 -5.789262 -0.000019 -0.000033 0.000018
N -3.179704 -1.813799 -0.783869 0.000033 -0.000005 0.000041
N -1.551630 0.848639 4.284169 -0.000043 -0.000019 -0.000033
N -1.644599 0.848657 -5.853963 -0.000007 0.000057 -0.000024
N -1.603223 0.873040 -0.750654 0.000030 -0.000024 -0.000003
N -3.168190 3.649975 4.311661 0.000105 0.000013 -0.000002
N -3.177804 3.600899 -5.777278 0.000090 -0.000050 -0.000015
N -3.131728 3.577850 -0.781966 -0.000074 0.000087 0.000007
N -0.019676 -1.857240 4.390070 -0.000057 0.000016 0.000019
N -0.026561 -1.856730 -5.779156 0.000031 0.000044 0.000052
N -0.063936 -1.834541 -0.728494 -0.000012 -0.000008 0.000013
N -0.019820 1.785421 1.771837 -0.000002 0.000011 -0.000021
N -0.023445 1.782724 6.857316 -0.000021 0.000006 0.000006
N -0.026571 1.781557 -3.240700 -0.000123 -0.000020 0.000011
N 3.136427 -3.681915 1.778913 -0.000026 0.000010 0.000006
N 3.179299 -3.654279 6.841085 -0.000000 0.000022 0.000072
N 3.136628 -3.679412 -3.306249 -0.000027 0.000007 -0.000033
N 1.602862 -0.925400 1.832058 0.000014 -0.000062 -0.000028
N 1.607466 -0.928634 6.838602 0.000018 0.000000 -0.000040
N 1.602717 -0.922830 -3.308572 -0.000016 -0.000050 -0.000017
N 3.130296 1.779626 1.786955 -0.000029 0.000005 -0.000011
N 3.141520 1.782415 6.922448 -0.000049 -0.000035 0.000022
N 3.134716 1.728698 -3.268665 -0.000050 0.000048 -0.000054
N 6.283738 -3.677616 1.853071 -0.000014 -0.000077 -0.000013
N 6.293328 -3.728467 6.829965 0.000001 0.000021 0.000079
N 6.238854 -3.659865 -3.309392 0.000142 0.000005 -0.000130
N 4.713091 -0.956786 1.768540 0.000004 0.000013 -0.000036
N 4.672693 -0.925126 6.834790 -0.000016 -0.000023 0.000178
N 4.704450 -0.944521 -3.297414 -0.000024 -0.000004 -0.000012
N -3.175168 1.786418 1.776650 0.000016 -0.000008 -0.000012
N -3.175103 1.733395 6.888070 0.000060 0.000032 0.000009
N -3.181205 1.774459 -3.289318 0.000001 0.000004 -0.000005
N -0.015575 -3.730575 1.834381 -0.000099 0.000025 -0.000076
N -0.056273 -3.709169 6.835295 -0.000010 0.000028 0.000025
N 0.015940 -3.708606 -3.320352 -0.000100 0.000033 0.000003
N -1.647079 -0.928566 1.769701 -0.000051 0.000005 -0.000010
N -1.600408 -0.900219 6.830118 -0.000016 -0.000017 -0.000045
N -1.647851 -0.916850 -3.311656 0.000069 -0.000030 0.000020
