108
Energy=-940194.504702 Lattice="9.458573 0.000000 0.000000 -4.735221 8.186727 0.000000 -0.000350 0.001540 15.233701" Stress="0.000010 -0.000003 0.000000 -0.000003 0.000003 0.000000 0.000000 0.000000 0.000016" Properties=species:S:1:pos:R:3:forces:R:3
Al 1.553315 0.873665 2.400101 -0.000145 0.000091 0.000105
Al 1.549141 0.876048 7.453587 0.000138 -0.000044 0.000026
Al 1.542501 0.866038 -2.687631 0.000125 -0.000156 0.000036
Al -0.008915 3.592860 2.382921 -0.001212 0.001019 -0.000674
Al -0.012570 3.588632 7.454659 0.000073 0.000025 -0.000706
Al -0.025780 3.582881 -2.662492 -0.000320 -0.000381 -0.000117
Al 3.147949 -1.843846 2.376245 -0.000473 0.000528 0.000778
Al 3.146513 -1.836744 7.469583 -0.000136 0.000316 -0.000108
Al 3.128953 -1.850581 -2.677865 -0.000126 0.000138 0.000091
Al -4.748924 0.862532 2.404162 0.001012 0.000305 -0.000935
Al -4.756597 0.860614 7.451359 0.000105 -0.000053 -0.000007
Al -4.749846 0.870644 -2.685567 0.000147 -0.000118 0.000116
Al -6.348906 3.590566 2.416198 -0.000576 0.001315 0.000067
Al -6.343316 3.594664 7.448872 0.000240 0.000131 -0.000907
Al -6.330871 3.594684 -2.680833 0.000119 0.000122 0.000337
Al -3.177673 -1.859971 2.383958 -0.001322 -0.000409 0.000826
Al -3.185730 -1.851610 7.454008 -0.000049 0.000053 -0.000150
Ga -3.177216 -1.852114 -2.671923 0.000442 0.000188 0.000092
Al -1.598549 0.869015 2.388332 -0.000116 0.001627 0.000153
Al -1.603178 0.874371 7.466927 0.000362 -0.000085 0.000256
Al -1.597062 0.879574 -2.688524 0.000433 -0.000431 0.000384
Ga -3.166011 3.584733 2.394323 -0.000131 0.000191 -0.000222
Ga -3.188129 3.588285 7.477176 0.000063 -0.000222 -0.000078
Al -3.178069 3.591647 -2.686440 0.000025 -0.000197 -0.000337
Ga -0.022579 -1.840020 2.406976 0.000509 -0.000000 0.000379
Ga -0.025836 -1.848825 7.469295 0.000272 0.000025 -0.000043
Al -0.013057 -1.848960 -2.701013 -0.000351 0.000042 0.001287
Al -0.024440 1.770262 4.920438 0.000016 0.000124 -0.000037
Al -0.034103 1.764059 -5.226370 -0.000067 0.000425 -0.000078
Al -0.032284 1.773578 -0.146876 -0.000198 -0.000000 0.000284
Ga 3.142910 -3.668852 4.934972 -0.000168 0.000182 -0.000313
Ga 3.134555 -3.674218 -5.214363 0.000152 0.000204 0.000223
Al 3.147944 -3.677774 -0.158112 -0.000423 0.000314 -0.000592
Al 1.561001 -0.935688 4.928298 0.001084 0.000059 0.000734
Al 1.555401 -0.945834 -5.218755 -0.000407 0.000131 0.000075
Al 1.559880 -0.946510 -0.159149 -0.000666 -0.000025 0.000239
Al 3.125852 1.778673 4.925141 -0.000010 0.000002 -0.000059
Ga 3.131695 1.772124 -5.228315 0.000004 -0.000352 0.000116
Ga 3.125070 1.768898 -0.141087 0.000133 0.000391 -0.000483
Al 6.290623 -3.674428 4.926853 0.000084 0.000098 -0.000289
Ga 6.287878 -3.673181 -5.235372 -0.000073 0.000036 0.000059
Al 6.273199 -3.675575 -0.132925 0.001371 -0.001433 0.000319
Al 4.711842 -0.943321 4.919719 -0.000263 -0.000236 -0.000055
Al 4.709356 -0.937765 -5.236260 -0.000079 -0.000054 0.000189
Al 4.708072 -0.953078 -0.134021 0.000459 0.000648 0.000160
Al -3.179345 1.759214 4.933673 0.000179 0.000247 -0.000239
Al -3.175650 1.763519 -5.218828 0.000104 -0.000378 0.000180
Al -3.162949 1.763831 -0.156116 0.000110 0.000113 -0.002114
Al -0.038577 -3.677314 4.926994 0.000646 -0.001218 -0.000077
Al -0.024343 -3.673360 -5.200323 -0.000118 0.000411 -0.000014
Ga -0.017314 -3.671127 -0.159224 -0.000541 0.000454 -0.000783
Al -1.609971 -0.939196 4.928131 0.000526 -0.000349 -0.000014
Al -1.598037 -0.933579 -5.229971 -0.000059 -0.000086 -0.000034
Al -1.599412 -0.935146 -0.143078 0.000441 0.000680 -0.000477
N 1.548663 0.871235 4.320878 0.000137 0.000088 0.000056
N 1.508757 0.846494 -5.856327 -0.000061 0.000006 -0.000158
N 1.508651 0.847749 -0.774092 -0.000010 0.000056 -0.000031
N 0.016712 3.574250 4.300542 0.000131 -0.000188 -0.000001
N -0.024693 3.547627 -5.874859 -0.000144 -0.000721 0.000978
N -0.019818 3.590830 -0.742847 -0.000087 0.000113 0.000323
N 3.131797 -1.808860 4.290979 0.000319 0.000321 0.000098
N 3.132270 -1.807815 -5.848451 -0.000085 0.000071 -0.000184
N 3.136577 -1.855658 -0.754827 0.000104 0.000498 0.000027
N -4.753649 0.870841 4.324547 0.000401 -0.000114 -0.000291
N -4.714273 0.849737 -5.863625 0.000483 -0.000029 -0.000166
N -4.711282 0.842031 -0.771431 -0.000035 -0.000374 -0.000236
N -6.339343 3.598548 4.329836 -0.000000 0.000065 0.000226
N -6.287630 3.622851 -5.876347 -0.000100 -0.000214 0.000349
N -6.374572 3.620366 -0.781556 -0.000683 0.000077 -0.000327
N -3.174810 -1.858682 4.312893 -0.000006 -0.000126 0.000363
N -3.174696 -1.808936 -5.856729 -0.000035 0.000232 -0.000168
N -3.171423 -1.858535 -0.692126 -0.001338 0.000450 0.000044
N -1.601842 0.872682 4.309901 0.000142 -0.000112 -0.000050
N -1.603602 0.875102 -5.840175 0.000370 -0.000169 -0.000188
N -1.597125 0.870821 -0.765668 0.000298 -0.000334 -0.000339
N -3.215507 3.570978 4.364418 -0.000131 0.000312 0.000423
N -3.224911 3.573529 -5.780986 0.000322 0.000041 -0.000017
N -3.135473 3.571150 -0.768232 0.000122 -0.000100 -0.000267
N -0.016645 -1.850928 4.386317 -0.002052 0.000752 -0.000506
N -0.021192 -1.858508 -5.777805 0.000206 -0.000172 0.000354
N -0.023922 -1.804588 -0.774983 0.000763 -0.000313 -0.001546
N -0.022409 1.774027 1.782375 0.000104 0.000193 -0.000226
N -0.029308 1.775269 6.844352 -0.000060 0.000043 -0.000289
N -0.024688 1.779951 -3.299809 -0.000316 0.000361 -0.000122
N 3.176043 -3.646424 1.766390 0.001827 -0.002597 -0.000197
N 3.173735 -3.648870 6.907709 -0.000112 -0.000272 0.000063
N 3.141332 -3.676836 -3.231554 -0.000062 0.000171 0.000614
N 1.596842 -0.922940 1.761895 0.000116 0.000551 -0.000688
N 1.599715 -0.925448 6.841080 -0.000200 0.000394 0.000132
N 1.563623 -0.948639 -3.297449 -0.000275 0.000180 0.000169
N 3.132762 1.781681 1.845080 -0.000065 -0.001730 0.000358
N 3.125586 1.778109 6.854754 0.000037 -0.000162 -0.000043
N 3.127344 1.776360 -3.243426 0.000048 0.000043 0.000016
N 6.292280 -3.681705 1.789656 -0.000585 0.000319 -0.000027
N 6.282410 -3.672843 6.852729 0.000121 -0.000107 0.000001
N 6.279760 -3.724195 -3.264543 0.000310 0.000127 0.000043
N 4.713887 -0.942836 1.785597 -0.000505 -0.000098 0.000128
N 4.707861 -0.949093 6.841686 -0.000260 0.000079 -0.000168
N 4.667845 -0.925592 -3.318532 -0.000152 -0.000261 -0.000102
N -3.170780 1.730408 1.749929 -0.001812 -0.000966 0.004100
N -3.177464 1.729741 6.843002 0.000086 -0.000092 -0.000314
N -3.177447 1.774273 -3.295979 0.000090 -0.000108 0.000132
N -0.063237 -3.699543 1.807025 0.000531 -0.000076 0.000989
N -0.063114 -3.696861 6.824625 -0.000072 -0.000218 0.000394
N -0.023211 -3.678782 -3.278177 0.000115 0.000094 0.000367
N -1.637689 -0.922547 1.775828 0.001078 -0.000621 -0.001366
N -1.642158 -0.920230 6.843535 -0.000285 0.000111 -0.000101
N -1.563231 -0.921396 -3.313287 -0.000073 0.000118 -0.000197
