108
Energy=-1901479.144362 Lattice="9.562736 0.000000 0.000000 -4.799087 8.266564 0.000000 0.095796 -0.113639 15.402009" Stress="-0.000061 0.000008 0.000020 0.000008 -0.000053 -0.000023 0.000020 -0.000023 -0.000080" Properties=species:S:1:pos:R:3:forces:R:3
Al 1.624425 0.812084 2.429531 -0.000537 -0.002388 -0.000416
Al 1.620856 0.833150 7.543006 0.000831 -0.003388 0.000899
Al 1.519099 0.945338 -2.725620 0.002722 -0.004822 -0.000058
Al 0.021645 3.567215 2.401127 -0.002523 0.000496 0.004950
Al 0.035281 3.561264 7.548272 0.000470 -0.000787 -0.000090
Al -0.059374 3.677422 -2.722516 0.000427 -0.000368 -0.000278
Al 3.231838 -1.943636 2.430130 0.000433 0.000789 -0.002298
Ga 3.247292 -1.945855 7.561116 -0.002269 -0.000779 0.000782
Ga 3.137423 -1.833003 -2.710039 0.000088 0.000882 0.002375
Al -4.771396 0.823459 2.428358 0.002747 -0.002616 0.000326
Ga -4.771849 0.823612 7.558490 0.000046 -0.002677 -0.000127
Ga -4.871533 0.945962 -2.721940 -0.000324 -0.005392 0.001222
Ga -6.359100 3.556052 2.427794 -0.000150 0.001478 0.001081
Al -6.367883 3.562406 7.550223 0.000281 0.000032 0.000610
Al -6.462598 3.685862 -2.728769 0.001643 -0.000899 -0.000058
Ga -3.141311 -1.940960 2.428336 -0.001026 0.000669 -0.000004
Al -3.142382 -1.938498 7.553598 0.001344 -0.001446 0.000854
Ga -3.237972 -1.832910 -2.733319 0.000168 0.000682 0.000860
Al -1.584723 0.824876 2.403316 0.002430 0.000059 0.003469
Al -1.581397 0.816905 7.546100 0.005760 -0.001601 0.000109
Ga -1.673574 0.942606 -2.719952 0.006369 -0.004305 -0.002095
Ga -3.176841 3.584519 2.417237 0.005074 0.001635 -0.001958
Ga -3.174325 3.569499 7.557046 0.003990 0.002475 -0.001037
Ga -3.272980 3.691774 -2.693423 0.003347 0.002520 0.001574
Al 0.033423 -1.926009 2.442793 0.003608 0.000960 -0.000828
Ga 0.009953 -1.926618 7.551117 0.005848 0.001090 -0.000448
Al -0.073226 -1.817525 -2.730328 0.004386 0.000041 0.000054
Ga 0.037503 1.727069 4.976479 -0.006006 -0.001516 0.001160
Ga -0.053593 1.843209 -5.298009 -0.006274 -0.002102 0.001166
Ga -0.071474 1.859797 -0.148055 0.000416 -0.006566 0.002121
Ga 3.248243 -3.784249 4.980355 -0.003940 -0.001075 0.002093
Ga 3.155134 -3.667505 -5.278001 -0.005174 -0.001431 0.001073
Al 3.164018 -3.691283 -0.154066 -0.006869 0.002276 0.006658
Ga 1.650849 -1.025374 4.982496 -0.006006 0.002177 -0.000449
Ga 1.554943 -0.906778 -5.274581 -0.005457 0.002194 -0.001437
Ga 1.542290 -0.918259 -0.135482 -0.000447 -0.000852 0.001552
Al 3.206753 1.736310 4.980864 0.000317 -0.001655 0.002857
Al 3.107366 1.848637 -5.290888 0.000471 0.000534 0.002825
Ga 3.109909 1.860363 -0.152481 0.003147 -0.005277 0.002817
Ga 6.421823 -3.783143 5.000691 -0.001669 0.000360 0.001509
Ga 6.322996 -3.664351 -5.299689 0.000138 0.001445 0.001365
Ga 6.307346 -3.663597 -0.161804 0.004325 -0.003275 0.003464
Ga 4.832096 -1.027843 4.984681 -0.001510 0.005139 0.000088
Al 4.733126 -0.908623 -5.288181 0.000303 0.002265 0.000390
Ga 4.727529 -0.912090 -0.121448 -0.000789 0.001779 -0.000037
Ga -3.174342 1.729684 4.975790 0.000482 -0.000719 0.002323
Ga -3.274250 1.840685 -5.290783 0.000898 0.000059 0.000680
Al -3.253615 1.833882 -0.148093 -0.003989 0.003135 0.007192
Ga 0.021981 -3.774638 4.992924 0.000661 0.001943 0.000790
Ga -0.076813 -3.660331 -5.278098 0.000543 0.000170 0.001346
Ga -0.065200 -3.653581 -0.147673 0.004710 -0.003588 0.000380
Al -1.559902 -1.019474 4.978413 -0.000179 0.004319 0.002245
Al -1.659726 -0.907854 -5.297810 -0.002465 0.003421 0.001971
Ga -1.653897 -0.904818 -0.145401 0.002864 -0.000959 0.001822
N 1.646643 0.838561 4.348525 0.007074 -0.000614 -0.004928
N 1.551737 0.953559 -5.928738 0.007328 -0.001772 -0.006236
N 1.517331 0.942752 -0.802289 0.001808 -0.006395 -0.006209
N 0.031899 3.567857 4.334795 0.000685 -0.000176 -0.010011
N -0.066952 3.680918 -5.937889 -0.000265 -0.000411 -0.008823
N -0.091029 3.694730 -0.802099 -0.004534 0.001814 -0.004637
N 3.238042 -1.948889 4.345737 -0.000423 0.000768 -0.008703
N 3.165095 -1.816878 -5.879020 0.005440 0.003783 0.001279
N 3.139258 -1.860337 -0.736486 0.000360 -0.009596 -0.000631
N -4.792054 0.841137 4.354747 -0.006092 -0.000838 -0.005455
N -4.892908 0.922214 -5.876618 -0.005689 -0.006545 0.004276
N -4.838927 0.952821 -0.752827 0.009244 -0.001052 0.000670
N -6.357801 3.538934 4.386392 -0.000106 -0.006588 0.001586
N -6.452553 3.652696 -5.923992 0.000486 -0.007672 -0.006277
N -6.457015 3.691905 -0.806712 0.001760 -0.000805 -0.007408
N -3.116956 -1.932987 4.384364 0.005553 0.003020 0.002765
N -3.242444 -1.798443 -5.912745 -0.000555 0.007118 -0.003747
N -3.248641 -1.820511 -0.770439 0.001225 -0.000804 -0.000406
N -1.588461 0.794913 4.337950 0.005686 -0.008055 -0.004837
N -1.682695 0.906815 -5.926417 0.005910 -0.007637 -0.004936
N -1.706122 0.954193 -0.762336 0.001314 -0.000306 0.004625
N -3.178366 3.577566 4.376322 0.003472 0.001828 -0.000775
N -3.275146 3.691428 -5.889943 0.004170 0.001900 0.000112
N -3.241293 3.669842 -0.714967 0.009448 -0.004206 0.001366
N -0.000860 -1.922626 4.362986 -0.001077 0.004718 -0.004464
N -0.097512 -1.806479 -5.890488 0.000058 0.004668 0.003132
N -0.073905 -1.816723 -0.808525 0.005841 -0.000277 -0.007000
N 0.038814 1.726112 1.829816 -0.008023 0.004402 0.005199
N 0.032410 1.729526 6.956742 -0.004355 -0.000836 0.007041
N -0.037031 1.864241 -3.324981 0.001392 0.002231 0.004426
N 3.255146 -3.748233 1.799727 0.004399 -0.000315 -0.007593
N 3.270070 -3.796688 6.945728 0.001506 -0.004947 0.001865
N 3.173192 -3.686022 -3.315825 0.001358 -0.005209 0.002207
N 1.649419 -1.036821 1.856319 -0.010136 0.007790 0.002919
N 1.652615 -1.000299 6.947644 -0.005541 0.008261 0.003100
N 1.525852 -0.900914 -3.309327 -0.010323 0.006496 0.005156
N 3.211330 1.696368 1.819467 -0.005329 -0.001656 0.001820
N 3.185069 1.749166 6.916515 -0.005727 0.003502 -0.004115
N 3.084549 1.868560 -3.350999 -0.006477 0.003462 -0.004563
N 6.393860 -3.799147 1.809478 -0.009732 0.000407 -0.001154
N 6.415575 -3.779205 6.972979 0.000031 0.001246 0.007407
N 6.317988 -3.692472 -3.326798 -0.000246 -0.007776 0.003825
N 4.801539 -1.013026 1.844757 -0.008567 0.009777 0.004219
N 4.853312 -1.043999 6.946922 0.005939 0.000859 0.001729
N 4.730335 -0.915288 -3.366004 -0.001315 0.004387 -0.008330
N -3.190360 1.726715 1.805666 0.002103 -0.009638 -0.007826
N -3.148239 1.719328 6.946758 0.006052 -0.003701 0.000922
N -3.268176 1.855766 -3.332766 0.000284 0.000371 -0.001623
N 0.027414 -3.738869 1.820558 -0.005360 0.011426 0.001554
N 0.004559 -3.788297 6.953319 -0.006172 -0.003548 0.002324
N -0.089112 -3.647325 -3.307123 -0.005722 0.003348 0.004648
N -1.523696 -1.015341 1.820901 0.000547 0.011485 0.002960
N -1.585536 -1.007099 6.915376 -0.007922 0.006423 -0.004190
N -1.631056 -0.922806 -3.367465 0.005525 0.001344 -0.005692
