108
Energy=-8.028681e+05 Lattice="9.441047e+00 0.000000e+00 0.000000e+00 -4.724104e+00 8.171455e+00 0.000000e+00 6.149463e-04 -8.640584e-05 1.518045e+01" Stress="7.882549e-04 -1.912685e-04 1.958164e-04 -1.832317e-04 -2.498921e-04 -1.416592e-04 1.888631e-04 -1.491182e-04 1.320054e-03" Properties=species:S:1:pos:R:3:forces:R:3 Config_type=AlGaN_super3_8_1_16.xyz
Al 1.558672e+00 8.774367e-01 2.376485e+00 -5.117104e-04 6.074475e-04 -3.358663e-04
Al 1.555835e+00 8.759646e-01 7.445197e+00 1.245909e-04 1.145898e-03 1.144007e-03
Al 1.549745e+00 8.707425e-01 -2.688042e+00 5.170574e-04 3.966861e-04 3.396265e-04
Al -4.466909e-03 3.581979e+00 2.390137e+00 -3.759561e-04 3.078674e-04 -1.047220e-03
Al -1.593498e-02 3.585351e+00 7.450528e+00 8.055792e-06 -3.048381e-05 -2.169134e-04
Al -1.263564e-02 3.588003e+00 -2.695636e+00 4.125288e-04 5.951608e-05 -1.946612e-04
Al 3.132791e+00 -1.849304e+00 2.396725e+00 -1.446705e-03 1.823238e-03 -2.152436e-04
Al 3.130539e+00 -1.851006e+00 7.445940e+00 1.447318e-03 -4.429283e-04 7.970227e-04
Al 3.121962e+00 -1.850909e+00 -2.685066e+00 3.378650e-04 -1.084890e-03 -2.653237e-03
Al -4.739776e+00 8.768157e-01 2.394448e+00 -1.877072e-04 -4.604974e-04 -9.302058e-05
Al -4.747264e+00 8.719317e-01 7.427262e+00 3.458733e-04 3.413154e-04 -7.901569e-05
Al -4.749947e+00 8.748131e-01 -2.680790e+00 -4.334536e-04 1.901669e-03 8.226371e-04
Al -6.319181e+00 3.585011e+00 2.382811e+00 6.092882e-04 1.173248e-03 -1.070402e-03
Al -6.324126e+00 3.583733e+00 7.442638e+00 3.719856e-05 5.145394e-05 3.049037e-04
Al -6.330539e+00 3.590357e+00 -2.683187e+00 2.056496e-04 -1.204324e-04 -1.535376e-04
Al -3.172656e+00 -1.865634e+00 2.384602e+00 -5.135269e-04 4.496805e-04 -5.652659e-04
Al -3.178694e+00 -1.862929e+00 7.447921e+00 5.645542e-06 4.730519e-04 1.418395e-04
Al -3.159517e+00 -1.862501e+00 -2.683158e+00 -2.289570e-04 1.250992e-04 -2.740619e-04
Al -1.594583e+00 8.837611e-01 2.368630e+00 -9.302620e-04 -7.949211e-05 1.492183e-04
Al -1.599843e+00 8.844399e-01 7.453130e+00 -2.737064e-04 1.193959e-03 1.067375e-03
Al -1.598931e+00 8.645460e-01 -2.685682e+00 6.786363e-04 1.329400e-04 -1.291012e-04
Al -3.169712e+00 3.579599e+00 2.375610e+00 -2.924133e-03 -2.700117e-04 1.350984e-03
Al -3.175010e+00 3.580783e+00 7.458507e+00 2.267997e-04 -2.316335e-04 1.655205e-04
Ga -3.173639e+00 3.589163e+00 -2.686963e+00 2.890363e-04 -1.010844e-04 -1.433598e-04
Ga -1.465770e-02 -1.852077e+00 2.373950e+00 -3.142488e-04 -1.470489e-04 2.534176e-04
Ga -1.370259e-02 -1.853787e+00 7.459761e+00 1.138471e-06 -3.889010e-04 -1.261635e-04
Al -2.789235e-02 -1.844257e+00 -2.683936e+00 3.055453e-04 -7.291004e-04 -1.482364e-04
Al -1.351317e-02 1.772266e+00 4.914104e+00 -3.355709e-05 1.407557e-04 5.432384e-04
Al -2.453442e-02 1.772983e+00 -5.210392e+00 -4.063790e-05 4.161817e-04 1.482442e-04
Al -2.207343e-02 1.768177e+00 -1.628596e-01 4.150472e-04 6.150304e-04 5.231123e-04
Ga 3.125851e+00 -3.678069e+00 4.917593e+00 -4.745471e-04 3.436576e-04 -2.143814e-04
Al 3.126669e+00 -3.679896e+00 -5.222072e+00 1.426286e-04 7.199434e-04 -9.676790e-04
Ga 3.130807e+00 -3.677781e+00 -1.299740e-01 -7.569036e-05 -7.573758e-05 -1.527108e-03
Al 1.569314e+00 -9.275009e-01 4.920082e+00 -1.202227e-03 -1.239050e-03 8.209184e-04
Al 1.549976e+00 -9.433270e-01 -5.194997e+00 -3.429226e-05 4.947801e-04 -2.318658e-04
Al 1.542779e+00 -9.343696e-01 -1.662258e-01 -6.778035e-04 3.124235e-04 -2.251706e-04
Al 3.120041e+00 1.778927e+00 4.909065e+00 3.969066e-04 -1.176558e-04 -5.245580e-05
Al 3.116413e+00 1.784991e+00 -5.215364e+00 -6.704237e-05 -2.294997e-04 3.548313e-04
Al 3.113717e+00 1.788744e+00 -1.516763e-01 -5.454995e-04 2.870558e-04 8.047957e-04
Al 6.280123e+00 -3.680953e+00 4.916472e+00 4.444717e-04 6.279594e-04 7.413539e-05
Al 6.277905e+00 -3.681601e+00 -5.209926e+00 2.930606e-05 7.978367e-05 -5.040011e-05
Al 6.284621e+00 -3.679749e+00 -1.572710e-01 -2.657132e-05 1.249422e-04 1.329144e-03
Al 4.697786e+00 -9.416574e-01 4.915256e+00 4.980386e-05 2.308845e-04 -1.726894e-04
Ga 4.699964e+00 -9.451575e-01 -5.201578e+00 -5.794469e-04 2.975275e-04 5.560900e-05
Ga 4.699628e+00 -9.369205e-01 -1.521470e-01 3.317280e-04 -3.098363e-04 1.368403e-03
Al -3.176984e+00 1.776867e+00 4.917139e+00 -3.808228e-04 -3.057271e-05 -2.304549e-04
Al -3.171900e+00 1.778000e+00 -5.221244e+00 1.098348e-04 1.083726e-04 3.437713e-05
Al -3.176332e+00 1.764846e+00 -1.407329e-01 5.471830e-04 1.754093e-03 -4.889135e-04
Al -2.507587e-02 -3.694660e+00 4.919722e+00 -6.411369e-04 2.028159e-03 -2.678497e-04
Al -3.054360e-02 -3.674394e+00 -5.204074e+00 2.487202e-04 -3.407256e-05 -3.020081e-04
Al -4.116048e-02 -3.668013e+00 -1.547768e-01 1.882024e-03 -9.763132e-04 -2.243163e-03
Ga -1.601117e+00 -9.380007e-01 4.917339e+00 -4.103215e-04 1.256655e-05 -6.768871e-05
Al -1.592660e+00 -9.410904e-01 -5.199628e+00 -3.238385e-04 2.254888e-04 -2.302556e-04
Al -1.593031e+00 -9.428384e-01 -1.611581e-01 -4.765745e-04 -8.169157e-05 1.623898e-04
N 1.550264e+00 8.721675e-01 4.300699e+00 2.115239e-04 -1.284432e-04 5.307630e-05
N 1.547921e+00 8.678682e-01 -5.811136e+00 3.307261e-04 2.890585e-04 -2.545830e-05
N 1.548958e+00 8.738793e-01 -7.660216e-01 4.050029e-04 3.736258e-04 -9.358703e-06
N 2.312159e-02 3.564195e+00 4.300577e+00 -1.067612e-04 -2.268557e-05 -5.847168e-05
N -1.831839e-02 3.587696e+00 -5.812702e+00 -4.181977e-05 -4.451356e-04 1.426226e-04
N 1.591074e-02 3.570146e+00 -7.788920e-01 3.724512e-04 -4.649792e-04 6.584733e-04
N 3.126059e+00 -1.809453e+00 4.304011e+00 -2.978151e-04 4.493186e-05 1.352734e-04
N 3.084081e+00 -1.873204e+00 -5.824888e+00 1.101314e-04 -4.146004e-04 4.592730e-04
N 3.081887e+00 -1.836930e+00 -7.917816e-01 3.789235e-04 -3.444091e-04 2.232260e-03
N -4.744927e+00 8.713629e-01 4.318310e+00 2.889829e-04 3.565099e-04 4.187102e-04
N -4.751093e+00 9.156894e-01 -5.839642e+00 3.637127e-04 2.790836e-04 -4.307834e-04
N -4.755333e+00 9.263995e-01 -7.653215e-01 1.649013e-03 -9.360552e-04 -1.669413e-03
N -6.319774e+00 3.592399e+00 4.304506e+00 1.946851e-04 -2.161877e-04 -5.647849e-05
N -6.321167e+00 3.591854e+00 -5.819179e+00 4.734918e-05 -5.222207e-05 -2.886966e-04
N -6.322857e+00 3.593562e+00 -7.647265e-01 3.841010e-06 -5.690635e-04 9.278162e-05
N -3.207663e+00 -1.882715e+00 4.296190e+00 5.149753e-05 -5.914999e-04 4.809303e-04
N -3.129239e+00 -1.880888e+00 -5.820914e+00 3.808191e-05 -2.084366e-04 1.248419e-04
N -3.129637e+00 -1.880877e+00 -7.727680e-01 3.078452e-04 -2.122165e-04 6.060266e-04
N -1.596574e+00 9.250122e-01 4.285161e+00 4.946156e-04 -5.257595e-04 -1.635998e-04
N -1.598797e+00 8.729867e-01 -5.809723e+00 5.163898e-04 -9.995301e-05 -8.372115e-05
N -1.603204e+00 8.720231e-01 -7.608544e-01 3.023105e-04 -1.289842e-04 2.445076e-05
N -3.217495e+00 3.565065e+00 4.294180e+00 1.254367e-03 -1.817781e-04 -2.109138e-03
N -3.178367e+00 3.593538e+00 -5.803236e+00 -1.999848e-04 -5.288860e-04 4.783691e-05
N -3.207198e+00 3.566315e+00 -7.199285e-01 -2.197134e-03 6.971900e-04 4.265426e-04
N 2.230359e-02 -1.878035e+00 4.349949e+00 1.010809e-03 -3.146330e-04 1.119221e-03
N -1.965932e-02 -1.851927e+00 -5.749051e+00 -1.166332e-04 -5.928481e-04 2.845342e-04
N -2.520181e-02 -1.850231e+00 -7.555089e-01 3.529179e-04 -5.322597e-04 -5.394736e-04
N -1.653584e-02 1.776020e+00 1.765802e+00 -1.884228e-04 -7.407237e-05 -8.106296e-04
N -2.188470e-02 1.771902e+00 6.840327e+00 2.184021e-04 4.239237e-04 -2.890055e-04
N -2.506791e-02 1.771681e+00 -3.289242e+00 -2.963254e-04 1.629334e-04 2.220857e-04
N 3.133767e+00 -3.674784e+00 1.847114e+00 1.363581e-03 1.261223e-03 1.780087e-03
N 3.125414e+00 -3.677531e+00 6.898256e+00 3.017679e-04 3.448008e-04 2.036875e-04
N 3.171513e+00 -3.653800e+00 -3.311300e+00 -6.026956e-04 1.688554e-03 1.071088e-03
N 1.593623e+00 -9.136143e-01 1.745610e+00 2.431081e-03 -2.504852e-03 1.519894e-03
N 1.600482e+00 -9.174509e-01 6.836802e+00 -1.577783e-03 -3.233108e-04 -3.757712e-03
N 1.553098e+00 -9.444388e-01 -3.279102e+00 -5.393488e-04 1.079182e-04 -3.367310e-04
N 3.127443e+00 1.778288e+00 1.778190e+00 3.474481e-04 -2.501801e-05 2.781297e-05
N 3.119648e+00 1.778809e+00 6.830833e+00 -2.051555e-04 -2.111954e-04 -2.463396e-04
N 3.121061e+00 1.778357e+00 -3.292746e+00 -1.605971e-04 -3.959915e-05 5.112318e-06
N 6.279461e+00 -3.675004e+00 1.773025e+00 -3.617828e-04 9.920649e-07 -1.340260e-03
N 6.274361e+00 -3.673932e+00 6.837568e+00 -2.935616e-05 -1.155694e-05 -1.441301e-05
N 6.274639e+00 -3.673399e+00 -3.294151e+00 -2.065594e-04 3.365642e-04 1.047644e-04
N 4.702621e+00 -9.450301e-01 1.835870e+00 -6.468465e-04 2.232105e-04 -2.313148e-03
N 4.701033e+00 -9.483008e-01 6.841198e+00 -1.931173e-04 -5.291975e-04 -3.194548e-04
N 4.700890e+00 -9.392133e-01 -3.223294e+00 4.100542e-04 -2.569896e-03 -6.495814e-04
N -3.168929e+00 1.772843e+00 1.772436e+00 -7.438076e-04 -4.930956e-04 1.319026e-03
N -3.168847e+00 1.777109e+00 6.838036e+00 8.578399e-05 2.238790e-04 -6.493144e-05
N -3.172170e+00 1.727739e+00 -3.313145e+00 -3.449959e-04 -6.217775e-04 4.333089e-04
N -2.044103e-02 -3.711498e+00 1.748307e+00 -8.680729e-04 -2.104545e-03 3.346269e-03
N -2.110513e-02 -3.720498e+00 6.832548e+00 -1.568605e-04 -6.617692e-05 -1.126982e-04
N -6.645980e-02 -3.649157e+00 -3.296080e+00 -3.689861e-04 4.742786e-04 6.465160e-04
N -1.640943e+00 -9.220904e-01 1.760680e+00 1.342204e-03 1.511594e-04 1.871325e-04
N -1.636670e+00 -9.148504e-01 6.885193e+00 -1.084254e-04 -2.059538e-03 -7.931558e-04
N -1.596888e+00 -9.431067e-01 -3.281909e+00 -6.457178e-04 -1.167102e-04 2.706523e-04
