108
Energy=-940194.506485 Lattice="9.455037 0.000000 0.000000 -4.729617 8.185786 0.000000 -0.001246 0.000281 15.219908" Stress="0.000002 -0.000001 0.000000 -0.000001 -0.000002 0.000001 0.000000 0.000000 0.000005" Properties=species:S:1:pos:R:3:forces:R:3
Al 1.550652 0.873887 2.397237 -0.000037 -0.000002 0.000009
Al 1.550404 0.876698 7.446751 0.000001 -0.000013 -0.000031
Al 1.542950 0.867454 -2.684524 0.000008 0.000001 -0.000019
Al -0.011233 3.594721 2.376801 -0.000049 0.000015 -0.000047
Al -0.010358 3.587795 7.446852 0.000011 -0.000008 -0.000007
Al -0.024174 3.582753 -2.658557 0.000044 0.000007 0.000002
Al 3.140724 -1.844875 2.373717 -0.000004 -0.000023 -0.000087
Al 3.142962 -1.836386 7.463319 -0.000037 0.000021 -0.000005
Al 3.124900 -1.847324 -2.672972 0.000011 0.000004 0.000005
Al -4.748523 0.860714 2.400477 -0.000007 0.000031 -0.000023
Al -4.751551 0.858862 7.442793 -0.000032 -0.000026 0.000003
Al -4.745734 0.868915 -2.682606 -0.000022 -0.000075 -0.000062
Al -6.348277 3.592903 2.412913 -0.000017 -0.000004 -0.000007
Al -6.337842 3.592581 7.439067 0.000024 -0.000005 -0.000020
Al -6.325375 3.594261 -2.678122 0.000014 0.000013 0.000042
Al -3.181801 -1.858382 2.382426 -0.000018 0.000004 -0.000027
Al -3.186635 -1.852457 7.445370 -0.000017 -0.000005 -0.000015
Ga -3.176545 -1.851319 -2.667928 -0.000007 0.000001 -0.000011
Al -1.598459 0.871519 2.385130 -0.000036 0.000009 -0.000028
Al -1.598835 0.872493 7.459811 0.000033 -0.000069 -0.000006
Al -1.592498 0.877953 -2.685095 0.000020 -0.000052 -0.000022
Ga -3.164885 3.583744 2.390050 -0.000010 0.000030 -0.000046
Ga -3.182832 3.584037 7.471061 0.000017 -0.000007 -0.000004
Al -3.174658 3.589565 -2.684773 0.000005 0.000009 0.000018
Ga -0.023413 -1.838261 2.404745 0.000001 0.000009 -0.000009
Ga -0.026062 -1.850306 7.462940 0.000006 -0.000014 -0.000033
Al -0.014670 -1.848869 -2.696776 0.000018 -0.000005 -0.000038
Al -0.022544 1.770290 4.914426 -0.000003 0.000023 -0.000019
Al -0.032000 1.764787 -5.221203 0.000004 0.000022 0.000005
Al -0.032602 1.775692 -0.145270 0.000001 0.000001 -0.000033
Ga 3.140067 -3.668049 4.929521 0.000002 0.000015 -0.000016
Ga 3.132830 -3.671572 -5.206276 0.000027 0.000019 -0.000007
Al 3.142793 -3.674117 -0.161901 0.000007 0.000036 0.000019
Al 1.560049 -0.935467 4.926516 -0.000024 0.000007 0.000007
Al 1.552675 -0.944017 -5.212721 0.000001 0.000086 0.000009
Al 1.555098 -0.943652 -0.159233 0.000014 0.000040 -0.000030
Al 3.126976 1.777160 4.918636 -0.000012 -0.000001 -0.000028
Ga 3.134504 1.769732 -5.223622 0.000019 -0.000017 -0.000023
Ga 3.124774 1.769391 -0.140243 -0.000024 -0.000002 -0.000026
Al 6.286770 -3.674412 4.920275 -0.000024 -0.000008 -0.000031
Ga 6.285095 -3.673111 -5.230326 0.000011 -0.000009 -0.000022
Al 6.270691 -3.676946 -0.130994 -0.000032 0.000057 -0.000016
Al 4.708139 -0.943482 4.914167 -0.000007 -0.000001 -0.000014
Al 4.707291 -0.937850 -5.231320 -0.000013 -0.000001 0.000003
Al 4.705084 -0.950249 -0.130789 -0.000022 0.000011 -0.000022
Al -3.175025 1.758800 4.926120 0.000004 -0.000033 -0.000062
Al -3.169195 1.761014 -5.212965 -0.000006 -0.000037 0.000002
Al -3.160604 1.763581 -0.157673 -0.000026 -0.000018 0.000008
Al -0.038480 -3.679984 4.922024 -0.000017 -0.000002 0.000020
Al -0.024578 -3.673279 -5.195035 -0.000028 -0.000016 0.000011
Ga -0.021582 -3.668634 -0.159483 -0.000016 0.000016 -0.000029
Al -1.609859 -0.939540 4.923744 0.000018 -0.000016 -0.000027
Al -1.597522 -0.934712 -5.226186 0.000000 0.000000 0.000022
Al -1.599294 -0.933522 -0.145658 0.000008 -0.000012 -0.000035
N 1.549426 0.870249 4.316687 0.000012 -0.000018 0.000018
N 1.509632 0.847044 -5.851340 0.000024 -0.000045 0.000053
N 1.507095 0.850026 -0.772770 -0.000029 -0.000017 0.000052
N 0.018776 3.573395 4.294285 0.000026 0.000016 0.000030
N -0.022840 3.546011 -5.866669 -0.000008 0.000012 -0.000003
N -0.018783 3.591982 -0.739961 0.000008 0.000000 0.000040
N 3.128363 -1.807745 4.286537 0.000015 0.000005 0.000054
N 3.129290 -1.805722 -5.842436 0.000036 -0.000026 -0.000030
N 3.132813 -1.850395 -0.751716 -0.000017 0.000002 0.000013
N -4.749374 0.869558 4.319447 0.000022 -0.000017 0.000023
N -4.706662 0.848452 -5.859489 0.000031 0.000013 0.000027
N -4.708401 0.841652 -0.770172 0.000019 0.000032 0.000055
N -6.334651 3.597506 4.325767 0.000009 -0.000021 0.000038
N -6.281665 3.620847 -5.870622 -0.000013 -0.000002 0.000000
N -6.372236 3.620455 -0.780384 0.000036 -0.000014 -0.000010
N -3.175325 -1.858559 4.309932 0.000019 -0.000027 0.000022
N -3.174226 -1.808497 -5.852754 0.000022 -0.000002 0.000000
N -3.175052 -1.856793 -0.688871 -0.000000 -0.000046 -0.000009
N -1.598353 0.871690 4.304864 0.000041 -0.000038 0.000013
N -1.598000 0.873146 -5.835699 -0.000002 -0.000005 0.000009
N -1.594479 0.870804 -0.765003 -0.000002 -0.000018 0.000014
N -3.211420 3.571336 4.360890 0.000014 0.000013 -0.000003
N -3.218305 3.571984 -5.772983 0.000021 -0.000002 -0.000011
N -3.133457 3.570258 -0.766673 -0.000045 -0.000028 -0.000081
N -0.021918 -1.849855 4.382189 -0.000041 0.000037 -0.000009
N -0.020604 -1.859434 -5.770399 0.000003 -0.000050 -0.000033
N -0.023911 -1.804154 -0.778504 -0.000009 -0.000010 0.000010
N -0.023264 1.775550 1.779068 -0.000021 0.000012 0.000009
N -0.027412 1.775170 6.836614 -0.000007 0.000013 0.000012
N -0.023968 1.781709 -3.296504 -0.000024 0.000013 0.000019
N 3.173719 -3.652166 1.761092 0.000056 -0.000015 0.000041
N 3.170480 -3.649056 6.902085 0.000010 0.000009 -0.000012
N 3.138051 -3.673982 -3.222848 -0.000059 0.000006 -0.000016
N 1.593551 -0.920989 1.756686 -0.000023 0.000018 0.000036
N 1.596959 -0.924148 6.836627 0.000032 -0.000022 0.000027
N 1.560123 -0.946125 -3.292864 -0.000009 0.000022 0.000018
N 3.129914 1.778408 1.843666 0.000034 0.000026 0.000022
N 3.127176 1.775953 6.847373 0.000003 -0.000013 0.000017
N 3.128897 1.775906 -3.239151 0.000019 -0.000034 -0.000008
N 6.284679 -3.679025 1.787702 -0.000018 0.000016 0.000041
N 6.278957 -3.673828 6.845398 0.000007 0.000006 0.000024
N 6.277121 -3.723473 -3.259805 -0.000045 0.000003 -0.000018
N 4.706074 -0.943967 1.785031 0.000001 -0.000000 0.000027
N 4.703310 -0.950078 6.834145 -0.000007 -0.000005 0.000009
N 4.664305 -0.926445 -3.315546 0.000014 0.000082 0.000016
N -3.175801 1.726393 1.757017 0.000025 -0.000047 0.000047
N -3.172674 1.726677 6.834316 0.000034 0.000045 0.000039
N -3.172987 1.771901 -3.291379 -0.000009 0.000011 0.000011
N -0.065423 -3.698241 1.806142 0.000017 -0.000017 0.000039
N -0.063065 -3.698917 6.819551 -0.000003 0.000002 0.000022
N -0.023756 -3.678356 -3.273248 0.000002 0.000002 0.000026
N -1.637075 -0.922799 1.768330 0.000009 0.000043 0.000043
N -1.642940 -0.921189 6.837520 0.000010 0.000033 0.000013
N -1.563004 -0.921116 -3.310524 -0.000028 0.000042 0.000014
