108
Energy=-9.859699e+05 Lattice="9.462577e+00 0.000000e+00 0.000000e+00 -4.731806e+00 8.193143e+00 0.000000e+00 1.386696e-03 1.524367e-03 1.522358e+01" Stress="2.923481e-04 -5.414099e-05 4.361924e-05 -4.485690e-05 2.243498e-05 1.241441e-04 4.540453e-05 1.175642e-04 6.400679e-08" Properties=species:S:1:pos:R:3:forces:R:3 Config_type=AlGaN_super3_12_0_32.xyz
Al 1.546729e+00 8.674420e-01 2.375985e+00 1.949469e-06 4.718319e-05 -4.910396e-05
Al 1.552382e+00 8.749886e-01 7.468620e+00 -1.772298e-04 -1.622330e-04 2.839864e-05
Al 1.550850e+00 8.658626e-01 -2.691372e+00 1.107166e-04 1.220670e-05 4.607675e-05
Al -3.089918e-02 3.594994e+00 2.409787e+00 -8.632063e-05 -1.064040e-04 1.337426e-05
Al -3.303887e-02 3.591049e+00 7.437030e+00 1.376329e-04 1.117797e-04 -6.957742e-05
Al -4.148008e-02 3.588024e+00 -2.683495e+00 -2.313547e-05 -1.082019e-04 1.705301e-04
Al 3.128962e+00 -1.860087e+00 2.386711e+00 3.850768e-06 -1.021113e-05 2.096155e-05
Al 3.125624e+00 -1.859279e+00 7.441243e+00 -8.816718e-06 -8.392033e-05 2.760865e-04
Al 3.121719e+00 -1.859265e+00 -2.670319e+00 -9.357231e-05 1.098844e-04 1.325375e-04
Al -4.748144e+00 8.693424e-01 2.384824e+00 3.495361e-05 1.920853e-05 1.652796e-05
Al -4.752084e+00 8.816715e-01 7.451041e+00 9.811443e-05 -1.883600e-05 1.278274e-04
Al -4.759332e+00 8.715705e-01 -2.672329e+00 1.391073e-05 2.423222e-04 5.408473e-05
Al -6.335567e+00 3.594383e+00 2.395139e+00 -2.357526e-05 1.600572e-05 8.950214e-06
Al -6.334301e+00 3.586897e+00 7.469592e+00 1.459115e-04 2.731569e-04 -1.104807e-04
Ga -6.326801e+00 3.582668e+00 -2.684569e+00 6.384568e-05 -2.849682e-05 1.658255e-05
Al -3.185810e+00 -1.856609e+00 2.413715e+00 -6.858999e-05 -7.390623e-05 -3.696919e-05
Ga -3.181023e+00 -1.852872e+00 7.439588e+00 5.716538e-05 -6.942327e-05 3.198130e-05
Ga -3.178452e+00 -1.844556e+00 -2.676596e+00 6.827789e-05 1.318613e-05 -2.567733e-05
Al -1.597996e+00 8.836023e-01 2.401760e+00 -4.123357e-05 -8.058549e-05 2.598979e-05
Al -1.597676e+00 8.875795e-01 7.453665e+00 -2.568885e-05 1.930677e-04 1.537775e-04
Al -1.591125e+00 8.803714e-01 -2.693950e+00 4.669306e-05 -2.543193e-04 -1.750985e-05
Al -3.163384e+00 3.593358e+00 2.392613e+00 1.209487e-04 -7.631309e-05 5.941414e-05
Al -3.163170e+00 3.591500e+00 7.467467e+00 -6.468821e-05 1.157313e-04 4.875074e-06
Ga -3.160939e+00 3.598638e+00 -2.694050e+00 1.902583e-06 -3.906525e-05 8.775379e-05
Al -1.166807e-02 -1.849484e+00 2.411360e+00 4.630580e-05 -1.999217e-04 -3.755143e-06
Ga -1.183544e-02 -1.845066e+00 7.466924e+00 -3.531789e-05 -6.213893e-05 6.645915e-05
Al -8.071390e-03 -1.843355e+00 -2.706515e+00 6.984885e-05 3.597624e-05 2.039445e-05
Al -3.023340e-02 1.777643e+00 4.924623e+00 -5.257277e-05 6.144698e-05 -2.599193e-05
Al -2.820062e-02 1.774266e+00 -5.235271e+00 -5.241732e-05 3.830402e-05 1.207273e-04
Al -2.531290e-02 1.782893e+00 -1.479472e-01 -1.483286e-05 -1.333291e-04 5.930136e-05
Al 3.138166e+00 -3.679817e+00 4.918975e+00 -4.528447e-05 -1.152603e-05 5.500961e-05
Al 3.125185e+00 -3.683497e+00 -5.243543e+00 -1.088353e-05 -1.144196e-04 1.317151e-04
Al 3.138269e+00 -3.678446e+00 -1.277709e-01 1.776868e-04 -5.587199e-05 -1.976067e-05
Al 1.561113e+00 -9.424515e-01 4.915455e+00 -1.045526e-04 -2.138117e-05 -1.424279e-04
Al 1.555963e+00 -9.461174e-01 -5.215425e+00 -8.292687e-05 -4.860900e-06 9.624841e-05
Al 1.566307e+00 -9.420664e-01 -1.502703e-01 3.498115e-06 -4.175357e-05 4.928155e-05
Ga 3.123295e+00 1.768545e+00 4.926376e+00 2.419559e-05 3.989077e-05 6.710145e-06
Al 3.132863e+00 1.771581e+00 -5.240218e+00 -8.087351e-05 -1.310671e-05 1.607982e-04
Al 3.131029e+00 1.756236e+00 -1.286918e-01 -4.051621e-05 -5.032390e-05 -4.086758e-05
Al 6.272140e+00 -3.680800e+00 4.915383e+00 -3.715199e-05 7.687189e-05 -2.988659e-05
Ga 6.280325e+00 -3.699150e+00 -5.231067e+00 -3.598886e-05 5.481477e-05 -1.281560e-05
Ga 6.262460e+00 -3.692855e+00 -1.169540e-01 -5.764515e-06 2.905338e-05 -4.029888e-05
Al 4.704137e+00 -9.521976e-01 4.911677e+00 3.338036e-05 4.553441e-05 1.377474e-04
Ga 4.687767e+00 -9.356288e-01 -5.222014e+00 2.647665e-06 2.083212e-05 -8.522333e-06
Al 4.687844e+00 -9.376549e-01 -1.303222e-01 -8.184795e-05 2.127525e-05 1.412659e-05
Al -3.161548e+00 1.775281e+00 4.925213e+00 1.257219e-05 5.667664e-05 7.365572e-05
Al -3.173011e+00 1.779712e+00 -5.240483e+00 -5.807302e-05 -1.275635e-05 -9.622205e-05
Al -3.174600e+00 1.774178e+00 -1.362376e-01 -2.136449e-04 1.376554e-04 6.040933e-05
Ga -1.368181e-02 -3.679982e+00 4.921565e+00 6.408017e-05 -3.751922e-05 1.057590e-04
Al -1.237142e-02 -3.682796e+00 -5.241277e+00 8.239146e-05 2.786563e-05 -4.503630e-05
Ga -4.397890e-03 -3.677351e+00 -1.154113e-01 -1.997536e-05 -5.348147e-05 -1.342148e-05
Al -1.601588e+00 -9.324634e-01 4.898854e+00 -2.216753e-04 1.417402e-04 2.220824e-04
Al -1.581749e+00 -9.283760e-01 -5.214573e+00 -5.439146e-05 -3.287577e-05 -9.635524e-05
Ga -1.589141e+00 -9.280767e-01 -1.225125e-01 -2.632594e-05 -4.933160e-05 -3.794049e-05
N 1.508383e+00 8.492049e-01 4.287773e+00 1.801982e-05 -4.824851e-06 1.779278e-04
N 1.549169e+00 8.671177e-01 -5.830416e+00 2.123905e-05 -2.325539e-05 -1.046636e-04
N 1.552945e+00 8.737908e-01 -7.557252e-01 3.436703e-05 -7.310030e-05 -9.229224e-05
N -2.870079e-02 3.595850e+00 4.328073e+00 4.077752e-06 4.787134e-06 -4.508016e-05
N -6.952592e-02 3.572925e+00 -5.870688e+00 1.933594e-05 -5.622896e-05 -9.814885e-05
N -7.090993e-02 3.575976e+00 -7.686164e-01 -1.404057e-04 2.509498e-04 3.481767e-06
N 3.129072e+00 -1.861272e+00 4.309028e+00 3.995706e-06 6.955772e-06 5.961143e-05
N 3.084617e+00 -1.883495e+00 -5.864740e+00 1.128991e-04 2.902064e-04 -4.161658e-04
N 3.129845e+00 -1.864594e+00 -7.423603e-01 -5.286772e-06 9.499782e-06 -5.374307e-05
N -4.709881e+00 8.515254e-01 4.299308e+00 3.761512e-05 -7.761661e-05 -2.941581e-05
N -4.750943e+00 9.173872e-01 -5.864084e+00 2.965855e-04 1.044914e-04 -7.703451e-06
N -4.753761e+00 8.750009e-01 -7.433290e-01 2.774609e-05 -8.627733e-06 8.221194e-07
N -6.371899e+00 3.619289e+00 4.292698e+00 3.937882e-05 -1.043059e-04 -5.684497e-06
N -6.292492e+00 3.575867e+00 -5.843540e+00 -4.350012e-05 -5.574972e-05 -6.415756e-06
N -6.327072e+00 3.552049e+00 -7.147726e-01 -1.108175e-05 4.838028e-05 -8.172273e-05
N -3.182084e+00 -1.859032e+00 4.332700e+00 -4.253637e-05 1.044043e-05 -7.262675e-06
N -3.136052e+00 -1.831661e+00 -5.812449e+00 4.924681e-05 1.430604e-05 -1.883150e-05
N -3.215118e+00 -1.832416e+00 -7.112097e-01 3.225438e-06 -1.395845e-05 1.201807e-05
N -1.598367e+00 8.827976e-01 4.314093e+00 5.147809e-05 -6.066242e-05 -3.859966e-05
N -1.598729e+00 8.726713e-01 -5.845005e+00 6.109733e-05 -5.486924e-05 -4.918487e-05
N -1.600452e+00 9.214094e-01 -7.752309e-01 3.186067e-04 -1.804521e-05 -2.212810e-04
N -3.128665e+00 3.573411e+00 4.303672e+00 4.434912e-05 -5.690710e-05 -8.654383e-05
N -3.171566e+00 3.597052e+00 -5.832399e+00 2.952126e-05 -1.156324e-04 -7.417706e-05
N -3.131598e+00 3.578071e+00 -7.152113e-01 -1.183119e-04 -9.157452e-05 -9.480375e-05
N -1.557431e-02 -1.810472e+00 4.315495e+00 2.401591e-04 1.628968e-05 5.835601e-05
N -1.944340e-02 -1.852001e+00 -5.778713e+00 -1.298436e-04 -1.589210e-05 -1.607603e-05
N 1.898481e-02 -1.835465e+00 -7.904833e-01 2.529953e-06 1.454908e-05 -4.169428e-05
N -2.544831e-02 1.784087e+00 1.776613e+00 -6.677187e-05 -9.282605e-07 6.937802e-07
N -1.963007e-02 1.776205e+00 6.847130e+00 1.772879e-05 6.483715e-05 -7.352343e-05
N -2.039566e-02 1.781700e+00 -3.304869e+00 -3.947155e-05 -5.376238e-05 -5.409717e-05
N 3.137907e+00 -3.680046e+00 1.791585e+00 -7.297028e-06 7.353035e-05 -1.175742e-05
N 3.128742e+00 -3.678995e+00 6.842071e+00 -9.958579e-06 6.057745e-05 -3.379127e-05
N 3.176571e+00 -3.650490e+00 -3.323453e+00 -9.956907e-05 -1.257195e-04 -1.464064e-04
N 1.555136e+00 -9.512812e-01 1.772402e+00 -3.345558e-05 -7.714664e-06 -5.804440e-05
N 1.596319e+00 -9.179827e-01 6.826551e+00 3.645608e-05 1.559156e-04 1.486408e-04
N 1.565168e+00 -9.464245e-01 -3.292608e+00 -4.780000e-05 5.416807e-05 -1.576490e-05
N 3.131425e+00 1.773054e+00 1.790684e+00 1.995217e-05 -9.751333e-06 -4.749070e-06
N 3.126791e+00 1.777774e+00 6.902287e+00 1.934581e-05 1.804458e-04 -1.131807e-05
N 3.132660e+00 1.725371e+00 -3.319654e+00 -1.075228e-04 8.872632e-06 -3.168950e-05
N 6.276583e+00 -3.682185e+00 1.856344e+00 1.748819e-04 1.559250e-04 1.144451e-04
N 6.287063e+00 -3.729980e+00 6.834210e+00 -2.102837e-04 -2.618752e-04 2.674724e-04
N 6.242125e+00 -3.708030e+00 -3.266527e+00 9.672360e-05 3.514313e-05 -1.908248e-05
N 4.704647e+00 -9.495889e-01 1.791551e+00 -4.679303e-05 -6.654020e-06 -4.116721e-05
N 4.662653e+00 -9.206144e-01 6.827832e+00 -1.337045e-05 -1.643119e-04 -3.404422e-04
N 4.658158e+00 -9.231887e-01 -3.251052e+00 7.837696e-05 -5.801856e-05 -7.862716e-05
N -3.173972e+00 1.776608e+00 1.781123e+00 -2.220399e-05 3.272004e-05 3.915028e-05
N -3.173599e+00 1.783694e+00 6.849022e+00 -2.179548e-05 7.061444e-05 -4.769292e-05
N -3.180053e+00 1.728605e+00 -3.319421e+00 -1.726929e-04 -9.431753e-05 1.247724e-04
N -1.760267e-02 -3.676785e+00 1.861024e+00 -8.591273e-05 1.517983e-04 -1.813743e-05
N -1.905743e-02 -3.726589e+00 6.896875e+00 7.664153e-05 -1.923564e-04 4.837023e-05
N -1.926006e-02 -3.637723e+00 -3.329841e+00 -6.168414e-05 -4.686819e-05 1.551511e-05
N -1.597558e+00 -9.467665e-01 1.857461e+00 3.155296e-05 1.887986e-04 1.384956e-05
N -1.594835e+00 -8.939524e-01 6.806168e+00 2.847505e-05 -2.876540e-04 -3.842829e-04
N -1.557262e+00 -9.184930e-01 -3.302844e+00 7.328620e-06 2.018241e-04 1.414030e-04
