108
Energy=-802867.807502 Lattice="9.453723 0.000000 0.000000 -4.742994 8.177513 0.000000 0.003103 0.023982 15.185613" Stress="0.000014 -0.000006 0.000004 -0.000006 0.000011 0.000005 0.000004 0.000005 0.000027" Properties=species:S:1:pos:R:3:forces:R:3
Al 1.544066 0.877418 2.401426 0.001827 0.004188 0.001164
Al 1.553543 0.883345 7.439098 0.001154 -0.000463 -0.000393
Al 1.555129 0.865019 -2.715243 -0.000187 0.001156 0.005333
Al -0.022310 3.594090 2.375045 0.001957 -0.001914 0.001363
Al -0.015705 3.600934 7.454850 0.000380 -0.000420 0.000020
Al -0.022683 3.569764 -2.691410 -0.000775 0.001236 0.000728
Al 3.145950 -1.852102 2.387539 0.000319 -0.003154 0.001039
Al 3.151317 -1.843647 7.452756 0.000221 0.000336 0.000166
Al 3.142996 -1.873920 -2.697443 0.001237 -0.000176 0.000446
Al -4.759551 0.868199 2.388960 -0.022540 -0.014728 0.012290
Al -4.753381 0.885034 7.442779 0.000742 -0.000750 -0.000441
Al -4.758488 0.864886 -2.704450 0.001225 -0.000462 0.000305
Al -6.353298 3.612593 2.406772 -0.002831 -0.002641 0.002105
Al -6.328125 3.610070 7.441464 -0.000055 -0.000551 -0.000345
Al -6.333062 3.576475 -2.711127 0.000056 0.001225 -0.000670
Al -3.169308 -1.847140 2.379036 -0.000433 -0.001539 -0.000147
Al -3.163442 -1.845863 7.451310 -0.000708 -0.000462 -0.000297
Ga -3.170404 -1.867901 -2.686896 0.000636 0.000978 0.001729
Al -1.616635 0.887930 2.377177 -0.003272 0.000514 0.000503
Al -1.605572 0.897080 7.452680 0.001971 -0.000170 -0.000637
Al -1.606303 0.879706 -2.688958 0.000230 0.001381 0.000472
Ga -3.237815 3.587022 2.414949 0.006158 0.001238 -0.000900
Al -3.183603 3.613044 7.456741 0.000638 -0.001000 -0.001421
Al -3.180261 3.578415 -2.702631 0.001099 0.000579 -0.000302
Al -0.017995 -1.830101 2.398731 0.000298 0.008373 0.004361
Al -0.007293 -1.838856 7.453764 0.001800 -0.000730 -0.000307
Ga -0.007957 -1.845122 -2.708689 0.001009 -0.001013 0.000861
Al -0.014938 1.787847 4.916626 -0.000769 0.000173 0.001185
Al -0.024048 1.762062 -5.219479 -0.001145 0.000626 -0.000280
Al -0.033802 1.769619 -0.152657 -0.004273 0.002720 -0.000136
Ga 3.148144 -3.667053 4.933150 -0.000099 0.000512 -0.000206
Al 3.147905 -3.692139 -5.218234 -0.001317 0.000948 -0.000711
Al 3.150337 -3.703393 -0.165756 -0.001288 0.002122 0.003815
Al 1.579593 -0.933800 4.924858 -0.002031 0.001566 -0.000051
Al 1.576432 -0.959754 -5.234242 -0.001147 0.000580 -0.000869
Ga 1.573079 -0.957890 -0.125045 -0.000624 0.002325 -0.004219
Al 3.128349 1.793383 4.914072 0.000333 -0.000765 -0.000086
Al 3.123927 1.767931 -5.225986 0.000134 0.000037 -0.000282
Ga 3.113062 1.777707 -0.151443 -0.000050 -0.001387 0.000698
Al 6.294031 -3.670153 4.919992 -0.000615 0.000620 0.000651
Al 6.291683 -3.691745 -5.226531 -0.000238 0.001001 -0.000804
Al 6.275939 -3.678549 -0.148069 -0.002021 -0.000159 0.002321
Al 4.718713 -0.930711 4.917437 -0.001037 0.001285 0.001079
Al 4.712597 -0.958144 -5.225138 -0.000611 0.000384 0.000127
Al 4.721948 -0.957334 -0.152648 -0.003293 0.000682 0.004097
Al -3.187304 1.787962 4.933390 -0.001942 -0.001007 0.001369
Al -3.182573 1.770597 -5.222411 -0.000339 0.000094 0.000568
Al -3.187153 1.761691 -0.155813 -0.003300 0.000002 0.002354
Al -0.025670 -3.653395 4.934615 -0.003202 0.000525 0.001647
Al -0.014442 -3.686281 -5.227845 -0.000056 0.000882 -0.000433
Ga -0.034834 -3.681128 -0.146091 0.000445 0.001737 0.002369
Ga -1.583917 -0.931154 4.918384 -0.001975 0.001137 0.000480
Al -1.591559 -0.948608 -5.242858 -0.001138 0.000757 0.000802
Al -1.603374 -0.935327 -0.135506 -0.000725 0.000643 0.003502
N 1.550508 0.882064 4.320537 0.000484 -0.000561 0.001329
N 1.550021 0.860522 -5.825251 0.000425 -0.000232 0.000246
N 1.494071 0.883299 -0.774391 0.004839 -0.001787 -0.011029
N 0.011348 3.581799 4.297096 0.001737 -0.000903 -0.001728
N -0.021958 3.577704 -5.815971 -0.000282 -0.000452 0.000589
N -0.025168 3.579153 -0.758854 -0.000317 0.000795 -0.002304
N 3.146723 -1.808219 4.309806 0.000075 0.001017 -0.002977
N 3.145545 -1.871980 -5.818096 -0.000123 -0.000494 -0.000113
N 3.173281 -1.890746 -0.767656 0.002301 -0.001758 -0.002628
N -4.750030 0.882626 4.319249 -0.000870 -0.001532 0.001489
N -4.757920 0.861158 -5.821483 0.001272 -0.000316 0.000105
N -4.733927 0.842568 -0.782714 0.003034 -0.001743 -0.002243
N -6.333554 3.613459 4.323483 -0.000096 -0.000845 0.001852
N -6.330520 3.583822 -5.825824 0.000085 -0.000133 0.000169
N -6.385767 3.615183 -0.804180 0.001305 -0.000018 -0.000713
N -3.196476 -1.867621 4.302442 -0.001913 -0.001058 -0.001972
N -3.167714 -1.870321 -5.817052 0.000202 -0.000156 0.000348
N -3.164080 -1.864527 -0.697283 0.000816 0.001389 -0.001397
N -1.608412 0.938023 4.299916 0.001593 0.001519 -0.002103
N -1.609230 0.873684 -5.821458 0.002013 -0.000549 0.000055
N -1.615295 0.872413 -0.754228 0.000871 -0.000555 0.000749
N -3.235921 3.594601 4.380330 0.003576 -0.003332 -0.002082
N -3.183634 3.589339 -5.813016 0.001342 -0.000844 0.000460
N -3.163088 3.569337 -0.773986 0.003150 -0.002075 0.001328
N 0.026578 -1.855484 4.313874 0.002763 -0.000893 -0.000173
N -0.011828 -1.862467 -5.815317 0.000926 -0.000488 0.000871
N -0.053329 -1.831023 -0.741033 -0.002252 0.000720 -0.000234
N -0.022554 1.775659 1.765142 -0.005184 0.000687 0.003171
N -0.020132 1.787374 6.842132 -0.001232 0.000307 -0.000539
N -0.024645 1.763287 -3.297036 -0.000717 0.000052 -0.000103
N 3.156897 -3.696727 1.780606 -0.002852 0.009820 -0.004494
N 3.151909 -3.666788 6.900237 -0.001239 0.000447 0.003568
N 3.147865 -3.694184 -3.291024 -0.001442 0.000639 0.000003
N 1.570938 -0.922134 1.831879 -0.001041 -0.008498 0.005328
N 1.577172 -0.940796 6.850272 -0.002125 0.000956 -0.000626
N 1.618493 -0.932553 -3.325862 -0.001374 -0.000397 0.002246
N 3.127745 1.785379 1.825186 -0.005087 0.003094 0.004993
N 3.128299 1.792998 6.838309 -0.000292 -0.000039 0.000440
N 3.127334 1.771618 -3.303633 -0.000185 -0.000897 0.000010
N 6.286708 -3.668188 1.776076 -0.001448 -0.000877 -0.000087
N 6.293657 -3.662066 6.845275 -0.000308 0.000442 -0.000433
N 6.290352 -3.723592 -3.314315 -0.000832 -0.002447 -0.000693
N 4.709901 -0.945106 1.785126 -0.002184 -0.001343 -0.003575
N 4.723364 -0.935705 6.845601 -0.001075 0.000326 -0.000707
N 4.681116 -0.941117 -3.309298 -0.002824 0.001719 -0.001517
N -3.296251 1.716226 1.798231 0.044980 0.014002 -0.019694
N -3.179012 1.794058 6.852520 0.000269 -0.000248 0.000409
N -3.180549 1.768724 -3.299394 -0.000338 0.000297 0.000498
N -0.085507 -3.604611 1.849531 0.003197 -0.011404 -0.010538
N -0.013459 -3.654174 6.853306 -0.000434 0.000803 0.001040
N -0.012881 -3.713185 -3.312888 0.000200 -0.003522 -0.000157
N -1.589874 -0.932041 1.801311 -0.001878 0.002253 -0.002628
N -1.584821 -0.930109 6.893388 -0.000890 0.000597 0.003150
N -1.595987 -0.898079 -3.328075 -0.000454 -0.000547 -0.002975
