108
Energy=-573990.754914 Lattice="9.412681 0.000000 0.000000 -4.706745 8.151766 0.000000 -0.000448 0.000168 15.096883" Stress="0.000000 -0.000000 -0.000000 -0.000000 -0.000000 0.000000 -0.000000 0.000000 0.000000" Properties=species:S:1:pos:R:3:forces:R:3
Al 1.545550 0.867109 2.365974 -0.000096 -0.000048 0.000047
Al 1.545356 0.866927 7.397662 -0.000016 -0.000004 -0.000006
Al 1.548071 0.867253 -2.667745 -0.000011 0.000001 -0.000011
Al -0.021805 3.583468 2.366756 -0.000043 0.000006 -0.000030
Al -0.022762 3.583431 7.397986 -0.000027 -0.000004 -0.000013
Al -0.022978 3.584943 -2.668008 -0.000040 -0.000007 -0.000020
Al 3.109466 -1.853083 2.380904 0.000028 -0.000001 -0.000047
Al 3.114824 -1.850840 7.396845 -0.000025 -0.000005 -0.000018
Al 3.110492 -1.854405 -2.678261 -0.000040 -0.000011 -0.000024
Al -4.728568 0.873782 2.379870 0.000039 -0.000080 0.000068
Al -4.728980 0.867158 7.396593 -0.000014 0.000002 -0.000003
Al -4.729974 0.873423 -2.678353 -0.000064 0.000078 0.000013
Al -6.297680 3.585034 2.365770 -0.000033 0.000077 -0.000004
Al -6.302144 3.581927 7.387189 -0.000023 -0.000005 0.000001
Al -6.305421 3.578308 -2.653187 -0.000033 -0.000019 0.000024
Al -3.158600 -1.856604 2.370902 -0.000028 0.000013 -0.000054
Al -3.166998 -1.854986 7.411007 -0.000019 -0.000003 -0.000014
Al -3.154430 -1.853555 -2.679202 -0.000026 -0.000022 -0.000046
Al -1.591221 0.872994 2.355995 -0.000041 -0.000014 -0.000017
Al -1.591439 0.875166 7.412017 -0.000009 -0.000001 -0.000015
Al -1.591839 0.866636 -2.668711 -0.000014 -0.000011 -0.000047
Al -3.161186 3.584229 2.366103 -0.000007 -0.000004 -0.000043
Al -3.156216 3.581748 7.387457 -0.000011 -0.000007 -0.000007
Al -3.151766 3.580078 -2.653300 -0.000031 0.000000 0.000014
Al -0.017513 -1.853243 2.355572 -0.000046 0.000000 -0.000031
Al -0.015639 -1.849841 7.401908 -0.000010 0.000001 -0.000000
Al -0.022243 -1.841409 -2.653952 -0.000030 -0.000007 -0.000032
Al -0.018736 1.779793 4.882784 -0.000058 -0.000005 -0.000012
Al -0.020930 1.773590 -5.179612 -0.000035 -0.000007 -0.000015
Al -0.021257 1.773352 -0.156189 -0.000045 0.000024 -0.000030
Al 3.116167 -3.662970 4.881400 -0.000046 -0.000010 -0.000023
Al 3.123976 -3.663924 -5.185846 -0.000036 -0.000005 -0.000016
Al 3.113027 -3.668588 -0.146228 -0.000074 0.000006 0.000008
Al 1.554270 -0.943721 4.883814 -0.000057 0.000007 -0.000004
Al 1.551574 -0.936559 -5.181514 -0.000045 0.000011 -0.000009
Al 1.541030 -0.942810 -0.149667 -0.000028 -0.000006 -0.000078
Al 3.113559 1.772519 4.881340 -0.000036 -0.000008 0.000024
Al 3.109693 1.766412 -5.186343 -0.000037 -0.000008 0.000027
Al 3.109946 1.778005 -0.143788 0.000035 0.000097 -0.000545
Al 6.247753 -3.669991 4.884045 -0.000044 -0.000001 -0.000023
Al 6.244602 -3.665708 -5.181851 -0.000024 -0.000008 -0.000008
Al 6.255064 -3.669597 -0.149807 0.000014 -0.000020 0.000022
Al 4.675948 -0.944749 4.884947 -0.000035 0.000009 -0.000010
Al 4.682633 -0.944403 -5.182142 -0.000035 0.000004 -0.000026
Ga 4.682509 -0.943791 -0.150744 -0.000008 -0.000054 0.000058
Al -3.163305 1.779810 4.883592 -0.000036 -0.000011 -0.000015
Al -3.155848 1.767702 -5.181764 -0.000024 -0.000010 -0.000019
Al -3.157546 1.778416 -0.149908 0.000049 0.000168 -0.000015
Al -0.018322 -3.668684 4.881717 -0.000032 -0.000004 -0.000026
Ga -0.021649 -3.664522 -5.172310 -0.000036 -0.000010 0.000000
Al -0.022583 -3.663492 -0.155838 -0.000029 -0.000022 -0.000014
Ga -1.590496 -0.943422 4.888924 -0.000070 0.000004 -0.000034
Al -1.593366 -0.937227 -5.185007 -0.000028 0.000010 -0.000025
Al -1.584662 -0.943381 -0.148415 0.000000 -0.000029 0.000139
N 1.544758 0.867004 4.284983 0.000068 -0.000009 -0.000022
N 1.544930 0.867330 -5.781770 0.000035 -0.000011 0.000001
N 1.548152 0.867070 -0.748848 0.000040 -0.000010 0.000001
N -0.022854 3.583419 4.283674 0.000051 0.000000 0.000020
N -0.022078 3.581992 -5.781778 0.000025 0.000003 0.000014
N -0.023539 3.585616 -0.749491 0.000053 -0.000013 0.000037
N 3.112775 -1.852276 4.293797 0.000049 0.000002 0.000010
N 3.114982 -1.851050 -5.779249 0.000038 -0.000004 0.000018
N 3.072830 -1.876180 -0.768916 0.000061 -0.000011 0.000026
N -4.728784 0.869670 4.294808 0.000045 -0.000002 -0.000025
N -4.728585 0.867424 -5.779242 0.000033 -0.000001 0.000007
N -4.730851 0.917836 -0.768771 0.000028 -0.000276 0.000003
N -6.298405 3.584685 4.286459 0.000047 -0.000004 -0.000002
N -6.338591 3.560528 -5.800416 0.000030 0.000012 -0.000009
N -6.301872 3.580500 -0.740251 -0.000006 0.000042 0.000005
N -3.199401 -1.876280 4.276049 0.000052 0.000008 0.000030
N -3.162694 -1.853465 -5.769360 0.000022 0.000003 0.000021
N -3.117830 -1.874956 -0.767971 0.000002 0.000004 0.000052
N -1.591340 0.916266 4.265184 0.000082 -0.000010 0.000011
N -1.590068 0.871705 -5.771823 0.000047 -0.000002 0.000021
N -1.592609 0.866673 -0.748061 0.000024 -0.000007 0.000030
N -3.160227 3.584195 4.284998 0.000054 0.000008 0.000015
N -3.119356 3.560096 -5.800300 0.000047 0.000009 0.000003
N -3.156041 3.582405 -0.740735 0.000093 0.000040 0.000026
N 0.019390 -1.874320 4.266665 0.000072 0.000002 0.000022
N -0.018277 -1.806051 -5.789811 0.000049 -0.000008 0.000007
N -0.022511 -1.846393 -0.739383 0.000046 0.000003 0.000040
N -0.019769 1.774357 1.762432 0.000017 0.000014 0.000022
N -0.023338 1.772459 6.801609 0.000008 0.000000 0.000011
N -0.021525 1.773107 -3.260673 0.000016 -0.000003 0.000026
N 3.116154 -3.660793 1.774079 -0.000001 -0.000009 -0.000007
N 3.117864 -3.661241 6.797636 0.000011 0.000005 0.000015
N 3.115325 -3.665433 -3.269786 0.000021 0.000012 0.000014
N 1.550419 -0.942834 1.767410 0.000023 0.000018 0.000083
N 1.547860 -0.943427 6.799158 -0.000000 0.000010 0.000011
N 1.544702 -0.942847 -3.266186 -0.000001 0.000020 0.000019
N 3.115350 1.772212 1.774202 0.000003 -0.000042 0.000393
N 3.114028 1.770159 6.797205 0.000011 0.000001 0.000001
N 3.112176 1.774685 -3.270223 0.000007 -0.000006 -0.000050
N 6.252346 -3.663672 1.767769 -0.000002 -0.000014 -0.000031
N 6.249911 -3.660867 6.799218 0.000023 0.000003 0.000008
N 6.253210 -3.666361 -3.266587 0.000045 0.000020 0.000020
N 4.681920 -0.943186 1.825965 -0.000093 0.000096 -0.000013
N 4.684089 -0.945071 6.804798 0.000016 0.000009 0.000013
N 4.683425 -0.944386 -3.262678 0.000015 0.000029 0.000051
N -3.163715 1.773477 1.767237 -0.000004 -0.000024 0.000082
N -3.159510 1.770013 6.798873 0.000015 -0.000000 0.000006
N -3.158262 1.775121 -3.266461 0.000019 -0.000006 -0.000001
N -0.022790 -3.664658 1.764620 0.000031 -0.000019 0.000005
N -0.022500 -3.661478 6.801347 0.000017 0.000010 0.000002
N -0.022340 -3.662822 -3.197130 0.000018 0.000019 0.000018
N -1.592521 -0.944554 1.773233 0.000022 0.000021 -0.000124
N -1.593576 -0.943402 6.861308 0.000019 0.000010 0.000022
N -1.588108 -0.943279 -3.267810 0.000029 0.000010 0.000032
