108
Energy=-1.535275e+06 Lattice="9.525184e+00 0.000000e+00 0.000000e+00 -4.778416e+00 8.243091e+00 0.000000e+00 1.056499e-02 -2.640017e-02 1.542277e+01" Stress="-4.115293e-03 4.377525e-04 -4.711025e-04 4.340708e-04 -2.071748e-03 -1.214167e-03 -4.730026e-04 -1.202369e-03 6.163595e-03" Properties=species:S:1:pos:R:3:forces:R:3 Config_type=AlGaN_super3_24_2_3.xyz
Al 1.561660e+00 8.653028e-01 2.486640e+00 6.396690e-04 1.695751e-03 1.129300e-03
Al 1.559797e+00 8.761093e-01 7.564135e+00 2.614190e-03 -7.370034e-03 -1.469483e-03
Al 1.552633e+00 8.924112e-01 -2.776891e+00 3.193460e-03 5.068529e-04 4.687480e-03
Al -9.293879e-02 3.607192e+00 2.461846e+00 2.397989e-02 5.158853e-03 6.020100e-03
Al -2.377384e-02 3.606574e+00 7.570794e+00 5.918176e-04 1.499761e-03 3.136241e-04
Ga -1.921024e-02 3.618386e+00 -2.796808e+00 -1.050647e-04 1.188916e-05 6.275374e-03
Ga 3.168189e+00 -1.885494e+00 2.413948e+00 6.407221e-04 -1.437563e-04 6.152806e-03
Al 3.160799e+00 -1.887792e+00 7.578059e+00 8.975769e-03 -6.530330e-03 2.182575e-03
Ga 3.167775e+00 -1.859714e+00 -2.762664e+00 9.722492e-04 -2.634147e-03 5.753512e-03
Ga -4.777358e+00 8.809863e-01 2.464515e+00 8.525191e-04 -1.794543e-03 -7.983364e-04
Al -4.804725e+00 8.638477e-01 7.578321e+00 3.251617e-03 -1.671873e-03 -1.371019e-03
Ga -4.814504e+00 8.912683e-01 -2.766161e+00 4.515807e-04 -1.152334e-03 3.178292e-03
Ga -6.375545e+00 3.602404e+00 2.479821e+00 -1.952953e-03 2.862073e-03 -3.490100e-04
Al -6.379640e+00 3.600821e+00 7.577726e+00 -1.943070e-03 2.220528e-03 1.427121e-03
Al -6.390756e+00 3.632829e+00 -2.798117e+00 3.388147e-04 -1.770448e-03 5.738684e-03
Ga -3.182667e+00 -1.887721e+00 2.447000e+00 1.980005e-03 -2.675308e-03 3.035371e-03
Al -3.202394e+00 -1.892579e+00 7.587837e+00 7.076094e-04 -2.458056e-03 1.496347e-03
Ga -3.191836e+00 -1.861421e+00 -2.788307e+00 6.366700e-04 -1.198240e-03 6.245269e-03
Al -1.608455e+00 8.987646e-01 2.516027e+00 3.100588e-03 -4.236780e-03 -1.096779e-03
Al -1.609846e+00 8.808255e-01 7.554050e+00 -1.934834e-03 -3.626135e-03 -1.799089e-03
Ga -1.622112e+00 8.994120e-01 -2.770858e+00 4.344361e-03 -1.525452e-03 4.229994e-03
Al -3.184727e+00 3.615494e+00 2.433724e+00 -3.149659e-03 1.176985e-03 3.914322e-03
Al -3.216051e+00 3.609853e+00 7.572241e+00 4.684385e-03 -9.330076e-04 5.732086e-04
Ga -3.225271e+00 3.647869e+00 -2.772395e+00 3.693419e-03 2.867270e-04 5.767062e-03
Ga 6.317726e-03 -1.869917e+00 2.455664e+00 5.606755e-04 -2.542886e-03 2.920015e-03
Ga -8.451816e-03 -1.898982e+00 7.581253e+00 4.174511e-03 2.441092e-03 4.674324e-04
Ga -2.946085e-02 -1.850154e+00 -2.767049e+00 2.555423e-03 -9.462948e-04 4.102272e-03
Al -9.979643e-03 1.769405e+00 5.023100e+00 -5.513730e-03 2.141887e-03 -2.429316e-03
Al -2.734673e-02 1.806162e+00 -5.328899e+00 -2.896343e-03 1.054082e-03 -5.958298e-03
Ga -2.428360e-02 1.794738e+00 -1.475226e-01 -8.858003e-04 1.465959e-03 1.447095e-02
Ga 3.168153e+00 -3.727308e+00 5.024559e+00 -1.527580e-03 -3.412819e-03 2.195667e-03
Al 3.166709e+00 -3.694511e+00 -5.340298e+00 -2.440264e-03 1.579505e-04 -2.433050e-03
Al 3.161964e+00 -3.698874e+00 -1.768839e-01 2.823330e-05 1.266781e-03 5.500120e-03
Al 1.605297e+00 -9.777524e-01 5.026527e+00 -5.056528e-03 2.943758e-03 2.644208e-03
Ga 1.585022e+00 -9.401775e-01 -5.312768e+00 -4.039753e-03 1.134855e-04 -3.131096e-03
Al 1.587421e+00 -9.461229e-01 -1.789662e-01 -2.359749e-03 1.358258e-03 7.104958e-03
Al 3.141350e+00 1.779518e+00 5.053994e+00 1.479686e-03 -1.573285e-03 -2.975162e-03
Al 3.122102e+00 1.810430e+00 -5.327990e+00 2.255434e-03 -1.438644e-05 5.087982e-04
Ga 3.129929e+00 1.795245e+00 -1.700072e-01 1.302799e-04 2.083171e-03 7.186965e-03
Al 6.351161e+00 -3.728797e+00 5.039398e+00 -5.748507e-03 -4.746704e-03 1.529914e-03
Al 6.331691e+00 -3.692456e+00 -5.317759e+00 1.749954e-04 6.648448e-04 -1.069169e-02
Ga 6.323299e+00 -3.690710e+00 -1.688957e-01 1.652793e-03 -2.243219e-03 7.702119e-03
Ga 4.755829e+00 -9.774006e-01 5.047286e+00 8.400340e-04 1.030662e-03 9.840812e-04
Al 4.747962e+00 -9.512971e-01 -5.334712e+00 -1.022522e-03 1.290582e-03 -5.855652e-03
Al 4.745514e+00 -9.551238e-01 -1.695013e-01 -1.699289e-03 1.210891e-03 7.199245e-03
Al -3.277540e+00 1.800649e+00 5.038186e+00 3.304584e-02 5.559342e-03 2.869984e-03
Ga -3.214048e+00 1.806976e+00 -5.342558e+00 -9.088376e-04 -3.373059e-04 -8.862562e-04
Ga -3.209631e+00 1.809522e+00 -1.420100e-01 -1.170970e-03 2.736998e-04 3.486086e-03
Al -2.180248e-02 -3.730373e+00 5.048672e+00 5.264432e-03 2.657327e-03 -5.399734e-03
Al -3.018669e-02 -3.721003e+00 -5.283320e+00 -7.374232e-04 8.838575e-03 -1.858206e-02
Ga -1.766110e-02 -3.681942e+00 -1.578516e-01 -2.639090e-03 -2.033600e-03 1.902518e-03
Ga -1.592571e+00 -9.952115e-01 5.047934e+00 -9.353041e-04 8.199392e-03 -2.559189e-03
Al -1.608187e+00 -9.397541e-01 -5.332655e+00 -3.245505e-03 7.948965e-04 -2.697776e-03
Ga -1.606233e+00 -9.377639e-01 -1.331364e-01 -1.647351e-03 1.051124e-03 2.110470e-03
N 1.572971e+00 8.550599e-01 4.429839e+00 3.091408e-03 -2.449686e-03 -9.505759e-04
N 1.545524e+00 9.314527e-01 -5.937366e+00 2.007991e-03 6.127436e-04 -5.307500e-03
N 1.548666e+00 8.608782e-01 -8.280315e-01 -2.124422e-04 -7.897620e-03 -4.257814e-03
N 6.196444e-03 3.592027e+00 4.405938e+00 3.222487e-03 -7.793706e-04 -3.027935e-03
N -3.212724e-02 3.634416e+00 -5.922524e+00 5.061232e-04 -4.965083e-04 -6.968124e-04
N -5.789824e-02 3.640839e+00 -8.013027e-01 -6.334162e-03 1.488490e-03 7.325548e-04
N 3.147966e+00 -1.874497e+00 4.410675e+00 -2.630159e-03 2.693319e-03 -5.995522e-03
N 3.183859e+00 -1.876024e+00 -5.932841e+00 4.774067e-03 -3.268949e-03 -1.423701e-03
N 3.165454e+00 -1.866489e+00 -7.598894e-01 -7.869916e-05 -1.082072e-03 4.801976e-03
N -4.755522e+00 8.989624e-01 4.449211e+00 -2.395001e-02 -1.877223e-03 -1.610326e-03
N -4.837551e+00 8.781713e-01 -5.934582e+00 -5.214326e-03 -4.113770e-03 -2.850036e-04
N -4.802948e+00 8.570596e-01 -7.788772e-01 2.778937e-03 -7.161779e-03 9.299768e-04
N -6.377279e+00 3.606088e+00 4.464247e+00 1.512563e-03 -1.237051e-03 4.238787e-03
N -6.389696e+00 3.632527e+00 -5.913424e+00 6.011436e-04 -1.300784e-04 -2.519854e-03
N -6.387501e+00 3.638252e+00 -8.511394e-01 1.197879e-03 -7.382186e-04 -6.498140e-03
N -3.188421e+00 -1.941963e+00 4.429554e+00 1.257757e-03 -4.849641e-04 -2.210060e-03
N -3.193882e+00 -1.860516e+00 -5.916928e+00 -3.063004e-04 -7.270009e-04 9.828623e-04
N -3.217866e+00 -1.843342e+00 -7.927365e-01 -4.115082e-03 3.659668e-03 -2.342820e-04
N -1.629661e+00 8.945172e-01 4.445265e+00 -2.449404e-03 5.836968e-03 -3.106434e-03
N -1.601143e+00 8.869298e-01 -5.947735e+00 8.480932e-03 -4.749815e-03 -1.466264e-03
N -1.629519e+00 8.993901e-01 -7.937984e-01 4.182996e-03 -1.801500e-03 -1.209702e-04
N -3.237566e+00 3.613606e+00 4.369297e+00 -5.597029e-03 -6.103112e-03 2.154261e-03
N -3.222989e+00 3.671583e+00 -5.934517e+00 2.079074e-03 6.647411e-03 -8.743662e-04
N -3.191879e+00 3.661119e+00 -7.864314e-01 7.681855e-03 1.074424e-03 -5.305865e-04
N 3.573938e-02 -1.903028e+00 4.445085e+00 2.503105e-03 -4.526518e-03 2.115758e-03
N -5.151240e-02 -1.872696e+00 -5.883608e+00 -1.510881e-04 -7.282198e-03 5.007957e-03
N -1.150880e-03 -1.834639e+00 -7.793726e-01 7.958879e-03 2.687744e-03 1.956890e-04
N -8.838774e-03 1.807425e+00 1.971571e+00 -5.473992e-03 -1.181373e-02 -2.308069e-02
N -1.558541e-02 1.786120e+00 6.958136e+00 -1.180203e-03 -3.851285e-03 -1.581148e-03
N 7.185996e-03 1.772240e+00 -3.432315e+00 6.566390e-04 -1.166450e-03 3.871325e-03
N 3.172739e+00 -3.748636e+00 1.790425e+00 -7.226259e-03 -2.450157e-03 -6.519228e-03
N 3.164996e+00 -3.723664e+00 7.000289e+00 -1.679675e-03 -1.418974e-03 5.835770e-03
N 3.166169e+00 -3.697673e+00 -3.424891e+00 -2.671574e-03 7.781870e-04 -3.880522e-03
N 1.591013e+00 -9.263432e-01 1.802881e+00 -3.503291e-03 8.531044e-03 -1.394901e-02
N 1.654183e+00 -9.917620e-01 6.951961e+00 -1.484180e-02 1.757437e-02 -1.336917e-03
N 1.586551e+00 -9.151104e-01 -3.358382e+00 -4.012368e-03 6.030306e-03 4.712646e-03
N 3.118913e+00 1.764539e+00 1.849226e+00 -3.596963e-03 -3.872630e-03 -5.632986e-03
N 3.143765e+00 1.779013e+00 6.977743e+00 6.805209e-04 -1.156637e-04 -3.054412e-03
N 3.109401e+00 1.817089e+00 -3.396655e+00 -5.193715e-03 3.176694e-03 -1.148808e-03
N 6.316786e+00 -3.744467e+00 1.837607e+00 -1.079946e-02 -1.623943e-03 -3.994192e-03
N 6.338633e+00 -3.717962e+00 6.977054e+00 4.215265e-04 -1.529695e-03 -1.115865e-03
N 6.364424e+00 -3.709651e+00 -3.434025e+00 3.464244e-03 -1.586913e-03 6.834716e-03
N 4.764520e+00 -9.639824e-01 1.795999e+00 -9.789844e-04 3.798093e-03 -1.476555e-02
N 4.747169e+00 -9.795632e-01 7.015630e+00 5.375785e-04 3.360067e-03 4.133066e-03
N 4.746905e+00 -9.479425e-01 -3.437963e+00 -1.068333e-03 2.355627e-03 1.289575e-03
N -3.155586e+00 1.803508e+00 1.855915e+00 2.094917e-03 2.624719e-03 -1.157909e-03
N -3.214041e+00 1.782004e+00 6.972221e+00 -1.542045e-03 8.601673e-04 -8.158023e-04
N -3.214313e+00 1.808707e+00 -3.383394e+00 -1.461096e-03 5.306245e-05 1.005082e-03
N 2.014060e-02 -3.733200e+00 1.822661e+00 2.810887e-03 -9.648955e-04 1.477862e-03
N -1.479274e-02 -3.754556e+00 6.968797e+00 -1.138720e-03 -7.462281e-03 -6.828456e-03
N -5.180278e-02 -3.701306e+00 -3.422006e+00 -5.153339e-03 -3.335737e-03 1.173516e-02
N -1.583720e+00 -9.161245e-01 1.857689e+00 -3.203207e-03 7.530250e-03 -7.342308e-04
N -1.636753e+00 -9.794113e-01 7.010731e+00 -1.655392e-03 1.097942e-02 1.414092e-03
N -1.606809e+00 -9.362543e-01 -3.418347e+00 -1.335941e-03 1.300782e-03 -5.280497e-03
