108
Energy=-894419.032633 Lattice="9.460837 0.000000 0.000000 -4.737584 8.185226 0.000000 -0.002534 0.000066 15.239218" Stress="0.000022 -0.000002 -0.000000 -0.000002 0.000018 0.000001 -0.000000 0.000001 0.000039" Properties=species:S:1:pos:R:3:forces:R:3
Al 1.562869 0.871114 2.422579 -0.001340 -0.000726 0.001009
Al 1.549803 0.867967 7.469748 0.000328 0.000088 0.000714
Al 1.550816 0.864947 -2.722929 0.000121 -0.000305 -0.000673
Al -0.025441 3.611953 2.412404 -0.000054 -0.001508 -0.000634
Al -0.020781 3.593489 7.452583 -0.000204 0.000054 0.000353
Al -0.012833 3.587786 -2.694971 -0.000225 0.000489 0.000797
Al 3.134646 -1.857727 2.389673 0.001161 -0.000297 0.000594
Al 3.131228 -1.858435 7.469900 -0.000352 0.000010 0.000488
Al 3.134618 -1.846217 -2.688773 -0.000042 0.001190 0.001001
Al -4.761410 0.867496 2.403756 -0.001603 -0.001226 0.001416
Al -4.765148 0.875112 7.489075 0.000100 0.000081 0.000011
Al -4.765559 0.866003 -2.713037 0.000495 -0.000151 -0.001373
Al -6.340311 3.596125 2.412904 0.000695 0.000067 0.000426
Al -6.334746 3.598842 7.466130 -0.000120 -0.000050 0.000304
Al -6.339030 3.596416 -2.710054 -0.000053 -0.000079 0.000001
Al -3.173006 -1.856428 2.383234 -0.000961 -0.000553 0.000486
Al -3.172599 -1.864087 7.474536 -0.000072 0.000005 0.000311
Ga -3.179819 -1.866651 -2.686175 -0.000170 0.000354 0.000529
Al -1.598379 0.874239 2.416616 -0.000009 -0.002692 -0.000411
Al -1.601906 0.878231 7.468626 0.000778 -0.000205 0.000214
Al -1.596577 0.877906 -2.706008 0.000439 -0.000133 0.000418
Al -3.180638 3.612697 2.393074 0.002889 -0.003839 0.001133
Al -3.186969 3.606243 7.476556 0.000010 -0.000285 -0.000268
Ga -3.187700 3.603655 -2.690139 0.000135 -0.000581 -0.000199
Ga -0.020067 -1.856672 2.399780 -0.000026 0.000905 0.001249
Al -0.014848 -1.857848 7.455629 0.000354 -0.000335 -0.000044
Al -0.007494 -1.853939 -2.685109 0.000079 -0.000287 0.000284
Al -0.016783 1.778113 4.936829 0.000549 -0.000140 -0.000019
Al -0.016109 1.778960 -5.242213 -0.000115 0.000409 0.000716
Ga -0.019552 1.777265 -0.135088 -0.000519 0.000191 -0.001847
Al 3.132362 -3.676454 4.939048 -0.000221 0.000666 0.000503
Ga 3.143026 -3.678670 -5.241099 0.000096 0.000431 0.000369
Al 3.145734 -3.662696 -0.144865 -0.000043 0.000142 -0.000326
Al 1.556928 -0.950448 4.949690 -0.000484 0.000967 -0.000116
Al 1.565139 -0.948451 -5.240430 -0.000730 0.000183 0.000886
Al 1.565143 -0.962218 -0.159469 -0.000664 0.000385 0.000300
Al 3.112217 1.787291 4.946374 -0.000421 0.000086 0.000162
Al 3.126032 1.781998 -5.240700 0.000050 -0.000014 0.000276
Ga 3.121915 1.777942 -0.149587 0.000236 0.000153 -0.000582
Al 6.293354 -3.680005 4.936060 0.000255 0.000291 -0.000031
Al 6.293034 -3.692260 -5.249683 0.000132 0.000034 0.000801
Al 6.291303 -3.669320 -0.137450 -0.000325 -0.002291 0.000281
Ga 4.708253 -0.957164 4.940578 -0.000299 -0.000226 0.000198
Al 4.703526 -0.943323 -5.246728 -0.000214 -0.000021 0.000392
Al 4.706060 -0.962300 -0.135167 -0.000374 0.000203 -0.000237
Ga -3.181710 1.792906 4.938073 -0.000130 0.000179 0.000585
Al -3.190620 1.778482 -5.245472 0.000124 -0.000200 -0.000098
Ga -3.183484 1.771030 -0.125067 0.000250 -0.000215 -0.001744
Al -0.026112 -3.672603 4.947867 -0.000143 -0.000147 -0.000102
Al -0.029648 -3.677161 -5.247058 -0.000142 0.000052 0.000286
Al -0.030599 -3.665069 -0.144375 0.000132 -0.000261 -0.000452
Al -1.590887 -0.951145 4.954167 -0.000436 -0.000329 0.000087
Ga -1.587528 -0.947977 -5.243973 -0.000304 -0.000034 0.000819
Al -1.593494 -0.956064 -0.154626 -0.000330 0.000534 -0.000289
N 1.552711 0.863563 4.345983 -0.000004 0.000668 -0.000892
N 1.551667 0.867243 -5.839135 0.000323 0.000084 -0.000289
N 1.548372 0.820696 -0.811712 0.000578 -0.000035 0.000755
N -0.026493 3.603712 4.340491 -0.000175 -0.000081 -0.000671
N 0.017399 3.570962 -5.872058 -0.000047 -0.000199 -0.000933
N -0.018294 3.641864 -0.771101 -0.000032 0.000162 0.000306
N 3.091986 -1.881422 4.311660 -0.000088 -0.000450 -0.000903
N 3.133305 -1.815735 -5.861896 -0.000153 0.000373 -0.000585
N 3.139621 -1.857798 -0.758639 -0.000262 0.000239 -0.000070
N -4.805570 0.894129 4.310172 0.001148 -0.000139 -0.001124
N -4.762815 0.872218 -5.835191 0.000391 0.000205 -0.000024
N -4.757814 0.819144 -0.800278 0.000195 -0.000019 0.001589
N -6.333498 3.600861 4.339160 -0.000286 0.000130 -0.000721
N -6.332245 3.596981 -5.850955 -0.000069 -0.000066 -0.000416
N -6.336086 3.644216 -0.786425 -0.000124 0.000535 0.000792
N -3.128768 -1.878569 4.309849 0.000091 -0.000197 -0.000975
N -3.210036 -1.885344 -5.849883 -0.000252 0.000074 -0.000337
N -3.176509 -1.864727 -0.699652 -0.000108 0.001873 -0.000133
N -1.564859 0.846947 4.330645 0.000721 -0.000361 -0.000686
N -1.601350 0.922643 -5.858665 0.000606 -0.000257 -0.000332
N -1.604834 0.833719 -0.794341 0.000760 -0.000917 0.000030
N -3.184399 3.658103 4.313723 0.000446 -0.000709 -0.000860
N -3.222872 3.580919 -5.850649 0.000237 -0.000051 0.000540
N -3.183150 3.645593 -0.712827 0.000470 -0.000203 0.000265
N -0.020625 -1.854397 4.386704 -0.000088 -0.000299 0.000100
N 0.026181 -1.879452 -5.869698 0.000326 -0.000290 -0.000776
N -0.016549 -1.859507 -0.753845 0.000342 -0.000069 0.000256
N -0.015339 1.779411 1.847745 -0.001458 0.001435 0.002151
N -0.023140 1.775125 6.858470 -0.000144 0.000243 -0.000946
N -0.025502 1.779689 -3.313819 0.000028 0.000663 -0.000118
N 3.139344 -3.674137 1.784328 0.000438 -0.000826 0.000362
N 3.133139 -3.679601 6.868737 -0.000081 0.000252 -0.000756
N 3.179637 -3.649720 -3.267187 0.000329 -0.001728 0.000076
N 1.598939 -0.920148 1.767738 -0.000726 -0.000218 -0.001118
N 1.563611 -0.948330 6.865809 -0.000603 0.000407 -0.000696
N 1.560341 -0.958126 -3.310769 -0.000352 0.000303 -0.000204
N 3.122679 1.779515 1.839408 0.001110 0.001213 -0.001101
N 3.124443 1.779688 6.871496 0.000066 -0.000011 -0.000459
N 3.127441 1.782133 -3.313389 -0.000074 0.000120 0.000198
N 6.288918 -3.681545 1.791307 0.000617 -0.000240 0.001037
N 6.289975 -3.675853 6.857921 0.000120 -0.000041 -0.000872
N 6.286829 -3.725511 -3.332315 0.000049 -0.000329 -0.000298
N 4.708056 -0.947833 1.793699 -0.000368 -0.000116 0.000114
N 4.712545 -0.946898 6.918575 -0.000202 -0.000146 -0.000471
N 4.672967 -0.931024 -3.329000 -0.000715 -0.000046 -0.000404
N -3.183804 1.767714 1.854206 0.002444 0.004531 0.001729
N -3.186778 1.783447 6.917526 0.000251 -0.000196 -0.000173
N -3.181635 1.737306 -3.326122 0.000083 -0.000180 -0.000013
N -0.019032 -3.727069 1.775583 -0.004601 0.001434 -0.000925
N -0.022932 -3.679441 6.865014 0.000060 -0.000112 -0.000348
N -0.063392 -3.648631 -3.327633 0.000024 0.000200 0.000053
N -1.634271 -0.925450 1.764480 0.001287 0.002342 0.000365
N -1.600605 -0.945757 6.877994 -0.000476 -0.000005 -0.000349
N -1.554006 -0.929816 -3.269308 -0.000337 0.000032 0.000305
