108
Energy=-2725438.981113 Lattice="9.692964 0.000000 0.000000 -4.868722 8.381801 0.000000 -0.066122 -0.012043 15.745461" Stress="0.000014 -0.000005 -0.000013 -0.000005 0.000006 -0.000003 -0.000013 -0.000003 0.000035" Properties=species:S:1:pos:R:3:forces:R:3
Al 1.570444 0.902822 2.492089 0.001450 0.001174 -0.000015
Ga 1.555238 0.892790 7.720249 0.000879 -0.000309 0.000868
Ga 1.603952 0.883673 -2.781102 0.001189 0.000071 0.001164
Ga -0.046685 3.688710 2.483049 0.000851 -0.000004 -0.000118
Al -0.066117 3.676957 7.719077 0.000590 0.000052 0.001294
Ga -0.016274 3.673170 -2.777585 0.000685 0.000154 0.001257
Ga 3.195936 -1.882796 2.491633 0.001274 -0.000482 -0.000436
Ga 3.190429 -1.905354 7.720075 0.000415 -0.000584 0.000965
Ga 3.234078 -1.912448 -2.781264 0.000647 -0.000102 0.000973
Ga -4.904653 0.908402 2.482180 0.001411 -0.000511 -0.000504
Al -4.911441 0.885371 7.720027 0.000558 0.001656 0.001234
Ga -4.861896 0.887038 -2.776267 0.000540 -0.000015 0.001163
Ga -6.519196 3.690873 2.490951 0.000633 0.000166 -0.000545
Ga -6.534375 3.672412 7.721465 0.000014 0.000324 0.000422
Ga -6.478965 3.675390 -2.780008 0.000007 0.000072 0.000928
Ga -3.257193 -1.884595 2.472061 -0.000044 -0.000574 0.000902
Ga -3.288963 -1.902213 7.722969 0.000437 -0.000760 0.000943
Ga -3.223982 -1.904197 -2.771792 -0.000120 -0.000656 0.001548
Ga -1.657268 0.902144 2.467227 0.001441 -0.000762 0.001017
Ga -1.688383 0.900220 7.722521 0.001964 -0.000461 -0.000041
Ga -1.631434 0.884485 -2.767191 0.001343 0.000031 0.000452
Ga -3.282649 3.703789 2.494976 0.000860 -0.000736 -0.001207
Ga -3.299812 3.675960 7.726087 0.001040 0.000243 0.000001
Ga -3.248439 3.681561 -2.781390 0.000446 -0.000266 0.000068
Ga -0.038538 -1.871626 2.465553 0.001955 -0.001217 0.000429
Ga -0.052423 -1.899475 7.723291 0.000842 -0.000909 0.001283
Ga -0.005465 -1.898884 -2.758145 0.001118 -0.001007 0.001734
Ga -0.050119 1.823308 5.099971 -0.000201 0.000308 0.001021
Ga -0.003041 1.824747 -5.412307 -0.000541 0.001212 0.001347
Ga -0.016317 1.788996 -0.142880 -0.001045 0.002265 0.002975
Ga 3.201723 -3.768358 5.119298 -0.000627 0.000731 0.000513
Ga 3.254535 -3.771306 -5.412925 -0.000126 0.000404 0.000703
Ga 3.230724 -3.786908 -0.149188 -0.000975 0.001841 0.002067
Ga 1.574256 -0.968040 5.094731 -0.000927 0.001631 0.000338
Ga 1.627341 -0.976112 -5.395919 -0.000877 0.000896 0.000429
Ga 1.607991 -0.986144 -0.138220 -0.001964 0.001558 0.002568
Ga 3.173525 1.818140 5.103498 -0.000598 0.000553 0.001812
Ga 3.231869 1.817472 -5.415921 0.000202 0.000480 0.001276
Ga 3.204613 1.800536 -0.136611 -0.000843 0.001865 0.001360
Ga 6.417254 -3.762095 5.114359 0.000588 0.000127 0.000534
Ga 6.468847 -3.767465 -5.411255 -0.000076 -0.000010 0.001167
Ga 6.464494 -3.776040 -0.154371 -0.000712 0.001582 0.003193
Ga 4.807492 -0.962385 5.114744 -0.000514 0.000154 0.000366
Ga 4.857465 -0.965404 -5.408808 -0.000515 0.000904 0.000816
Ga 4.848212 -0.991001 -0.155283 -0.001155 0.001063 0.003585
Ga -3.292527 1.823757 5.109591 -0.000248 0.000494 0.001341
Ga -3.242435 1.820909 -5.412603 -0.000883 0.000292 0.001691
Ga -3.248437 1.801111 -0.159252 -0.001423 0.001946 0.004104
Ga -0.039984 -3.754331 5.103509 -0.000495 -0.000112 0.000838
Ga 0.012362 -3.757275 -5.398073 -0.000513 -0.000185 0.001097
Ga -0.007869 -3.773376 -0.153460 -0.000860 0.001629 0.003199
Ga -1.657346 -0.964981 5.100359 -0.000992 0.000375 0.001881
Ga -1.603863 -0.967316 -5.400719 -0.001206 0.000276 0.001406
Al -1.626660 -0.974766 -0.140391 -0.001291 -0.002474 -0.003479
N 1.559955 0.897490 4.424554 0.000884 -0.000485 -0.001917
N 1.610266 0.890347 -6.039729 0.000826 -0.000430 -0.000639
N 1.596028 0.873850 -0.795671 0.000957 0.000063 -0.000649
N -0.058914 3.688470 4.465378 0.000247 -0.000121 -0.000757
N -0.006183 3.683985 -6.093404 0.000297 -0.000271 -0.001879
N -0.023209 3.662952 -0.788943 0.000373 -0.000133 0.000522
N 3.193293 -1.900091 4.478600 0.000659 -0.000778 -0.000290
N 3.241598 -1.900568 -6.038833 0.000439 -0.000403 -0.000543
N 3.223208 -1.919427 -0.792758 0.000316 0.000112 0.000908
N -4.903725 0.897650 4.463726 0.000708 -0.000195 -0.000827
N -4.850739 0.894329 -6.093908 0.000526 -0.000535 -0.001653
N -4.871722 0.877729 -0.789524 0.000566 0.000331 -0.000017
N -6.524139 3.689712 4.479494 -0.000103 0.000033 -0.000947
N -6.468773 3.688553 -6.037463 -0.000075 0.000011 -0.000839
N -6.486354 3.665460 -0.790589 0.000150 0.000065 -0.000214
N -3.271442 -1.894613 4.468148 0.000038 -0.000597 -0.001315
N -3.219958 -1.897686 -6.036901 0.000215 -0.000441 -0.000856
N -3.197054 -1.892044 -0.772634 0.001474 0.000470 -0.001010
N -1.675022 0.899594 4.463150 0.001020 -0.000438 -0.001317
N -1.623163 0.898915 -6.039400 0.000926 -0.000824 -0.000950
N -1.638053 0.831865 -0.769714 0.001242 0.000902 -0.000624
N -3.290057 3.694419 4.480788 0.000496 -0.000548 -0.000771
N -3.241814 3.692089 -6.035260 0.000099 -0.000553 -0.000648
N -3.257260 3.674079 -0.796514 0.000062 -0.000408 0.000459
N -0.048162 -1.889112 4.455799 0.000736 -0.001083 -0.001278
N 0.008333 -1.893456 -6.036472 0.000471 -0.000965 -0.001237
N -0.049585 -1.883938 -0.757994 0.000039 -0.000186 -0.001031
N 0.004245 1.807956 1.866299 -0.001013 -0.001228 -0.002802
N -0.056921 1.859375 7.097254 -0.001376 0.001433 -0.000417
N -0.010130 1.812111 -3.419846 -0.001185 0.000498 -0.000706
N 3.206944 -3.751683 1.847503 -0.000365 -0.000916 -0.001906
N 3.229460 -3.794989 7.109424 -0.000168 -0.000189 -0.000003
N 3.244230 -3.777267 -3.423150 -0.000636 0.000401 -0.000934
N 1.592479 -0.904301 1.873301 -0.001245 -0.002467 -0.003903
N 1.569878 -0.976938 7.081207 -0.000886 0.000668 -0.001135
N 1.619765 -0.983015 -3.409701 -0.001355 0.000116 -0.000773
N 3.142736 1.813560 1.863467 -0.000490 -0.001280 -0.000844
N 3.206938 1.791507 7.099578 0.000689 -0.000056 -0.000688
N 3.222455 1.812865 -3.425099 -0.000444 0.000301 -0.001238
N 6.434853 -3.750957 1.847168 0.000337 -0.001431 -0.003291
N 6.376359 -3.790257 7.107728 -0.000792 -0.000313 -0.000658
N 6.465948 -3.771595 -3.416660 -0.000149 0.000201 -0.001047
N 4.816184 -0.957359 1.847604 -0.000312 -0.001065 -0.003652
N 4.799096 -0.923278 7.107265 -0.000510 -0.000859 -0.001457
N 4.852255 -0.975152 -3.416382 -0.000608 -0.000409 -0.001069
N -3.276755 1.840769 1.845587 -0.000123 -0.001341 -0.003101
N -3.335660 1.796509 7.103596 -0.001437 -0.000116 -0.000669
N -3.243629 1.814083 -3.418153 -0.000369 0.000319 -0.000695
N -0.027448 -3.749088 1.850891 -0.000458 -0.001452 -0.002828
N -0.046474 -3.765272 7.088921 -0.000269 -0.000116 -0.000872
N 0.005308 -3.764128 -3.407841 -0.000361 0.000307 -0.000694
N -1.646085 -0.961138 1.771774 -0.001398 0.001576 0.004072
N -1.664462 -0.971612 7.086383 -0.001210 0.000477 -0.000901
N -1.610401 -0.974093 -3.413933 -0.001067 -0.000042 -0.001402
