108
Energy=-1031744.333235 Lattice="9.475483 0.000000 0.000000 -4.744174 8.201141 0.000000 -0.001588 0.000623 15.291395" Stress="-0.000005 0.000018 -0.000003 0.000018 0.000022 0.000004 -0.000003 0.000004 0.000043" Properties=species:S:1:pos:R:3:forces:R:3
Al 1.549712 0.874846 2.432552 0.003232 -0.002598 -0.002066
Al 1.543450 0.875364 7.501088 0.001872 -0.001685 -0.000470
Al 1.550063 0.872344 -2.737099 -0.002914 -0.006938 0.001996
Al -0.036628 3.603805 2.427612 0.023026 -0.025668 0.021519
Al -0.015326 3.603770 7.503869 -0.000054 -0.001981 0.002901
Al 0.049170 3.598693 -2.732957 -0.031376 -0.001112 -0.004461
Al 3.131842 -1.876103 2.433783 0.010832 -0.004103 0.007083
Al 3.159683 -1.865769 7.509596 -0.000322 -0.000650 0.003547
Al 3.135654 -1.875352 -2.713418 0.006356 -0.001671 -0.018572
Al -4.772770 0.873964 2.435816 -0.003199 0.001769 0.001317
Al -4.774480 0.872242 7.495109 -0.000690 -0.001926 0.000218
Ga -4.776215 0.872126 -2.748640 0.004611 -0.005653 0.003220
Al -6.345956 3.609950 2.434085 0.007174 -0.010035 0.007253
Al -6.354803 3.617166 7.497271 0.000283 -0.002892 0.000420
Ga -6.362432 3.601025 -2.746926 0.004679 0.003333 0.004830
Ga -3.176418 -1.888492 2.440210 -0.002760 -0.000581 0.003112
Al -3.173634 -1.862204 7.505147 0.000241 -0.000657 0.001385
Ga -3.192018 -1.866528 -2.768862 0.003814 0.004378 0.007201
Al -1.624632 0.878844 2.434456 0.006949 0.002003 0.001964
Al -1.627788 0.882654 7.501980 0.007040 -0.001450 0.002006
Al -1.618726 0.929551 -2.698349 0.006153 -0.013182 -0.017137
Al -3.192721 3.617813 2.438934 0.007880 -0.000396 0.002008
Ga -3.203440 3.615273 7.519442 0.005672 0.001454 0.000635
Ga -3.183921 3.609125 -2.767212 0.007820 0.003819 -0.000450
Al -0.022491 -1.847988 2.429926 0.013621 -0.007269 0.002725
Al -0.032481 -1.851826 7.509107 0.004614 0.000496 0.001642
Ga -0.028454 -1.844482 -2.760063 0.000997 0.001812 0.003543
Al -0.024461 1.790204 4.975876 -0.004694 0.001447 0.000761
Al -0.025773 1.780736 -5.270373 -0.005364 0.001036 0.000596
Al -0.024507 1.777903 -0.190498 -0.000070 -0.001674 0.013545
Al 3.159333 -3.690271 4.981106 -0.003943 -0.002396 0.000791
Al 3.145017 -3.691711 -5.273311 0.005737 0.004304 -0.005324
Ga 3.145260 -3.694297 -0.133992 0.000544 -0.001543 -0.001024
Ga 1.581322 -0.963001 4.985998 -0.005118 0.003436 -0.000288
Al 1.587806 -0.963386 -5.275628 -0.003792 0.001314 -0.000997
Al 1.586228 -0.969775 -0.194111 -0.007932 0.006111 0.010686
Al 3.126078 1.795584 4.977021 0.000658 0.000400 0.000829
Ga 3.123661 1.785246 -5.284024 0.000554 0.000378 -0.002001
Al 3.129440 1.787413 -0.173954 -0.003000 -0.001730 0.013014
Al 6.297590 -3.683787 4.991771 -0.001772 -0.003864 -0.001156
Al 6.300293 -3.677894 -5.276328 -0.004485 -0.001883 -0.009498
Ga 6.296530 -3.702030 -0.116960 -0.000032 -0.000245 0.002055
Al 4.733559 -0.957875 4.989191 -0.003646 0.005318 0.000720
Al 4.738584 -0.962255 -5.275228 -0.005834 0.001497 -0.008935
Ga 4.710655 -0.954082 -0.118470 -0.000219 0.004785 -0.009706
Al -3.201194 1.791062 4.971577 -0.000154 0.001172 0.000786
Al -3.193152 1.782348 -5.283930 0.001991 -0.000074 -0.003193
Al -3.200476 1.800570 -0.176917 -0.001589 -0.001777 0.013153
Al -0.038169 -3.677435 4.973315 0.000906 -0.001627 0.000888
Al -0.023000 -3.667743 -5.285554 -0.001933 -0.000273 -0.003350
Al -0.022846 -3.687060 -0.172127 -0.002187 0.003137 0.011090
Al -1.603837 -0.951021 4.989088 -0.000646 0.005857 0.001904
Al -1.595299 -0.951115 -5.276345 -0.002069 0.006899 -0.007204
Ga -1.591329 -0.939995 -0.112220 -0.000365 0.000762 -0.016586
N 1.548604 0.908960 4.375061 0.000783 0.000852 -0.008611
N 1.525312 0.862851 -5.878890 -0.006952 -0.008054 -0.002086
N 1.550919 0.872312 -0.794236 0.001396 -0.003731 0.004381
N -0.021566 3.609374 4.379181 0.000308 -0.001885 -0.002218
N -0.019950 3.603541 -5.862890 0.000886 -0.002102 -0.004004
N -0.021634 3.574780 -0.810759 0.001470 -0.005795 -0.003958
N 3.178857 -1.882120 4.373319 0.005416 -0.003344 -0.008800
N 3.160158 -1.869872 -5.862039 -0.002074 0.001029 -0.006113
N 3.130103 -1.860827 -0.827386 -0.005995 0.000898 0.005432
N -4.777787 0.879883 4.382176 0.001733 -0.005254 -0.004586
N -4.750517 0.861746 -5.881588 0.008097 -0.005159 -0.004107
N -4.775143 0.902911 -0.768677 0.002913 0.004863 0.006282
N -6.351858 3.612804 4.381769 0.001582 -0.000085 -0.003870
N -6.346231 3.639807 -5.880461 0.001434 0.006923 -0.004067
N -6.328123 3.597067 -0.766327 0.008083 -0.003672 0.005371
N -3.175832 -1.865482 4.417445 0.001237 0.001538 0.001807
N -3.171488 -1.864292 -5.864377 0.002012 -0.000263 -0.002950
N -3.179745 -1.865040 -0.773918 0.000873 -0.001110 -0.000234
N -1.629811 0.887232 4.382452 0.005379 -0.005646 -0.005346
N -1.626838 0.885260 -5.863273 0.006963 -0.002176 -0.005478
N -1.630743 0.914803 -0.800670 0.003379 0.005460 0.006311
N -3.200498 3.618900 4.385470 0.004591 0.001617 -0.005556
N -3.186581 3.622834 -5.797371 -0.002073 -0.004604 -0.005684
N -3.220125 3.602497 -0.778591 -0.001778 -0.003015 0.008431
N -0.058399 -1.868518 4.372847 -0.001364 -0.001004 -0.009553
N -0.024647 -1.855062 -5.862088 0.004896 0.001524 -0.001929
N -0.009507 -1.871031 -0.773397 0.010943 -0.004159 0.006120
N -0.023736 1.785269 1.830619 -0.005041 -0.007865 -0.014300
N -0.023471 1.783559 6.907496 -0.004456 -0.001152 -0.003299
N -0.007525 1.787844 -3.334617 -0.004030 -0.001862 0.003099
N 3.279452 -3.706156 1.858503 -0.059146 0.017125 -0.008891
N 3.177127 -3.676957 6.906453 0.000964 0.003592 -0.005546
N 3.180886 -3.660228 -3.412604 0.008136 -0.003773 0.028691
N 1.615400 -0.992174 1.812419 -0.019016 0.010469 -0.008959
N 1.580199 -0.964163 6.944667 -0.005197 0.002097 0.006217
N 1.607561 -0.946687 -3.351327 0.000233 0.007655 0.000405
N 3.126953 1.787108 1.834118 0.001795 -0.001595 -0.012509
N 3.125581 1.790321 6.909226 -0.000039 -0.000568 -0.002559
N 3.095368 1.766248 -3.336638 -0.004833 -0.002398 0.004827
N 6.286624 -3.780203 1.879770 0.006463 0.014806 -0.011100
N 6.298009 -3.684475 6.913106 -0.001021 0.002027 -0.003023
N 6.259683 -3.709619 -3.392802 0.008136 0.003606 0.002969
N 4.677568 -0.954245 1.815977 0.003382 0.007237 0.013933
N 4.729271 -0.956744 6.913160 -0.001134 0.002666 -0.003621
N 4.695292 -0.971347 -3.406601 -0.010531 -0.000536 0.014259
N -3.197075 1.792830 1.837091 0.001889 -0.001661 -0.013351
N -3.200968 1.766899 6.899663 0.000463 -0.007161 -0.006360
N -3.167922 1.766662 -3.401508 0.003813 -0.001126 0.011759
N -0.026985 -3.674728 1.834703 0.004116 0.000003 -0.012443
N -0.054360 -3.662799 6.901194 -0.005556 0.005088 -0.005846
N -0.032520 -3.683388 -3.403305 -0.002425 0.000881 0.004716
N -1.551354 -0.966311 1.810142 -0.006955 0.015660 0.016021
N -1.596713 -0.949684 6.916204 -0.002091 0.003180 -0.003113
N -1.610382 -0.904697 -3.399792 0.000844 0.010581 0.014112
