108
Energy=-1214847.313026 Lattice="9.499681 0.000000 0.000000 -4.756922 8.221452 0.000000 -0.097666 -0.037224 15.276376" Stress="0.000009 -0.000004 -0.000025 -0.000003 0.000007 -0.000011 -0.000025 -0.000011 -0.000005" Properties=species:S:1:pos:R:3:forces:R:3
Al 1.541069 0.869146 2.400794 0.000566 0.004499 -0.001257
Al 1.508112 0.859073 7.460362 0.001244 0.000689 0.002211
Al 1.567756 0.875899 -2.676044 0.003039 0.004153 -0.000308
Al -0.043688 3.590288 2.366710 0.000364 0.000491 0.003733
Al -0.081493 3.584519 7.452454 -0.001052 -0.000171 0.006176
Al -0.003829 3.605196 -2.670179 0.000854 -0.000585 0.000304
Al 3.123596 -1.853735 2.366381 0.005940 -0.005103 0.006400
Al 3.094208 -1.874871 7.464957 0.000953 -0.003116 0.002898
Ga 3.179136 -1.853451 -2.686383 0.000495 0.000426 0.001970
Al -4.829011 0.844198 2.399939 0.005884 0.009519 -0.000208
Al -4.849904 0.847241 7.483857 0.002455 0.002563 0.001534
Al -4.733044 0.869764 -2.692773 -0.002539 0.004725 0.001157
Al -6.363892 3.584598 2.374790 -0.007657 0.000299 0.001964
Al -6.399508 3.573278 7.479520 -0.000015 0.000431 0.001529
Ga -6.333104 3.614446 -2.668402 0.000542 0.000383 -0.001196
Ga -3.234237 -1.863192 2.399640 0.003115 -0.001995 0.000267
Ga -3.259360 -1.885300 7.471819 0.001052 -0.000404 0.000948
Al -3.180304 -1.847371 -2.673382 0.001422 -0.000450 0.000230
Al -1.611134 0.875497 2.428865 0.000586 0.001714 -0.002236
Ga -1.658879 0.886373 7.496381 0.001853 -0.000804 0.001069
Al -1.582411 0.909026 -2.696748 0.000499 0.000025 -0.000891
Ga -3.196778 3.612879 2.400556 0.001135 -0.000902 0.002221
Al -3.246572 3.600261 7.464171 -0.000259 0.000725 0.002848
Al -3.163578 3.615609 -2.684718 -0.001687 -0.002148 0.002914
Ga -0.026173 -1.867102 2.419254 -0.001138 -0.000756 0.001002
Ga -0.053819 -1.890408 7.475426 0.000617 -0.000815 0.000884
Ga 0.019314 -1.850047 -2.684667 -0.000386 -0.001283 0.000570
Al -0.056552 1.770270 4.919186 0.001533 0.002473 0.001689
Al 0.012957 1.785246 -5.229406 0.003714 0.005173 0.000674
Al -0.000493 1.793908 -0.144715 -0.000032 0.000371 -0.000047
Al 3.108100 -3.690133 4.924190 0.004588 0.001764 0.003880
Ga 3.172727 -3.695303 -5.251313 0.000185 0.001552 -0.000160
Al 3.168922 -3.689059 -0.138709 -0.000466 0.000578 -0.006052
Al 1.535277 -0.954212 4.921969 0.002087 -0.001191 0.003891
Al 1.605450 -0.933177 -5.261350 0.001305 0.000559 0.002127
Al 1.589741 -0.940565 -0.120038 -0.000881 0.001005 -0.004313
Al 3.096979 1.760943 4.935787 0.000214 0.002713 0.001587
Ga 3.175412 1.778519 -5.248523 -0.000868 0.001549 0.001672
Al 3.142967 1.777938 -0.144323 0.000017 0.000914 -0.000530
Ga 6.274628 -3.720216 4.928528 0.000682 -0.000346 -0.000105
Ga 6.340899 -3.685348 -5.237822 0.000344 -0.001139 0.000104
Al 6.314957 -3.701054 -0.137217 0.000488 0.001650 -0.002947
Al 4.662407 -0.958818 4.927810 0.000618 -0.002013 0.003116
Al 4.760964 -0.926319 -5.243866 -0.002468 -0.001864 0.002671
Al 4.724168 -0.946960 -0.141852 0.000901 -0.000344 -0.003836
Ga -3.238514 1.764238 4.940965 0.000965 0.000846 0.000038
Al -3.165078 1.802860 -5.230982 -0.001995 0.003603 -0.000936
Ga -3.182800 1.790782 -0.130597 -0.000291 0.000329 -0.004187
Al -0.064724 -3.707243 4.946859 0.002951 -0.000978 0.000637
Al 0.029810 -3.686282 -5.251327 -0.001224 -0.000148 0.001161
Al -0.003137 -3.691635 -0.129415 -0.000093 -0.000197 -0.005072
Al -1.631729 -0.958393 4.944734 -0.000545 -0.000290 -0.000455
Ga -1.567111 -0.921642 -5.212181 0.000046 -0.002111 -0.000472
Ga -1.588108 -0.942032 -0.149289 -0.001101 0.000156 -0.000778
N 1.522927 0.866390 4.322300 0.000010 -0.000362 -0.000885
N 1.547741 0.860641 -5.886920 -0.000283 0.001246 -0.002458
N 1.566200 0.875831 -0.751881 0.000518 -0.000974 0.001379
N -0.105122 3.582673 4.291870 -0.001307 -0.001631 -0.000004
N 0.005498 3.573592 -5.890861 0.000742 -0.001660 -0.003497
N -0.008435 3.613689 -0.746445 -0.001417 -0.001106 0.000570
N 3.107444 -1.872856 4.306926 -0.000490 -0.001258 -0.001967
N 3.185696 -1.810246 -5.872537 0.000646 0.000141 -0.001850
N 3.156837 -1.859392 -0.700463 -0.000469 -0.000693 -0.000534
N -4.860986 0.833078 4.312596 0.000035 0.001362 -0.001607
N -4.701053 0.857982 -5.867929 0.001846 0.001668 -0.001881
N -4.800121 0.853981 -0.773601 -0.000132 0.000271 0.000441
N -6.351316 3.572933 4.301071 0.000825 -0.000736 -0.000952
N -6.282653 3.645393 -5.877642 -0.000027 0.000173 -0.001441
N -6.341454 3.619398 -0.693498 -0.000939 -0.000953 0.002292
N -3.231175 -1.827018 4.375645 -0.000095 -0.000562 -0.000629
N -3.190431 -1.823302 -5.834448 0.001017 -0.000347 -0.001188
N -3.219055 -1.880894 -0.754192 -0.000940 -0.000992 0.000794
N -1.597588 0.839406 4.334956 -0.001500 0.001044 -0.002305
N -1.568586 0.949904 -5.799363 -0.002535 -0.002729 -0.001554
N -1.548527 0.917306 -0.792328 -0.001519 -0.000710 -0.000332
N -3.213158 3.652687 4.377649 -0.006969 -0.000583 -0.003618
N -3.202242 3.608930 -5.886901 0.001318 -0.003078 0.000089
N -3.178657 3.664850 -0.754218 -0.000348 -0.000084 -0.002073
N -0.047725 -1.875230 4.406913 -0.001261 -0.002101 -0.004317
N 0.055862 -1.867465 -5.816093 -0.001434 -0.001910 -0.000847
N 0.045054 -1.878648 -0.707332 -0.000173 -0.001804 0.000188
N -0.042381 1.765729 1.781474 0.001677 0.002128 0.001523
N -0.032723 1.787656 6.834916 -0.000680 0.000780 -0.001414
N 0.010235 1.792799 -3.301027 0.000578 0.001916 -0.000050
N 3.182993 -3.672003 1.762660 -0.002132 0.000828 0.002428
N 3.098648 -3.709518 6.864366 0.001028 0.001762 0.000211
N 3.174334 -3.738972 -3.262098 0.001224 0.001807 -0.001496
N 1.592676 -0.928589 1.787771 -0.003781 0.000236 0.000542
N 1.561115 -0.945218 6.845501 -0.000870 0.000689 -0.001567
N 1.598989 -0.889162 -3.340489 -0.000335 -0.002426 -0.002097
N 3.119312 1.770286 1.786630 0.000593 0.000184 -0.001915
N 3.090526 1.763158 6.874137 -0.000538 -0.000027 -0.002425
N 3.164554 1.744800 -3.264937 0.000193 -0.001345 -0.000025
N 6.288478 -3.743492 1.774372 0.005244 -0.000356 0.002846
N 6.268574 -3.770322 6.903681 0.000438 0.001478 -0.000479
N 6.297303 -3.660791 -3.255387 -0.000470 -0.000822 0.000018
N 4.668942 -0.918802 1.757507 -0.000816 -0.005474 0.002675
N 4.633120 -0.944461 6.846026 -0.001077 -0.000452 -0.001950
N 4.794492 -0.915424 -3.316798 -0.000245 -0.002730 -0.003010
N -3.197275 1.729377 1.838512 -0.005951 -0.001002 0.004059
N -3.290103 1.790204 6.910432 -0.001416 -0.001794 -0.000825
N -3.165620 1.801969 -3.295941 -0.001954 0.000268 -0.001311
N -0.069763 -3.723519 1.762024 0.002234 0.002353 0.003107
N -0.072735 -3.760500 6.853875 -0.001230 0.000251 -0.000008
N 0.049984 -3.707006 -3.331956 -0.000596 -0.000644 -0.001490
N -1.617098 -0.902854 1.823072 -0.001352 -0.003973 -0.001139
N -1.650432 -0.958862 6.842332 -0.001231 -0.000582 0.000437
N -1.613921 -0.914424 -3.241121 -0.002211 -0.001410 0.001454
