108
Energy=-2267683.768740 Lattice="9.624244 0.000000 0.000000 -4.817912 8.330088 0.000000 0.010486 -0.004192 15.592367" Stress="0.000001 -0.000001 0.000002 -0.000001 -0.000001 -0.000000 0.000002 -0.000000 -0.000000" Properties=species:S:1:pos:R:3:forces:R:3
Al 1.581298 0.886094 2.460165 0.000102 -0.000194 0.000266
Al 1.593322 0.896207 7.651487 0.000294 -0.000094 0.000386
Al 1.585905 0.889652 -2.765892 0.000444 -0.000211 0.000565
Al -0.011506 3.669692 2.442608 0.000073 -0.000229 0.000266
Ga -0.011540 3.642289 7.643259 0.000015 0.000037 0.000492
Ga -0.016729 3.655109 -2.733080 0.000065 -0.000026 0.000339
Al 3.200690 -1.886188 2.464480 0.000008 -0.000245 0.000026
Ga 3.200406 -1.873859 7.630377 0.000316 -0.000259 0.000691
Ga 3.180007 -1.881410 -2.738981 0.000154 -0.000215 0.000212
Ga -4.842875 0.873101 2.457298 0.000415 -0.000199 0.000478
Al -4.843921 0.884343 7.638775 0.000238 -0.000159 0.000281
Ga -4.853646 0.893289 -2.749398 0.000287 -0.000175 0.000390
Ga -6.467139 3.662063 2.444107 0.000050 -0.000136 0.000202
Al -6.432354 3.641045 7.663882 0.000054 -0.000082 0.000396
Ga -6.450441 3.651117 -2.758069 0.000276 -0.000089 0.000707
Al -3.249258 -1.904565 2.459615 0.000236 -0.000217 0.000154
Ga -3.228412 -1.879426 7.628741 0.000003 -0.000120 0.000475
Ga -3.232120 -1.895348 -2.735034 0.000157 -0.000145 0.000427
Ga -1.627100 0.893846 2.443362 0.000543 -0.000428 0.000143
Al -1.619654 0.885909 7.644267 0.000281 -0.000142 0.000050
Ga -1.627074 0.892077 -2.730417 0.000574 -0.000411 0.000117
Ga -3.224497 3.660884 2.454165 0.000272 -0.000397 0.000068
Ga -3.240911 3.651576 7.656666 0.000488 -0.000009 0.000146
Ga -3.243193 3.660563 -2.747744 0.000246 -0.000139 0.000228
Ga -0.016246 -1.880418 2.459533 0.000348 -0.000235 -0.000040
Ga -0.020861 -1.886054 7.655200 0.000468 -0.000246 0.000020
Ga -0.017659 -1.884539 -2.756165 0.000521 -0.000382 0.000187
Ga -0.013337 1.807684 5.048359 -0.000224 0.000281 0.000543
Ga -0.016135 1.801940 -5.353109 -0.000435 0.000042 0.000553
Ga -0.009866 1.813483 -0.137375 -0.000542 0.000235 0.000242
Ga 3.204302 -3.735612 5.025673 -0.000165 0.000208 0.000128
Ga 3.176447 -3.741007 -5.342391 -0.000191 0.000038 0.000069
Ga 3.197653 -3.749592 -0.118700 -0.000546 0.000204 -0.000020
Ga 1.603088 -0.956780 5.047712 -0.000439 0.000102 0.000386
Ga 1.582396 -0.953217 -5.354088 -0.000635 0.000365 -0.000008
Ga 1.591286 -0.953677 -0.131157 -0.000578 0.000185 0.000085
Ga 3.185241 1.802155 5.068837 -0.000109 -0.000066 0.000522
Al 3.180615 1.816077 -5.378798 -0.000007 0.000027 0.000642
Ga 3.178826 1.811426 -0.145014 -0.000138 0.000110 0.000335
Ga 6.395430 -3.737262 5.045667 -0.000091 -0.000019 0.000685
Ga 6.410383 -3.750051 -5.364643 0.000062 0.000007 0.000368
Al 6.393333 -3.739201 -0.123558 0.000162 0.000052 0.000517
Al 4.794729 -0.966347 5.033250 -0.000217 -0.000232 0.000466
Ga 4.782850 -0.949288 -5.353575 -0.000106 0.000203 0.000435
Ga 4.802847 -0.969773 -0.121356 -0.000388 0.000242 -0.000188
Ga -3.236058 1.797954 5.079967 -0.000163 0.000018 0.000387
Ga -3.252180 1.811532 -5.375524 -0.000050 -0.000067 0.000447
Al -3.236309 1.812246 -0.144437 0.000026 0.000139 0.000577
Ga -0.024020 -3.746956 5.063827 -0.000024 0.000082 0.000318
Al -0.036342 -3.752382 -5.355829 -0.000126 0.000099 0.000266
Ga -0.024381 -3.750689 -0.146129 -0.000116 0.000067 0.000337
Ga -1.637436 -0.963206 5.048266 -0.000294 -0.000099 0.000314
Ga -1.627520 -0.961747 -5.354450 -0.000243 0.000241 0.000313
Ga -1.636783 -0.970628 -0.129385 -0.000578 0.000212 -0.000069
N 1.585781 0.888992 4.373407 0.000364 -0.000097 -0.000490
N 1.616105 0.913305 -6.020846 0.000561 -0.000081 -0.000311
N 1.583661 0.885597 -0.843653 0.000273 -0.000082 -0.000236
N -0.014411 3.657222 4.364984 0.000083 -0.000109 -0.000553
N -0.031979 3.661188 -5.976474 0.000124 0.000016 -0.000363
N 0.018739 3.686396 -0.747396 0.000198 -0.000106 -0.000173
N 3.231602 -1.863930 4.388559 0.000270 0.000018 -0.000431
N 3.184951 -1.888332 -5.986469 0.000173 -0.000176 -0.000324
N 3.189144 -1.891848 -0.763629 0.000225 -0.000138 -0.000115
N -4.834680 0.843295 4.442000 0.000177 0.000090 -0.000408
N -4.887874 0.906544 -6.026994 0.000062 0.000110 -0.000537
N -4.800119 0.908184 -0.758352 0.000239 -0.000068 -0.000235
N -6.442454 3.656790 4.417677 -0.000051 -0.000012 -0.000470
N -6.402784 3.636740 -5.997084 0.000212 -0.000133 -0.000423
N -6.487622 3.684720 -0.762369 -0.000250 0.000107 -0.000584
N -3.269490 -1.872197 4.389437 -0.000087 0.000124 -0.000503
N -3.238110 -1.885594 -5.989840 0.000020 -0.000177 -0.000420
N -3.230579 -1.941743 -0.753711 0.000141 -0.000210 -0.000371
N -1.630128 0.892988 4.417613 0.000295 -0.000086 -0.000324
N -1.630763 0.890579 -6.031714 0.000525 -0.000114 -0.000373
N -1.666062 0.911110 -0.743027 0.000311 -0.000083 -0.000123
N -3.234164 3.653853 4.431397 0.000119 -0.000175 -0.000237
N -3.280702 3.691956 -5.958659 -0.000022 -0.000128 -0.000244
N -3.231768 3.618245 -0.758353 0.000221 -0.000269 -0.000152
N -0.016918 -1.888838 4.434819 0.000280 -0.000164 -0.000233
N -0.025017 -1.935945 -5.954514 0.000408 -0.000466 -0.000036
N -0.017813 -1.886900 -0.772619 0.000159 -0.000195 -0.000045
N 0.024513 1.831998 1.854413 0.000034 0.000342 -0.000251
N -0.013600 1.757177 7.042204 -0.000228 -0.000060 -0.000434
N 0.014011 1.783715 -3.362381 -0.000193 0.000245 -0.000381
N 3.230832 -3.717783 1.872351 0.000147 0.000376 0.000074
N 3.195721 -3.745827 7.006012 -0.000340 0.000157 -0.000406
N 3.188942 -3.744377 -3.365432 -0.000153 0.000268 -0.000152
N 1.629718 -0.939141 1.862963 -0.000079 0.000313 -0.000095
N 1.589442 -0.914360 7.032327 -0.000632 0.000475 -0.000305
N 1.584451 -0.915592 -3.370721 -0.000495 0.000469 -0.000235
N 3.140025 1.782934 1.835567 0.000086 -0.000036 -0.000278
N 3.186591 1.810132 7.066966 -0.000206 0.000088 -0.000285
N 3.141589 1.787805 -3.436246 -0.000377 0.000030 -0.000722
N 6.354303 -3.715240 1.807672 -0.000301 0.000163 -0.000403
N 6.446868 -3.770053 7.033939 0.000172 -0.000010 -0.000445
N 6.395039 -3.742552 -3.391241 -0.000059 0.000061 -0.000510
N 4.791847 -1.014062 1.861041 -0.000109 0.000160 0.000293
N 4.796756 -0.917548 6.961335 -0.000241 0.000431 -0.000657
N 4.790617 -0.962255 -3.376115 -0.000267 0.000175 -0.000345
N -3.238545 1.810141 1.771324 -0.000444 0.000178 -0.000593
N -3.228863 1.759571 7.067797 -0.000294 -0.000136 -0.000030
N -3.235826 1.805674 -3.393737 -0.000216 0.000205 -0.000271
N -0.022305 -3.742956 1.825990 0.000031 0.000149 -0.000215
N -0.060583 -3.768207 7.041448 -0.000445 0.000051 -0.000150
N -0.027182 -3.744395 -3.429478 -0.000249 0.000138 -0.000365
N -1.673060 -0.993647 1.852281 -0.000191 0.000222 0.000178
N -1.619550 -0.918701 7.028480 -0.000332 0.000310 -0.000308
N -1.630135 -0.959773 -3.374619 -0.000426 0.000311 -0.000316
