108
Energy=-1.947255e+06 Lattice="9.577215e+00 0.000000e+00 0.000000e+00 -4.788466e+00 8.294951e+00 0.000000e+00 5.335837e-04 -1.475910e-03 1.551096e+01" Stress="-9.921864e-06 -5.696980e-06 -4.766788e-07 3.455221e-06 -2.577226e-05 1.083959e-05 1.206194e-05 6.936106e-06 1.448709e-05" Properties=species:S:1:pos:R:3:forces:R:3 Config_type=AlGaN_super3_33_2_19.xyz
Al 1.572958e+00 8.753546e-01 2.413925e+00 -3.808093e-06 -5.501052e-06 7.513195e-06
Al 1.570505e+00 8.813796e-01 7.618902e+00 4.554020e-07 -3.970284e-06 9.015542e-06
Al 1.571514e+00 8.688396e-01 -2.722184e+00 -2.022812e-06 2.857673e-06 7.360064e-06
Al -1.321418e-02 3.645148e+00 2.425671e+00 -1.386915e-06 -5.145050e-07 1.489252e-05
Al -1.162087e-02 3.647677e+00 7.616576e+00 -2.392926e-06 -5.639639e-08 8.077618e-06
Ga -1.208566e-02 3.643565e+00 -2.728477e+00 -2.976875e-06 -8.883649e-07 1.524866e-05
Al 3.162130e+00 -1.875382e+00 2.413223e+00 -8.788568e-06 -2.156911e-06 6.703840e-08
Ga 3.174200e+00 -1.876037e+00 7.628344e+00 2.541394e-06 2.757647e-06 1.299739e-05
Al 3.175039e+00 -1.859645e+00 -2.733707e+00 4.599285e-06 -1.122238e-06 6.764556e-06
Ga -4.829732e+00 8.734673e-01 2.426912e+00 -3.573200e-06 -2.554863e-06 8.911707e-06
Ga -4.808236e+00 8.757713e-01 7.631531e+00 -1.035274e-06 -2.143754e-06 7.185531e-06
Ga -4.810599e+00 8.624461e-01 -2.741424e+00 7.430385e-07 4.749193e-06 6.528813e-06
Al -6.413959e+00 3.648834e+00 2.424312e+00 -3.374945e-06 9.045845e-07 4.039635e-06
Ga -6.429196e+00 3.644967e+00 7.608069e+00 -2.707897e-06 -8.309922e-07 6.845949e-06
Al -6.413085e+00 3.652175e+00 -2.716706e+00 2.348052e-06 3.144504e-06 1.395126e-05
Ga -3.218493e+00 -1.892288e+00 2.428858e+00 -1.090259e-06 -4.368472e-06 1.181146e-05
Al -3.216732e+00 -1.887738e+00 7.606614e+00 -4.025823e-06 1.447251e-06 1.395928e-05
Al -3.227481e+00 -1.879562e+00 -2.723786e+00 4.031401e-07 1.821376e-06 1.022376e-05
Ga -1.601725e+00 8.755505e-01 2.465470e+00 -1.125141e-05 -5.409479e-06 2.356927e-05
Ga -1.618458e+00 8.776184e-01 7.595179e+00 -1.118180e-06 -1.137733e-07 7.584711e-06
Al -1.616324e+00 8.779960e-01 -2.742137e+00 -1.743873e-07 -3.573404e-06 1.127745e-05
Ga -3.219698e+00 3.662711e+00 2.429807e+00 -8.674518e-06 -2.380422e-06 8.817822e-06
Ga -3.205908e+00 3.636147e+00 7.610899e+00 -8.766433e-07 1.921699e-06 5.315043e-06
Ga -3.219090e+00 3.644898e+00 -2.715582e+00 -3.635121e-06 3.263880e-06 1.084836e-05
Al -1.423065e-02 -1.881505e+00 2.409671e+00 -2.201602e-07 4.018135e-06 3.420248e-06
Ga -2.608063e-02 -1.866854e+00 7.618838e+00 3.408625e-06 1.594189e-06 1.090870e-05
Ga -1.160565e-02 -1.872755e+00 -2.716955e+00 -2.794379e-06 -3.643335e-06 2.020795e-05
Ga -1.929766e-02 1.801709e+00 5.024392e+00 2.870015e-06 2.381301e-06 9.422804e-06
Ga -2.094527e-02 1.790356e+00 -5.317252e+00 -5.933536e-06 4.589007e-06 1.124146e-05
Ga -1.958267e-02 1.786325e+00 -1.424321e-01 -1.027768e-05 2.517054e-06 3.251033e-05
Ga 3.175580e+00 -3.728107e+00 5.011339e+00 -1.341793e-06 1.982688e-06 1.131588e-05
Ga 3.167601e+00 -3.715041e+00 -5.304007e+00 1.800729e-06 4.732265e-06 7.837642e-06
Ga 3.162974e+00 -3.696063e+00 -1.427235e-01 -4.133879e-06 -8.266959e-06 2.173600e-05
Ga 1.564787e+00 -9.576769e-01 4.993634e+00 1.477964e-06 1.449970e-06 1.192061e-05
Al 1.587833e+00 -9.495729e-01 -5.297845e+00 1.586152e-07 4.332518e-06 8.842866e-06
Al 1.585893e+00 -9.659664e-01 -1.427647e-01 -5.849443e-05 -5.824629e-05 2.128237e-05
Ga 3.169921e+00 1.799959e+00 5.011577e+00 4.186997e-06 -5.472141e-07 6.355115e-06
Ga 3.165772e+00 1.786790e+00 -5.293226e+00 1.552356e-06 5.821156e-06 6.524134e-06
Ga 3.164889e+00 1.800793e+00 -1.568844e-01 3.868946e-08 2.744220e-06 2.785511e-05
Ga 6.360764e+00 -3.721238e+00 5.017656e+00 6.545977e-07 7.774665e-06 9.192305e-06
Ga 6.357305e+00 -3.708450e+00 -5.304940e+00 4.773839e-06 1.107452e-06 1.422249e-05
Ga 6.372415e+00 -3.717615e+00 -1.453712e-01 -9.869453e-06 -4.633158e-06 2.326042e-05
Ga 4.774941e+00 -9.578191e-01 5.026004e+00 5.712346e-06 1.493328e-06 1.432816e-05
Al 4.768811e+00 -9.647651e-01 -5.307200e+00 1.666749e-06 3.483952e-06 9.977500e-06
Al 4.749654e+00 -9.706790e-01 -1.603703e-01 -1.884676e-06 -1.302334e-06 1.931770e-05
Al -3.213520e+00 1.794868e+00 5.018449e+00 -1.540300e-06 -1.377300e-06 8.638124e-06
Al -3.214779e+00 1.794325e+00 -5.297165e+00 1.360465e-06 -8.799311e-07 4.281399e-06
Ga -3.215360e+00 1.796494e+00 -1.532187e-01 -5.530571e-06 -5.010319e-07 2.753404e-05
Ga -2.756071e-02 -3.717761e+00 5.000549e+00 4.808962e-06 2.352933e-06 5.139428e-06
Ga -1.724490e-02 -3.726899e+00 -5.300669e+00 9.407562e-07 1.130970e-06 8.637737e-06
Al -3.004078e-02 -3.717143e+00 -1.352984e-01 -3.294998e-06 1.090991e-05 1.580495e-05
Al -1.618119e+00 -9.644594e-01 5.019045e+00 -2.112940e-06 4.712296e-07 8.603393e-06
Ga -1.636075e+00 -9.562587e-01 -5.296464e+00 1.322534e-06 4.106675e-06 1.078862e-05
Ga -1.618721e+00 -9.632652e-01 -1.643546e-01 2.011761e-06 -6.411087e-06 2.429203e-05
N 1.573051e+00 8.820335e-01 4.324208e+00 -4.893581e-06 3.082662e-06 -7.127989e-06
N 1.575359e+00 8.317888e-01 -5.974036e+00 3.208572e-06 -1.763593e-06 -3.807290e-06
N 1.570421e+00 8.258709e-01 -8.032616e-01 1.048161e-05 3.329794e-05 -2.603910e-05
N -2.002525e-02 3.644128e+00 4.337333e+00 2.601244e-06 -7.005981e-06 -5.029184e-06
N -2.185745e-02 3.647036e+00 -5.976644e+00 6.598539e-07 -1.969830e-06 2.162454e-06
N -2.474619e-02 3.645077e+00 -7.627487e-01 6.373126e-06 3.150895e-06 -2.791105e-05
N 3.172512e+00 -1.878097e+00 4.332110e+00 3.326172e-06 -6.135309e-06 -2.697871e-06
N 3.168661e+00 -1.830224e+00 -5.899923e+00 1.287574e-06 -9.124836e-06 -1.654549e-05
N 3.164926e+00 -1.827076e+00 -8.034237e-01 1.927037e-05 1.043733e-06 -1.141896e-05
N -4.771969e+00 9.012907e-01 4.403660e+00 -3.762087e-06 -5.782237e-07 -1.714153e-05
N -4.769564e+00 8.582651e-01 -5.884979e+00 -4.502063e-06 -3.088819e-06 -6.165661e-06
N -4.812174e+00 8.302677e-01 -7.630213e-01 2.150114e-06 5.527545e-07 -1.863931e-05
N -6.409609e+00 3.646418e+00 4.339373e+00 -6.176492e-06 -1.758399e-06 1.195144e-06
N -6.410914e+00 3.643522e+00 -5.935275e+00 -3.249414e-06 -3.800904e-06 -1.046623e-05
N -6.364584e+00 3.673407e+00 -8.010867e-01 -6.281504e-07 -5.233139e-06 -8.990241e-06
N -3.175189e+00 -1.857637e+00 4.401960e+00 -4.454349e-06 -3.314514e-06 -2.010320e-05
N -3.254967e+00 -1.856554e+00 -5.981241e+00 8.550648e-07 -2.333114e-06 -4.573858e-06
N -3.263823e+00 -1.858136e+00 -8.048773e-01 8.608459e-06 -4.116131e-06 -9.927243e-06
N -1.654170e+00 8.553921e-01 4.449254e+00 5.946882e-06 -1.600655e-06 -1.743325e-05
N -1.663302e+00 9.026673e-01 -5.934394e+00 2.520606e-06 -4.159081e-06 -1.294037e-05
N -1.617743e+00 8.842289e-01 -8.339937e-01 2.383448e-06 5.977138e-06 -1.961562e-05
N -3.215287e+00 3.600737e+00 4.408066e+00 1.275853e-06 2.165960e-06 -1.661569e-05
N -3.213646e+00 3.594785e+00 -5.917621e+00 6.316179e-07 -1.668094e-07 -7.643120e-06
N -3.258720e+00 3.673026e+00 -7.381334e-01 3.885558e-06 -5.265434e-06 -2.204644e-05
N -6.420430e-02 -1.856076e+00 4.338048e+00 1.432266e-06 -4.344368e-06 -8.828234e-06
N 1.829794e-02 -1.850812e+00 -5.905507e+00 -5.862937e-06 -1.913064e-06 -8.426651e-06
N 2.764596e-02 -1.904617e+00 -7.318285e-01 2.423682e-05 1.660386e-05 -1.641790e-06
N 1.425370e-02 1.821273e+00 1.840254e+00 6.020228e-06 1.652548e-06 -2.435433e-05
N 2.485469e-02 1.829044e+00 7.017667e+00 -3.330806e-06 1.159407e-06 -9.573807e-06
N -1.660270e-02 1.752082e+00 -3.330216e+00 5.250586e-06 5.113975e-06 -1.643460e-05
N 3.212177e+00 -3.697893e+00 1.841070e+00 4.154104e-06 3.913404e-06 -1.436361e-05
N 3.214653e+00 -3.745003e+00 6.999888e+00 8.087760e-07 2.377586e-06 -1.152148e-05
N 3.169377e+00 -3.674759e+00 -3.325037e+00 5.491220e-06 -3.051544e-06 -1.278021e-05
N 1.576509e+00 -9.616207e-01 1.795324e+00 -1.140530e-06 -2.175002e-06 -1.461063e-05
N 1.574504e+00 -9.139734e-01 6.978341e+00 -1.720548e-06 -1.174400e-06 -1.511937e-05
N 1.617987e+00 -9.330622e-01 -3.374156e+00 -2.146596e-06 2.714472e-06 -4.450509e-06
N 3.124541e+00 1.829329e+00 1.828131e+00 7.104508e-06 3.142573e-06 -2.623116e-05
N 3.128943e+00 1.774060e+00 6.998240e+00 3.123747e-06 5.186137e-06 -9.291021e-06
N 3.122526e+00 1.827770e+00 -3.305482e+00 1.270134e-06 -8.698221e-06 -1.205704e-05
N 6.363840e+00 -3.772262e+00 1.833562e+00 5.543534e-06 8.203904e-06 -1.911731e-05
N 6.316868e+00 -3.701789e+00 7.006726e+00 5.068613e-06 -3.626116e-06 -1.519332e-05
N 6.404652e+00 -3.697079e+00 -3.319640e+00 -5.743585e-06 -1.672782e-06 -1.665309e-05
N 4.723533e+00 -9.896969e-01 1.759905e+00 1.186380e-05 7.082931e-06 -1.537331e-05
N 4.803866e+00 -9.845665e-01 7.001222e+00 -3.619291e-06 1.449879e-06 -1.522147e-05
N 4.769724e+00 -1.016706e+00 -3.383524e+00 -3.726407e-07 2.897175e-06 -4.554391e-06
N -3.208492e+00 1.797337e+00 1.811747e+00 1.158793e-05 6.433169e-06 -2.198555e-05
N -3.221279e+00 1.799916e+00 6.927195e+00 -5.085434e-07 -1.465365e-06 8.482187e-06
N -3.173240e+00 1.782251e+00 -3.381425e+00 -5.859769e-06 -1.730881e-07 -8.674569e-07
N -6.987142e-02 -3.702469e+00 1.792436e+00 8.019385e-06 -3.504041e-06 -1.451103e-05
N -2.454814e-02 -3.721785e+00 6.979499e+00 -6.462515e-06 -5.498952e-07 -5.349645e-06
N -6.431428e-02 -3.746348e+00 -3.331414e+00 3.119214e-06 -1.849178e-07 -1.229024e-05
N -1.581575e+00 -9.805921e-01 1.810905e+00 5.917896e-07 3.839804e-06 -1.925543e-05
N -1.658045e+00 -9.924343e-01 6.945808e+00 2.662354e-06 1.455600e-06 -2.699728e-06
N -1.662798e+00 -9.443061e-01 -3.309523e+00 2.125088e-06 9.821940e-07 -1.441081e-05
