108
Energy=-1.535276e+06 Lattice="9.529731e+00 0.000000e+00 0.000000e+00 -4.766520e+00 8.251294e+00 0.000000e+00 4.089857e-03 -5.422188e-03 1.538618e+01" Stress="1.734878e-04 -4.364869e-05 2.460875e-04 -4.273077e-05 2.681282e-05 -3.471000e-04 2.476170e-04 -3.383901e-04 -1.730394e-04" Properties=species:S:1:pos:R:3:forces:R:3 Config_type=AlGaN_super3_24_2_20.xyz
Al 1.551867e+00 8.751595e-01 2.460118e+00 1.613903e-05 -2.959538e-05 1.544632e-04
Al 1.572483e+00 8.890212e-01 7.531032e+00 -8.362025e-05 -6.918379e-05 -5.489831e-05
Al 1.567281e+00 8.941123e-01 -2.745542e+00 1.917556e-04 -3.266362e-05 2.196083e-04
Al -3.059131e-02 3.606379e+00 2.452771e+00 2.884203e-04 8.340342e-04 -7.738391e-04
Al -1.569215e-02 3.618583e+00 7.550631e+00 -5.740339e-05 -8.175998e-05 -5.333512e-05
Ga -1.687490e-02 3.620307e+00 -2.755234e+00 4.367433e-05 -4.097345e-05 2.733890e-04
Ga 3.145706e+00 -1.877915e+00 2.413803e+00 7.288947e-05 5.083790e-05 4.533729e-04
Al 3.162153e+00 -1.875852e+00 7.553036e+00 1.514412e-04 -6.903413e-05 1.691126e-04
Ga 3.159257e+00 -1.873613e+00 -2.716591e+00 -8.359110e-05 -9.853733e-05 3.950215e-04
Ga -4.784254e+00 8.839937e-01 2.453846e+00 3.424232e-04 -5.075080e-05 7.345331e-05
Al -4.792453e+00 8.825993e-01 7.541567e+00 -1.501388e-04 -3.333364e-04 -1.409014e-04
Ga -4.811611e+00 8.806668e-01 -2.742896e+00 1.392678e-04 4.513260e-05 1.419434e-04
Ga -6.386001e+00 3.617467e+00 2.473686e+00 -1.343139e-05 1.715317e-04 3.655279e-05
Al -6.376589e+00 3.615178e+00 7.537847e+00 -5.619592e-05 -1.240030e-04 1.987844e-04
Al -6.383326e+00 3.619720e+00 -2.767702e+00 3.588465e-05 -1.293047e-05 1.731672e-04
Ga -3.206095e+00 -1.882759e+00 2.444842e+00 5.738852e-05 -2.480756e-06 1.374133e-04
Al -3.205190e+00 -1.883902e+00 7.566314e+00 9.054080e-06 4.431244e-06 -2.621252e-04
Ga -3.198083e+00 -1.875493e+00 -2.755210e+00 9.536473e-05 -1.359583e-04 2.585570e-04
Al -1.603399e+00 8.990131e-01 2.464486e+00 2.095712e-04 -7.266403e-05 1.192543e-04
Al -1.604771e+00 8.915811e-01 7.538631e+00 1.984127e-05 -5.233656e-04 -5.645308e-04
Ga -1.594456e+00 8.793927e-01 -2.745727e+00 3.504865e-04 -2.090520e-04 1.744833e-04
Al -3.184818e+00 3.616854e+00 2.450660e+00 -1.193929e-05 -1.117462e-04 1.102456e-04
Al -3.198511e+00 3.621484e+00 7.546195e+00 -1.646590e-05 1.851075e-06 -3.711446e-04
Ga -3.203659e+00 3.640924e+00 -2.738438e+00 1.783547e-04 -1.118016e-04 2.258903e-04
Ga -4.146598e-03 -1.865577e+00 2.451262e+00 1.977841e-04 5.342924e-06 -3.150464e-05
Ga -1.450945e-02 -1.884361e+00 7.546278e+00 -2.230741e-05 1.321151e-04 1.512259e-04
Ga -2.781583e-02 -1.872720e+00 -2.740873e+00 2.362807e-04 -2.419797e-04 1.483466e-04
Al -1.317786e-02 1.792276e+00 4.996928e+00 2.380230e-04 3.156630e-04 -2.065249e-04
Al -1.349376e-02 1.801909e+00 -5.323097e+00 1.622663e-04 -1.718499e-04 3.043958e-06
Ga -1.372551e-02 1.792876e+00 -1.195857e-01 -9.954535e-05 -1.700238e-04 -1.924630e-05
Ga 3.152798e+00 -3.722745e+00 5.007015e+00 2.411249e-05 -2.977193e-05 1.309405e-04
Al 3.162101e+00 -3.702633e+00 -5.332760e+00 -2.150867e-04 -1.005216e-04 -2.367332e-04
Al 3.156315e+00 -3.700313e+00 -1.218585e-01 -9.577072e-06 1.131822e-04 4.323676e-04
Al 1.570398e+00 -9.436536e-01 5.015534e+00 -1.705402e-04 1.156024e-04 3.264358e-04
Ga 1.574951e+00 -9.441106e-01 -5.300848e+00 -2.409630e-04 4.692768e-05 1.107773e-04
Al 1.577905e+00 -9.461463e-01 -1.571487e-01 -1.903636e-04 1.501572e-04 2.766975e-04
Al 3.142071e+00 1.794675e+00 5.019779e+00 4.275900e-04 -2.209397e-04 -1.879095e-04
Al 3.141379e+00 1.807503e+00 -5.316450e+00 -6.208392e-04 2.347575e-04 2.741650e-04
Ga 3.138802e+00 1.784605e+00 -1.502918e-01 -6.696601e-05 -1.655088e-04 2.134067e-04
Al 6.334042e+00 -3.729335e+00 5.031451e+00 -4.804483e-04 8.846160e-05 -4.663846e-04
Al 6.335352e+00 -3.709379e+00 -5.323057e+00 1.187183e-04 -5.822369e-05 2.097556e-04
Ga 6.320344e+00 -3.706388e+00 -1.558544e-01 1.269730e-04 -2.488794e-04 3.956121e-04
Ga 4.738267e+00 -9.539917e-01 5.033914e+00 9.655160e-05 1.901206e-04 1.286983e-04
Al 4.742132e+00 -9.611369e-01 -5.330076e+00 -3.147766e-04 3.103650e-04 -6.555923e-04
Al 4.731257e+00 -9.623669e-01 -1.449275e-01 -1.528758e-04 5.433347e-05 2.572959e-04
Al -3.198520e+00 1.807681e+00 5.018401e+00 1.417109e-04 -7.660444e-04 -6.667353e-04
Ga -3.203247e+00 1.799099e+00 -5.327470e+00 1.199807e-05 7.245809e-06 3.157426e-04
Ga -3.197186e+00 1.799333e+00 -1.299041e-01 -1.599678e-04 -1.567906e-04 2.550092e-04
Al -1.898042e-02 -3.725132e+00 5.008521e+00 -1.988995e-04 -5.988241e-04 6.393353e-04
Al -3.563021e-02 -3.714883e+00 -5.307878e+00 -2.919953e-04 3.095757e-04 1.676898e-04
Ga -1.674479e-02 -3.705365e+00 -1.435535e-01 -3.072814e-05 -1.478633e-04 3.467610e-04
Ga -1.605513e+00 -9.508480e-01 5.011809e+00 -3.241709e-04 4.064558e-04 5.027614e-05
Al -1.620118e+00 -9.561046e-01 -5.322091e+00 3.380339e-06 3.134048e-04 -7.530852e-04
Ga -1.611599e+00 -9.508430e-01 -1.257994e-01 -1.349151e-04 -5.075588e-05 1.759361e-04
N 1.565932e+00 8.719249e-01 4.392420e+00 2.695339e-04 -3.683716e-05 -2.508670e-04
N 1.565406e+00 9.290433e-01 -5.946628e+00 -2.354230e-05 1.826145e-04 4.022382e-04
N 1.557879e+00 8.394249e-01 -8.238045e-01 1.794086e-04 -1.331649e-04 -2.628755e-04
N 2.013514e-02 3.602411e+00 4.375108e+00 3.213248e-04 1.012866e-04 3.604034e-04
N -2.052229e-02 3.627229e+00 -5.916220e+00 -4.218347e-05 -4.779179e-05 -9.524483e-05
N -7.114239e-02 3.646707e+00 -7.680118e-01 -1.152060e-04 1.969284e-05 -2.128237e-04
N 3.114730e+00 -1.853047e+00 4.393018e+00 -1.060470e-04 1.921013e-05 -2.420237e-04
N 3.188295e+00 -1.892895e+00 -5.930704e+00 3.365722e-04 1.777860e-04 1.640182e-04
N 3.155646e+00 -1.879631e+00 -7.118197e-01 4.477150e-05 -8.820873e-05 -2.427125e-04
N -4.787336e+00 9.227318e-01 4.437227e+00 -3.320042e-04 3.673064e-04 3.550042e-04
N -4.840084e+00 8.640867e-01 -5.931284e+00 7.001276e-04 -7.953728e-04 3.497701e-05
N -4.791170e+00 8.330694e-01 -7.574846e-01 2.422172e-04 -4.849724e-05 -1.311951e-04
N -6.380371e+00 3.623406e+00 4.456850e+00 1.735743e-04 1.869221e-04 9.195948e-05
N -6.376523e+00 3.628408e+00 -5.926079e+00 -1.156158e-04 1.553231e-05 -5.825598e-05
N -6.377303e+00 3.626813e+00 -8.421244e-01 1.574846e-05 5.368006e-05 -8.912048e-05
N -3.203092e+00 -1.928896e+00 4.415859e+00 9.110733e-05 -2.653682e-04 -6.930019e-05
N -3.200156e+00 -1.876433e+00 -5.906645e+00 -6.350408e-05 6.437695e-05 -1.317382e-04
N -3.238105e+00 -1.846192e+00 -7.682338e-01 -6.681091e-05 3.156578e-05 -4.803865e-05
N -1.611215e+00 9.304975e-01 4.384697e+00 -5.556462e-04 9.088107e-07 2.712217e-04
N -1.567884e+00 8.635577e-01 -5.939301e+00 2.761928e-04 -2.554481e-04 1.026668e-03
N -1.606072e+00 8.822017e-01 -7.755942e-01 2.212499e-04 -1.245777e-04 -7.496987e-05
N -3.238952e+00 3.602187e+00 4.371207e+00 3.473801e-04 -2.070139e-05 -2.177681e-04
N -3.207581e+00 3.682498e+00 -5.932453e+00 5.074740e-04 -1.016683e-04 3.625061e-05
N -3.155967e+00 3.657035e+00 -7.591152e-01 1.584379e-04 -5.739328e-05 -1.589145e-04
N 2.627042e-02 -1.900137e+00 4.436962e+00 1.631938e-04 2.345989e-04 -1.692133e-04
N -5.810202e-02 -1.896209e+00 -5.871206e+00 1.120784e-04 -2.605200e-04 1.045945e-04
N 1.416839e-02 -1.847415e+00 -7.548127e-01 1.457503e-04 -1.340641e-04 -3.620338e-05
N -1.819354e-02 1.786841e+00 1.875177e+00 -1.206912e-04 3.927050e-04 6.173590e-04
N -1.794286e-02 1.794658e+00 6.922046e+00 -9.205306e-05 1.274807e-04 -2.643740e-04
N 2.127976e-02 1.771220e+00 -3.407183e+00 -1.964359e-04 7.545835e-05 -2.730219e-04
N 3.157895e+00 -3.762674e+00 1.809403e+00 8.896368e-05 -3.565190e-04 1.357729e-04
N 3.159585e+00 -3.713954e+00 6.988402e+00 1.245222e-04 1.156227e-04 9.858226e-05
N 3.155863e+00 -3.702021e+00 -3.421083e+00 -9.055104e-05 1.824189e-04 -1.159064e-04
N 1.564769e+00 -8.988011e-01 1.766519e+00 -1.990284e-04 7.135345e-05 -3.789194e-04
N 1.613761e+00 -9.315364e-01 6.929708e+00 -4.173365e-05 3.845098e-05 -2.027400e-04
N 1.574074e+00 -9.070773e-01 -3.328622e+00 -2.557180e-04 1.464849e-04 -1.501373e-04
N 3.105095e+00 1.768239e+00 1.833861e+00 -6.360618e-05 1.833702e-04 1.672608e-05
N 3.153125e+00 1.792098e+00 6.934542e+00 -9.296504e-05 -1.413460e-04 -2.200345e-04
N 3.108012e+00 1.818766e+00 -3.386667e+00 -1.077502e-04 -4.070465e-05 -2.171507e-04
N 6.290769e+00 -3.741425e+00 1.824249e+00 -3.750497e-04 -1.601631e-04 -1.252284e-04
N 6.330704e+00 -3.711441e+00 6.953354e+00 -1.141287e-04 -8.609734e-05 -1.227319e-04
N 6.370120e+00 -3.728914e+00 -3.403118e+00 -2.945980e-06 -4.304398e-05 -2.251934e-04
N 4.745975e+00 -9.527779e-01 1.765672e+00 -1.902475e-04 6.685356e-05 -4.585568e-04
N 4.746785e+00 -9.601575e-01 7.005796e+00 -1.110470e-05 3.267266e-04 1.199759e-04
N 4.737348e+00 -9.559848e-01 -3.418722e+00 -1.800624e-04 6.438677e-05 8.765868e-05
N -3.156666e+00 1.814051e+00 1.855388e+00 -1.617534e-05 3.006870e-04 -3.734276e-04
N -3.195408e+00 1.795730e+00 6.945524e+00 -3.818229e-05 -1.306679e-04 -2.390290e-04
N -3.202454e+00 1.796058e+00 -3.360044e+00 -9.739878e-05 1.314377e-06 -8.720251e-05
N 1.501007e-02 -3.737841e+00 1.841162e+00 -8.381076e-05 1.020792e-04 -2.710177e-04
N -1.739867e-02 -3.763657e+00 6.920583e+00 -7.590035e-05 3.437013e-04 -6.472767e-04
N -6.433994e-02 -3.731596e+00 -3.390723e+00 -8.268073e-05 -1.264217e-06 -1.012378e-04
N -1.609118e+00 -9.060244e-01 1.857404e+00 -1.513981e-04 2.237457e-04 -6.733769e-05
N -1.652872e+00 -9.340676e-01 6.980869e+00 3.381501e-05 3.015371e-04 4.170153e-05
N -1.611856e+00 -9.522135e-01 -3.416030e+00 -2.428593e-04 1.458462e-04 1.869365e-04
