108
Energy=-1626826.765837 Lattice="9.540544 0.000000 0.000000 -4.777193 8.256331 0.000000 0.004248 0.016036 15.421281" Stress="0.000001 -0.000003 0.000001 -0.000003 -0.000003 0.000004 0.000001 0.000004 0.000002" Properties=species:S:1:pos:R:3:forces:R:3
Al 1.570124 0.870326 2.441231 -0.000902 0.000040 -0.000584
Al 1.565477 0.908216 7.526845 0.000168 0.000099 0.000162
Al 1.546520 0.870538 -2.703572 0.000048 0.000000 0.000323
Al -0.027992 3.632497 2.426550 -0.000063 0.000029 0.000091
Al -0.014462 3.614594 7.549714 -0.000028 -0.000019 0.000121
Al -0.039297 3.610316 -2.701983 -0.000048 0.000047 0.000102
Al 3.155422 -1.872252 2.395053 -0.000128 0.000043 -0.000108
Ga 3.169165 -1.855003 7.570336 -0.000137 -0.000070 0.000130
Ga 3.147670 -1.881673 -2.693820 0.000126 0.000026 0.000263
Al -4.802404 0.873442 2.453364 0.000129 -0.000092 -0.000183
Al -4.794939 0.896686 7.542989 -0.000128 0.000024 0.000071
Ga -4.794298 0.876396 -2.722721 0.000185 -0.000002 0.000005
Ga -6.384559 3.630601 2.437047 -0.000029 0.000030 -0.000023
Al -6.379150 3.626338 7.544293 -0.000001 -0.000055 0.000024
Ga -6.380075 3.628352 -2.708468 0.000061 0.000040 -0.000033
Al -3.194431 -1.868243 2.428397 0.000065 0.000188 -0.000148
Ga -3.189709 -1.854057 7.568229 -0.000069 -0.000026 0.000021
Ga -3.189042 -1.866018 -2.723800 -0.000004 -0.000053 0.000013
Ga -1.607369 0.865396 2.443478 0.000228 0.000097 -0.000066
Al -1.606343 0.890731 7.527875 0.000400 -0.000402 0.000130
Al -1.600146 0.871706 -2.712852 -0.000010 -0.000123 0.000130
Ga -3.206337 3.643469 2.430132 0.000285 -0.000130 0.000235
Ga -3.216096 3.628213 7.548535 0.000035 -0.000131 0.000100
Al -3.204012 3.635021 -2.707088 -0.000016 -0.000079 0.000388
Al -0.022826 -1.867611 2.406379 0.000033 0.000325 0.000708
Ga -0.033130 -1.861477 7.563141 0.000130 -0.000268 0.000263
Al -0.021095 -1.869703 -2.710698 -0.000987 0.000206 0.000332
Al -0.026012 1.796967 4.993128 0.001460 -0.000514 -0.000323
Ga -0.030081 1.777579 -5.287539 -0.000099 0.000096 0.000363
Ga -0.026018 1.783982 -0.145804 0.000194 0.000154 0.000311
Ga 3.161735 -3.716820 4.985305 -0.000297 0.000190 0.000052
Ga 3.161332 -3.717800 -5.274136 -0.000091 0.000130 0.000161
Al 3.148900 -3.711042 -0.141471 -0.000231 -0.000239 -0.000164
Ga 1.553935 -0.947848 4.967782 -0.000181 0.000034 0.000071
Ga 1.557273 -0.960682 -5.277717 -0.000225 0.000237 0.000090
Al 1.549153 -0.967873 -0.135670 -0.000265 -0.000049 0.000320
Al 3.162697 1.804060 4.997945 -0.000120 -0.000884 0.000148
Ga 3.156777 1.788222 -5.315858 -0.000017 -0.000045 0.000137
Ga 3.147479 1.781406 -0.122286 0.000097 0.000051 -0.000026
Ga 6.350447 -3.712470 4.994074 -0.000156 0.000218 0.000021
Ga 6.347224 -3.709409 -5.299693 -0.000032 -0.000098 -0.000036
Ga 6.334460 -3.704653 -0.127072 -0.000226 0.000029 0.000036
Ga 4.760002 -0.935776 4.965643 -0.000371 -0.000294 0.000028
Al 4.757742 -0.952819 -5.297409 -0.000133 -0.000050 -0.000036
Ga 4.749772 -0.964817 -0.101142 -0.000255 0.000088 -0.000074
Al -3.208576 1.795217 5.000237 -0.000168 -0.000218 0.000165
Ga -3.202694 1.779448 -5.294892 0.000131 -0.000149 0.000145
Ga -3.198295 1.801638 -0.149106 -0.000059 0.000392 0.000053
Al -0.027523 -3.700889 4.986335 0.000086 0.000017 0.000041
Al -0.027512 -3.704582 -5.276393 -0.000018 -0.000135 0.000262
Al -0.010389 -3.681319 -0.150559 0.001843 -0.000883 -0.000776
Al -1.600807 -0.947158 4.980550 -0.000240 -0.000538 -0.000363
Al -1.608480 -0.955775 -5.282415 -0.000165 0.000001 0.000088
Al -1.592068 -0.962634 -0.147828 -0.000043 -0.001189 0.001517
N 1.568840 0.932213 4.360009 -0.000566 0.000619 0.001240
N 1.558646 0.872336 -5.982447 0.000141 -0.000002 -0.000194
N 1.565468 0.824060 -0.790246 0.000002 0.000158 -0.000161
N -0.025797 3.584058 4.337753 0.000150 0.000384 -0.000190
N -0.028343 3.616319 -5.963622 -0.000034 -0.000040 -0.000051
N -0.069909 3.649594 -0.788335 0.000121 0.000144 -0.000229
N 3.155238 -1.873811 4.305555 0.000270 0.000060 -0.000163
N 3.196496 -1.855893 -5.878278 -0.000032 -0.000027 -0.000035
N 3.118254 -1.894354 -0.705205 -0.000010 0.000033 0.000052
N -4.793994 0.938894 4.364697 -0.000033 0.000155 -0.000084
N -4.793264 0.830118 -5.958532 0.000151 0.000080 -0.000072
N -4.797168 0.868980 -0.762911 0.000107 0.000048 -0.000010
N -6.342375 3.608444 4.409959 0.000002 0.000405 -0.000229
N -6.338685 3.650617 -5.951934 0.000120 0.000086 -0.000113
N -6.344353 3.649954 -0.730845 -0.000302 0.000092 0.000014
N -3.151090 -1.848554 4.340261 0.000220 0.000237 0.000039
N -3.194361 -1.826543 -5.870351 0.000044 0.000019 0.000058
N -3.160557 -1.846658 -0.746368 -0.000005 0.000103 -0.000177
N -1.612445 0.885514 4.429858 -0.000237 -0.000345 -0.000214
N -1.612887 0.824876 -5.964984 0.000168 -0.000075 -0.000248
N -1.614198 0.823775 -0.794825 0.000063 0.000487 -0.000406
N -3.250721 3.612548 4.412042 0.000204 -0.000140 -0.000206
N -3.253657 3.650848 -5.894814 -0.000038 -0.000133 -0.000136
N -3.210269 3.679065 -0.779575 -0.000545 0.000554 0.000268
N -0.064185 -1.895939 4.333622 -0.000236 0.000329 -0.000052
N -0.067817 -1.902443 -5.876663 0.000063 -0.000188 -0.000012
N -0.024022 -1.870199 -0.774962 0.000049 -0.000242 0.000045
N 0.017651 1.814853 1.836016 0.000499 -0.000084 -0.000071
N -0.022606 1.805043 6.920950 0.000094 -0.000118 -0.000317
N -0.025127 1.789802 -3.289403 0.000075 0.000126 -0.000051
N 3.201903 -3.694322 1.783091 -0.000023 0.000137 -0.000019
N 3.206872 -3.722397 6.957134 -0.000033 0.000067 -0.000120
N 3.162295 -3.761045 -3.295086 -0.000009 0.000155 -0.000112
N 1.560027 -0.951444 1.803862 -0.000047 0.000100 -0.000069
N 1.568826 -0.905176 6.945110 -0.000293 0.000108 -0.000164
N 1.525495 -0.935342 -3.296247 0.000311 0.000091 -0.000274
N 3.152938 1.743287 1.851615 0.000507 0.000230 -0.000123
N 3.160724 1.803634 6.932014 -0.000062 -0.000162 -0.000174
N 3.106080 1.766972 -3.335494 -0.000116 0.000079 -0.000041
N 6.298954 -3.685472 1.852633 0.000150 0.000039 -0.000088
N 6.343713 -3.743736 6.979724 -0.000027 -0.000097 -0.000083
N 6.296233 -3.741046 -3.319315 -0.000022 -0.000022 -0.000025
N 4.754241 -0.952292 1.880118 0.000081 0.000016 0.000038
N 4.754862 -0.901727 6.937425 -0.000111 -0.000065 -0.000101
N 4.743660 -0.962037 -3.389266 -0.000182 -0.000073 -0.000075
N -3.242091 1.771425 1.827162 -0.000276 0.000045 -0.000150
N -3.203625 1.755171 6.922029 -0.000119 0.000132 -0.000113
N -3.158620 1.816241 -3.302926 0.000117 0.000091 -0.000068
N -0.016957 -3.658716 1.762582 -0.000276 0.000036 -0.000154
N -0.059605 -3.714265 6.895369 -0.000031 -0.000021 -0.000094
N 0.020774 -3.685110 -3.347752 0.000074 -0.000014 -0.000118
N -1.607968 -1.000618 1.779252 -0.000018 0.000176 -0.000659
N -1.606749 -0.905055 6.889727 -0.000029 0.000161 -0.000224
N -1.564149 -0.930957 -3.359593 0.000171 -0.000033 0.000037
