108
Energy=-6.655417e+05 Lattice="9.421184e+00 0.000000e+00 0.000000e+00 -4.716245e+00 8.160999e+00 0.000000e+00 -1.801492e-02 2.351206e-02 1.511019e+01" Stress="-1.425646e-03 2.920919e-05 -9.580544e-04 2.678476e-05 5.874814e-05 1.131738e-03 -9.596268e-04 1.131384e-03 -3.256081e-03" Properties=species:S:1:pos:R:3:forces:R:3 Config_type=AlGaN_super3_5_2_10.xyz
Al 1.534489e+00 8.782410e-01 2.354232e+00 9.260336e-04 -5.549185e-04 1.757738e-05
Al 1.532894e+00 8.845484e-01 7.414250e+00 3.754529e-04 -6.896351e-04 -5.402144e-05
Al 1.558571e+00 8.678847e-01 -2.659918e+00 3.130096e-04 -4.922873e-03 -1.068084e-03
Al -3.544089e-02 3.593800e+00 2.350344e+00 1.895705e-04 -1.795806e-04 7.065782e-04
Al -3.472874e-02 3.592605e+00 7.407305e+00 -3.318102e-04 3.878103e-05 -1.142997e-04
Al -1.304647e-02 3.575940e+00 -2.653742e+00 -2.393090e-04 3.602259e-04 -8.693808e-04
Al 3.118000e+00 -1.843949e+00 2.364956e+00 6.573098e-04 -2.188809e-04 -5.869829e-04
Al 3.121469e+00 -1.835639e+00 7.391063e+00 1.439121e-04 -4.605306e-04 6.421970e-04
Al 3.133133e+00 -1.855607e+00 -2.648514e+00 3.969634e-03 -2.980850e-03 3.388107e-04
Al -4.739263e+00 8.771646e-01 2.355305e+00 5.760451e-04 -8.348959e-04 -1.606834e-04
Al -4.740267e+00 8.775137e-01 7.417255e+00 7.461169e-04 -2.963225e-04 -3.956224e-04
Al -4.730038e+00 8.585269e-01 -2.666947e+00 6.046942e-04 -1.986817e-04 -8.682348e-04
Al -6.310293e+00 3.600841e+00 2.342645e+00 -7.258841e-04 -6.964834e-04 8.872595e-04
Al -6.314834e+00 3.597710e+00 7.430413e+00 3.325102e-04 3.912817e-04 -4.449028e-04
Al -6.305047e+00 3.570702e+00 -2.658405e+00 -2.396696e-04 5.046191e-04 -5.294262e-05
Al -3.169378e+00 -1.836592e+00 2.355681e+00 1.905909e-04 2.084192e-04 -4.670923e-04
Al -3.179901e+00 -1.832992e+00 7.416043e+00 2.888481e-04 1.302036e-04 -2.957759e-04
Al -3.163888e+00 -1.861436e+00 -2.664980e+00 3.777499e-04 9.352129e-05 -2.550502e-04
Al -1.603990e+00 8.834898e-01 2.362518e+00 7.305369e-04 -1.016181e-03 2.668392e-04
Al -1.611282e+00 8.928816e-01 7.401315e+00 7.432529e-04 -6.493762e-04 -6.093067e-05
Al -1.595896e+00 8.696772e-01 -2.664740e+00 6.819378e-04 -7.962573e-04 2.183903e-04
Al -3.172803e+00 3.600796e+00 2.363233e+00 1.483804e-03 -1.040573e-03 2.942001e-04
Al -3.178345e+00 3.592388e+00 7.391827e+00 4.780846e-04 1.852318e-05 2.919912e-04
Al -3.163182e+00 3.567423e+00 -2.646300e+00 7.526494e-04 2.163500e-04 -9.573174e-04
Al -2.909948e-02 -1.840394e+00 2.363106e+00 4.194162e-04 7.794151e-04 -9.221017e-05
Ga -3.129371e-02 -1.838915e+00 7.410341e+00 1.084461e-03 -5.229859e-04 -1.236373e-04
Ga -1.506275e-02 -1.862333e+00 -2.658189e+00 6.249019e-04 -1.932106e-05 -4.395078e-04
Al -4.459811e-02 1.777633e+00 4.878081e+00 -3.496848e-04 2.043071e-04 5.776002e-04
Al -1.370059e-02 1.755353e+00 -5.178970e+00 -8.402818e-04 4.512395e-04 -2.782263e-04
Al -2.146112e-02 1.766067e+00 -1.545528e-01 -2.508893e-04 -2.194697e-04 4.049891e-05
Al 3.107322e+00 -3.656819e+00 4.881730e+00 -4.131132e-04 3.752272e-04 -3.704821e-04
Ga 3.126742e+00 -3.676223e+00 -5.178674e+00 -1.011447e-03 5.995210e-04 -9.423858e-05
Al 3.125515e+00 -3.676439e+00 -1.506636e-01 -4.712883e-04 1.526697e-03 -9.316387e-04
Al 1.543930e+00 -9.393826e-01 4.869533e+00 -7.829775e-04 2.190180e-04 -2.902823e-04
Al 1.565047e+00 -9.420128e-01 -5.174913e+00 7.049202e-04 -2.042833e-03 -1.997648e-03
Al 1.560017e+00 -9.525182e-01 -1.351222e-01 -1.585581e-04 1.811977e-03 -1.044996e-04
Ga 3.110728e+00 1.781327e+00 4.888833e+00 1.168004e-05 -4.420291e-04 3.599141e-04
Al 3.122001e+00 1.765037e+00 -5.180561e+00 2.942490e-04 -1.099970e-04 -1.062103e-03
Al 3.121520e+00 1.761806e+00 -1.486860e-01 -5.584042e-04 8.794216e-04 -1.332704e-03
Ga 6.250646e+00 -3.646076e+00 4.886456e+00 -1.473520e-04 1.294810e-04 -1.957203e-05
Al 6.275708e+00 -3.674798e+00 -5.180196e+00 -1.937254e-04 1.199103e-04 -6.159179e-04
Al 6.265128e+00 -3.672991e+00 -1.479870e-01 -1.061925e-04 7.671247e-04 -1.496780e-03
Al 4.685863e+00 -9.327599e-01 4.881055e+00 -5.250766e-04 9.410958e-05 4.249003e-05
Al 4.700119e+00 -9.501626e-01 -5.179043e+00 -6.586989e-04 -1.290630e-05 -2.782424e-04
Al 4.697049e+00 -9.544074e-01 -1.549519e-01 -8.653802e-04 4.173313e-04 7.484085e-04
Al -3.167227e+00 1.787206e+00 4.878399e+00 -1.352477e-04 2.587337e-04 1.671828e-05
Al -3.162237e+00 1.760423e+00 -5.183646e+00 -1.281463e-04 2.568148e-04 1.246575e-04
Al -3.160095e+00 1.762801e+00 -1.501221e-01 -4.241168e-04 5.293431e-04 6.088274e-05
Al -2.022018e-02 -3.650570e+00 4.870141e+00 1.497599e-03 9.704565e-04 1.031833e-03
Al -2.066077e-02 -3.686280e+00 -5.172618e+00 1.008104e-03 -9.622559e-04 1.499867e-04
Al -1.347501e-02 -3.687895e+00 -1.252515e-01 -1.123805e-03 6.064679e-03 -6.792264e-03
Al -1.599517e+00 -9.221360e-01 4.873156e+00 -8.658929e-05 1.340604e-04 -2.869121e-04
Al -1.592941e+00 -9.474317e-01 -5.181607e+00 8.619858e-04 -5.573854e-04 -9.092286e-04
Al -1.585165e+00 -9.521255e-01 -1.464344e-01 -5.265003e-03 3.844871e-03 2.564429e-03
N 1.497001e+00 8.599021e-01 4.262673e+00 6.423622e-05 -3.268967e-04 -2.100561e-04
N 1.549549e+00 8.592699e-01 -5.779183e+00 1.688888e-04 -4.354353e-04 5.896857e-04
N 1.550808e+00 8.589162e-01 -7.421590e-01 3.574272e-04 -2.042213e-04 -1.346350e-03
N -7.139577e-02 3.575401e+00 4.265308e+00 -4.428425e-04 -4.425401e-04 -1.870475e-04
N 2.033443e-02 3.551499e+00 -5.792661e+00 7.155903e-04 -4.057158e-04 1.776961e-04
N -1.755868e-02 3.578527e+00 -7.423205e-01 8.695797e-05 5.904995e-05 4.911763e-04
N 3.117579e+00 -1.843695e+00 4.282196e+00 2.555437e-04 -2.421848e-04 7.315296e-04
N 3.128396e+00 -1.817038e+00 -5.806280e+00 1.065541e-03 5.572551e-04 -9.430496e-04
N 3.123967e+00 -1.858855e+00 -7.397386e-01 -6.931882e-05 -1.688926e-04 8.171838e-04
N -4.704472e+00 8.580071e-01 4.264056e+00 7.051316e-04 -3.450563e-04 5.492116e-05
N -4.726884e+00 8.563162e-01 -5.775418e+00 1.354067e-04 -2.211376e-05 4.843062e-04
N -4.730330e+00 8.578869e-01 -7.515458e-01 2.061747e-04 4.622543e-04 5.224024e-04
N -6.273477e+00 3.623054e+00 4.245365e+00 -1.297200e-03 -5.803058e-04 -1.972835e-03
N -6.297811e+00 3.579207e+00 -5.769967e+00 -3.684498e-04 -1.667008e-04 3.775309e-04
N -6.301514e+00 3.577026e+00 -7.393622e-01 2.491836e-04 6.458327e-04 -2.035057e-04
N -3.169127e+00 -1.794533e+00 4.260948e+00 1.080527e-05 2.959851e-04 2.332534e-04
N -3.156449e+00 -1.860113e+00 -5.778503e+00 3.729960e-04 -1.913314e-04 3.389596e-04
N -3.153636e+00 -1.861545e+00 -7.499506e-01 -2.375429e-04 1.082059e-04 5.367622e-04
N -1.606812e+00 8.847541e-01 4.278021e+00 8.423200e-04 -3.377867e-04 1.796819e-04
N -1.589720e+00 8.635952e-01 -5.787147e+00 8.977193e-04 -6.142162e-04 -2.494621e-05
N -1.591447e+00 8.602226e-01 -7.495514e-01 -1.932905e-04 4.708550e-04 -1.532290e-04
N -3.173368e+00 3.601003e+00 4.280009e+00 3.661520e-04 -3.504663e-04 3.203373e-04
N -3.201255e+00 3.555423e+00 -5.805747e+00 9.838154e-05 -8.896637e-04 -4.259703e-04
N -3.164001e+00 3.575714e+00 -7.364824e-01 -3.577885e-04 7.057990e-04 3.001325e-04
N -3.156798e-02 -1.838435e+00 4.283447e+00 5.316666e-04 -4.048695e-04 3.390927e-04
N -5.092095e-03 -1.869893e+00 -5.720161e+00 -2.989732e-03 3.315210e-03 3.043367e-04
N -2.472995e-02 -1.838780e+00 -6.888912e-01 5.082855e-03 -1.029581e-02 9.720461e-04
N -3.043924e-02 1.779938e+00 1.757858e+00 -7.699029e-04 7.612453e-04 2.936933e-04
N -3.271056e-02 1.783440e+00 6.800043e+00 -3.644581e-04 4.020215e-04 -5.200156e-05
N -1.615163e-02 1.764056e+00 -3.258670e+00 -4.502448e-05 -5.579297e-04 -2.855331e-06
N 3.114318e+00 -3.655554e+00 1.762925e+00 -2.342763e-04 -6.119124e-04 8.195899e-04
N 3.113261e+00 -3.656474e+00 6.805183e+00 -1.028214e-04 2.368909e-04 2.662270e-05
N 3.125798e+00 -3.676118e+00 -3.203586e+00 2.474482e-04 -9.173894e-04 1.411417e-03
N 1.550484e+00 -9.374146e-01 1.776167e+00 -7.672443e-04 -7.900131e-04 6.283844e-04
N 1.582405e+00 -9.100223e-01 6.781386e+00 -6.478781e-04 1.164644e-03 -2.203702e-04
N 1.614206e+00 -9.585287e-01 -3.276154e+00 -5.426445e-03 1.176524e-02 2.093103e-03
N 3.109820e+00 1.783656e+00 1.763100e+00 2.690067e-04 -8.560546e-04 8.755441e-04
N 3.106986e+00 1.788174e+00 6.864596e+00 -2.050142e-04 -9.070122e-05 9.033602e-04
N 3.122317e+00 1.767123e+00 -3.261996e+00 -3.396052e-04 -8.929728e-04 2.592551e-04
N 6.252322e+00 -3.652815e+00 1.763339e+00 2.363292e-04 -9.168832e-04 1.106552e-03
N 6.254033e+00 -3.651510e+00 6.860611e+00 2.581950e-05 -1.571867e-04 8.347895e-04
N 6.267557e+00 -3.674587e+00 -3.259989e+00 7.017399e-05 -2.973650e-04 3.115145e-04
N 4.682791e+00 -9.356976e-01 1.760889e+00 2.096762e-05 -3.872468e-04 -6.878256e-04
N 4.685747e+00 -9.304011e-01 6.799575e+00 -3.765814e-04 4.095286e-04 -9.786992e-05
N 4.695451e+00 -9.560285e-01 -3.261969e+00 -1.301764e-04 3.971326e-04 5.022674e-04
N -3.171293e+00 1.787848e+00 1.765267e+00 8.860735e-05 -3.340709e-04 -1.590991e-04
N -3.177260e+00 1.785658e+00 6.797675e+00 -4.143144e-04 -8.299884e-05 4.211818e-05
N -3.159759e+00 1.766901e+00 -3.264070e+00 -3.478277e-04 2.071396e-04 9.850994e-05
N -2.317417e-02 -3.655313e+00 1.765838e+00 6.266260e-04 -2.787515e-04 3.617910e-03
N -3.443642e-02 -3.698220e+00 6.782016e+00 -3.361171e-04 -4.281105e-04 -1.043923e-04
N -1.464924e-02 -3.726163e+00 -3.265719e+00 -2.416537e-05 -8.294510e-04 5.041829e-05
N -1.598781e+00 -9.307321e-01 1.772689e+00 2.991304e-04 -6.840544e-04 -6.808930e-04
N -1.640201e+00 -9.088239e-01 6.788789e+00 -1.137947e-03 7.023296e-04 1.791576e-04
N -1.624288e+00 -9.291933e-01 -3.276738e+00 -1.507533e-03 9.002378e-04 4.332087e-04
