108
Energy=-8.486435e+05 Lattice="9.457007e+00 0.000000e+00 0.000000e+00 -4.736795e+00 8.181779e+00 0.000000e+00 -2.226700e-02 -1.251456e-02 1.521459e+01" Stress="4.344219e-03 -5.626553e-04 -1.002881e-03 -5.659404e-04 2.719212e-03 -6.769201e-04 -1.009520e-03 -6.797850e-04 5.790724e-03" Properties=species:S:1:pos:R:3:forces:R:3 Config_type=AlGaN_super3_9_1_15.xyz
Al 1.535544e+00 8.618079e-01 2.428631e+00 3.586313e-03 2.592338e-03 -3.163989e-04
Al 1.545443e+00 8.665297e-01 7.456387e+00 1.478401e-04 1.981400e-04 3.909414e-04
Al 1.558962e+00 8.718992e-01 -2.726148e+00 1.400508e-04 2.854183e-04 1.100888e-03
Al -1.699716e-02 3.600269e+00 2.419648e+00 -1.457152e-03 5.696017e-04 3.904241e-04
Al -3.594349e-02 3.586846e+00 7.455632e+00 -4.598644e-04 1.529458e-05 1.401167e-04
Al -1.580912e-02 3.591156e+00 -2.722832e+00 -1.714901e-04 3.289519e-04 1.450868e-03
Al 3.137748e+00 -1.848245e+00 2.420455e+00 4.123157e-04 -9.252253e-05 -2.778615e-04
Al 3.134873e+00 -1.867429e+00 7.457166e+00 -2.022512e-04 -1.211172e-04 3.414017e-04
Al 3.141768e+00 -1.851517e+00 -2.717036e+00 -3.706476e-05 -1.140339e-04 6.577028e-04
Al -4.752022e+00 8.597245e-01 2.406571e+00 -1.141199e-03 2.910871e-04 3.274479e-04
Al -4.772495e+00 8.603511e-01 7.447379e+00 6.477574e-04 1.268821e-04 -1.006517e-04
Al -4.755057e+00 8.720381e-01 -2.693400e+00 1.308929e-06 -5.718765e-05 2.258943e-04
Al -6.354763e+00 3.596957e+00 2.398585e+00 1.048161e-03 5.844420e-04 -1.470709e-04
Al -6.355153e+00 3.576633e+00 7.470982e+00 1.181772e-03 4.308390e-04 -9.531273e-05
Al -6.322130e+00 3.597359e+00 -2.704143e+00 -1.894268e-04 -7.002962e-05 5.136317e-04
Al -3.177085e+00 -1.860876e+00 2.387124e+00 -4.347092e-04 1.806410e-04 -7.475345e-05
Al -3.188498e+00 -1.864546e+00 7.456804e+00 1.225727e-04 2.638847e-04 2.121920e-04
Ga -3.163971e+00 -1.852732e+00 -2.686855e+00 -4.926991e-04 -3.113078e-04 1.278144e-03
Al -1.612581e+00 8.622093e-01 2.403223e+00 -1.491787e-03 9.217548e-04 6.316642e-04
Al -1.615166e+00 8.680054e-01 7.448892e+00 5.215277e-04 -1.875890e-04 2.539774e-04
Al -1.588335e+00 8.777808e-01 -2.696649e+00 5.011946e-04 1.500357e-04 9.912327e-04
Ga -3.190683e+00 3.597514e+00 2.391231e+00 3.910732e-04 -1.268310e-03 2.012697e-04
Al -3.180859e+00 3.586458e+00 7.463345e+00 1.059340e-03 -4.896923e-04 1.677212e-04
Al -3.178107e+00 3.607025e+00 -2.692645e+00 5.010175e-04 -4.559252e-05 1.500765e-04
Al -3.825757e-02 -1.848368e+00 2.396902e+00 1.439615e-04 5.666773e-04 1.265100e-03
Ga -3.127508e-02 -1.854933e+00 7.474194e+00 2.486591e-04 -3.102336e-05 5.525441e-04
Al -7.865141e-03 -1.851819e+00 -2.705448e+00 -9.817370e-05 -3.374966e-04 -1.574443e-03
Al -3.624639e-02 1.771607e+00 4.932186e+00 -3.310734e-04 4.595713e-06 -3.152400e-04
Al -9.146878e-03 1.778805e+00 -5.238413e+00 -1.096454e-04 4.266575e-04 5.607512e-04
Ga -2.937983e-02 1.785136e+00 -1.386933e-01 -3.701973e-04 3.254636e-04 -9.634851e-04
Al 3.141562e+00 -3.678638e+00 4.941360e+00 -6.566665e-04 -4.012658e-05 3.273360e-04
Al 3.149805e+00 -3.667320e+00 -5.230703e+00 -1.054886e-04 2.410779e-04 6.357331e-04
Ga 3.147350e+00 -3.668213e+00 -1.577917e-01 -1.938362e-05 -2.711067e-04 -1.877475e-03
Al 1.557283e+00 -9.489102e-01 4.927689e+00 -4.787707e-04 3.303023e-05 -1.674360e-04
Al 1.576441e+00 -9.452494e-01 -5.221797e+00 -3.581542e-04 3.765884e-04 3.535673e-04
Ga 1.555212e+00 -9.572330e-01 -1.472227e-01 1.332925e-04 4.210735e-04 -2.695017e-05
Al 3.111924e+00 1.766538e+00 4.929566e+00 1.502232e-04 -5.453298e-05 -2.476552e-04
Al 3.128879e+00 1.782640e+00 -5.228783e+00 1.442021e-04 -1.956442e-04 5.231783e-04
Ga 3.138871e+00 1.786183e+00 -1.406989e-01 1.278372e-04 2.746116e-04 -1.008260e-03
Al 6.269673e+00 -3.680710e+00 4.933648e+00 5.437006e-04 6.146172e-04 6.845141e-04
Al 6.296780e+00 -3.674518e+00 -5.241537e+00 -1.131660e-04 7.102184e-05 1.047661e-04
Al 6.295346e+00 -3.666594e+00 -1.390209e-01 2.250128e-04 -1.181555e-04 -8.242321e-04
Al 4.705777e+00 -9.569043e-01 4.929693e+00 -1.673468e-04 2.041267e-04 3.263946e-04
Al 4.714854e+00 -9.489722e-01 -5.242998e+00 -2.962664e-04 -1.319671e-04 2.032593e-04
Al 4.719452e+00 -9.442829e-01 -1.338689e-01 -3.973253e-04 -2.495500e-04 2.724045e-04
Al -3.185315e+00 1.759085e+00 4.946596e+00 8.430150e-05 8.633540e-04 -1.460249e-04
Ga -3.171772e+00 1.783552e+00 -5.226100e+00 3.706722e-05 -6.215498e-05 3.856726e-04
Al -3.184888e+00 1.764453e+00 -1.709158e-01 1.991250e-04 1.817367e-03 1.262425e-03
Ga -3.694069e-02 -3.681850e+00 4.938810e+00 5.760074e-05 2.127189e-04 -8.581630e-06
Al -1.486177e-02 -3.669284e+00 -5.219449e+00 1.810735e-04 -1.856990e-04 1.496777e-04
Al -3.330686e-02 -3.666361e+00 -1.615382e-01 -1.732485e-04 1.234401e-04 1.585760e-04
Al -1.615099e+00 -9.446535e-01 4.918812e+00 -2.784267e-04 -3.469777e-04 3.409722e-04
Al -1.585339e+00 -9.429284e-01 -5.225655e+00 -4.681804e-04 -1.850745e-06 5.663633e-04
Al -1.602297e+00 -9.406429e-01 -1.400531e-01 -3.642471e-04 -9.751218e-04 -1.054417e-03
N 1.537988e+00 8.632093e-01 4.341254e+00 6.781909e-04 6.186253e-04 -1.425936e-04
N 1.562286e+00 8.712402e-01 -5.830847e+00 2.449223e-04 2.124279e-05 -4.973072e-04
N 1.551875e+00 8.736941e-01 -8.141794e-01 2.064833e-04 -3.107045e-04 -6.229871e-04
N -3.130108e-02 3.592820e+00 4.340209e+00 -1.755346e-04 -3.336113e-05 -3.472962e-04
N -1.696854e-02 3.598685e+00 -5.835707e+00 -1.029933e-04 -2.656940e-05 -2.792053e-04
N 2.482386e-02 3.622816e+00 -8.046042e-01 -1.002195e-04 -3.379224e-04 -9.420033e-04
N 3.131159e+00 -1.863693e+00 4.337392e+00 -4.821707e-05 -2.063424e-05 -1.400178e-04
N 3.144890e+00 -1.856531e+00 -5.835076e+00 -2.434645e-04 6.328557e-05 -3.817821e-04
N 3.180710e+00 -1.826325e+00 -8.031372e-01 -3.766330e-04 2.412596e-04 -2.788375e-04
N -4.760130e+00 8.633553e-01 4.334323e+00 3.676170e-04 2.264805e-05 -5.923628e-05
N -4.788341e+00 8.521964e-01 -5.854808e+00 2.390355e-04 3.018149e-04 -5.506105e-04
N -4.721912e+00 8.401916e-01 -7.761228e-01 9.736930e-04 3.777426e-04 -7.841171e-04
N -6.385815e+00 3.569237e+00 4.311136e+00 -4.228580e-04 3.192370e-05 -4.655241e-04
N -6.321809e+00 3.597713e+00 -5.826686e+00 -1.207196e-04 6.895463e-05 -1.858484e-04
N -6.334662e+00 3.643967e+00 -7.812151e-01 3.924152e-04 4.564979e-04 -2.885070e-04
N -3.180050e+00 -1.866341e+00 4.317816e+00 -2.903878e-04 -7.669938e-05 -9.760534e-04
N -3.159165e+00 -1.852218e+00 -5.833063e+00 6.333802e-05 5.993029e-05 -4.376103e-04
N -3.170867e+00 -1.854342e+00 -6.953325e-01 2.201865e-04 6.178061e-04 -5.830213e-04
N -1.616841e+00 8.675392e-01 4.327035e+00 4.333750e-04 2.947699e-04 -2.709425e-04
N -1.554868e+00 8.538966e-01 -5.853498e+00 6.160025e-04 -4.982297e-04 -6.564526e-04
N -1.634313e+00 8.551085e-01 -7.773030e-01 3.841109e-05 -1.949425e-03 -4.538862e-07
N -3.147697e+00 3.568587e+00 4.364295e+00 5.211796e-04 -7.180430e-04 8.105554e-05
N -3.168126e+00 3.651915e+00 -5.839303e+00 1.449706e-04 -4.963440e-04 -1.910192e-04
N -3.215476e+00 3.582118e+00 -7.679973e-01 -1.909398e-03 -7.145954e-06 2.911409e-04
N -3.097184e-02 -1.814304e+00 4.314988e+00 -1.113237e-04 -5.752629e-05 -2.268697e-04
N -7.774549e-03 -1.847457e+00 -5.768052e+00 -1.301431e-04 -4.325907e-04 -2.927455e-06
N -6.530683e-02 -1.868229e+00 -7.879365e-01 7.462074e-04 -1.171519e-03 2.338338e-03
N -3.739797e-02 1.780119e+00 1.851232e+00 2.250491e-03 -2.695376e-04 4.170653e-05
N -3.406221e-02 1.768175e+00 6.855303e+00 -2.418810e-05 5.866636e-04 -4.659570e-04
N -1.987865e-02 1.777561e+00 -3.316498e+00 -3.161613e-04 3.249450e-04 -5.299935e-06
N 3.171660e+00 -3.647144e+00 1.812370e+00 1.708632e-03 -6.970784e-04 3.637938e-03
N 3.127817e+00 -3.684158e+00 6.860778e+00 4.997490e-04 3.300106e-04 -1.542282e-04
N 3.141311e+00 -3.676175e+00 -3.303589e+00 -2.529936e-04 1.839573e-04 -1.116520e-04
N 1.553524e+00 -9.532597e-01 1.849469e+00 -5.010830e-04 5.971270e-04 -2.051150e-03
N 1.591359e+00 -9.357579e-01 6.842980e+00 -2.424191e-04 2.731412e-04 -5.673233e-04
N 1.569600e+00 -9.490820e-01 -3.304348e+00 -5.364499e-04 2.295979e-04 1.062924e-04
N 3.126681e+00 1.776378e+00 1.843424e+00 -3.173101e-03 -2.029321e-03 1.482827e-03
N 3.113237e+00 1.772407e+00 6.851667e+00 -4.734442e-06 1.555588e-04 -5.737537e-04
N 3.138879e+00 1.783593e+00 -3.304753e+00 -2.139883e-04 -7.968116e-05 -2.769775e-04
N 6.277513e+00 -3.680131e+00 1.786046e+00 -2.791680e-04 -3.204079e-04 4.870866e-04
N 6.276256e+00 -3.682755e+00 6.860387e+00 1.777239e-04 -4.005871e-05 -2.709630e-04
N 6.296925e+00 -3.714922e+00 -3.329547e+00 -2.514777e-05 6.410043e-06 -6.512766e-04
N 4.700542e+00 -9.482472e-01 1.795324e+00 8.143726e-05 2.626229e-05 2.980150e-04
N 4.702409e+00 -9.579883e-01 6.852539e+00 -3.891052e-04 -2.991851e-04 -5.524371e-04
N 4.683714e+00 -9.209102e-01 -3.330216e+00 -4.750295e-04 -1.849706e-04 -7.923096e-04
N -3.187402e+00 1.732742e+00 1.757857e+00 1.055736e-03 -1.070791e-03 -2.937043e-04
N -3.190932e+00 1.770706e+00 6.866207e+00 -1.026220e-04 -2.073876e-04 -1.121987e-04
N -3.172830e+00 1.783046e+00 -3.247590e+00 7.031863e-05 -4.979532e-05 2.995782e-04
N -7.430163e-02 -3.643722e+00 1.772218e+00 2.329311e-04 -1.851162e-03 -1.834687e-03
N -3.047980e-02 -3.728600e+00 6.903961e+00 -2.324914e-03 -1.140086e-04 -2.629731e-04
N -1.315208e-02 -3.673416e+00 -3.299539e+00 1.909075e-04 -6.733300e-05 1.455545e-04
N -1.602314e+00 -9.426330e-01 1.785693e+00 2.430860e-04 -2.253037e-04 8.207547e-04
N -1.647329e+00 -9.334186e-01 6.834015e+00 -7.566499e-04 -2.089713e-04 -7.150908e-04
N -1.552252e+00 -9.186342e-01 -3.315631e+00 -4.222900e-04 2.045888e-04 1.003374e-04
