108
Energy=-1123296.433887 Lattice="9.477839 0.000000 0.000000 -4.742152 8.204899 0.000000 -0.005583 -0.000754 15.275941" Stress="0.000002 -0.000001 -0.000001 -0.000001 -0.000000 -0.000000 -0.000001 -0.000000 0.000006" Properties=species:S:1:pos:R:3:forces:R:3
Al 1.563363 0.877081 2.402750 0.000477 0.000542 -0.000141
Al 1.563143 0.875117 7.498050 0.000070 -0.000040 0.000120
Al 1.561479 0.887341 -2.713750 0.000379 -0.000343 -0.000021
Al -0.036126 3.604596 2.399349 0.000467 0.000099 -0.000227
Al -0.033087 3.598867 7.499365 -0.000022 -0.000019 0.000085
Al -0.014617 3.589249 -2.700611 -0.000507 -0.000217 0.000091
Al 3.148225 -1.869486 2.420904 0.000855 0.000506 -0.000104
Al 3.134377 -1.856012 7.481066 0.000231 -0.000073 -0.000274
Ga 3.135340 -1.859627 -2.702828 -0.000395 0.000084 0.000110
Al -4.766693 0.871501 2.417288 -0.000090 -0.000395 0.000009
Al -4.775939 0.876157 7.472438 0.000270 -0.000004 0.000036
Al -4.777320 0.888994 -2.699206 0.000058 0.000117 0.000453
Ga -6.344874 3.588934 2.402524 0.000031 -0.000069 -0.000146
Al -6.340478 3.587349 7.505885 -0.000043 -0.000158 0.000241
Al -6.333996 3.594000 -2.716532 0.000513 -0.000185 0.000640
Al -3.184455 -1.845827 2.418268 -0.000586 -0.000888 -0.000053
Ga -3.195714 -1.854511 7.503336 -0.000333 0.000073 0.000079
Ga -3.173224 -1.865242 -2.717772 -0.000113 0.000085 0.000246
Al -1.609040 0.871680 2.382011 -0.000301 0.000797 -0.000280
Al -1.608330 0.883476 7.493315 -0.000315 0.000111 0.000906
Ga -1.589209 0.882921 -2.682101 0.000431 -0.000357 0.000095
Ga -3.172086 3.601370 2.404382 0.000062 -0.000076 0.000681
Al -3.187638 3.600853 7.467307 0.000045 -0.000206 0.000072
Al -3.193018 3.611028 -2.679765 -0.000131 0.000106 0.000390
Ga -0.028371 -1.854633 2.421565 0.000227 -0.000036 0.000235
Ga -0.015647 -1.861393 7.488733 0.000312 -0.000035 0.000222
Al -0.017716 -1.866976 -2.714090 -0.000183 -0.000275 0.000401
Ga -0.032604 1.773357 4.947489 -0.000144 -0.000009 0.000052
Al -0.006174 1.776542 -5.257654 0.000148 -0.000006 0.000133
Al -0.021062 1.785677 -0.138155 0.000252 -0.000100 0.000399
Al 3.128415 -3.676847 4.964153 -0.000194 0.000232 0.000162
Ga 3.141120 -3.685895 -5.254659 -0.000064 0.000135 0.000178
Al 3.136521 -3.705875 -0.149372 -0.000363 0.000212 -0.000560
Al 1.571539 -0.950111 4.946264 -0.000499 -0.000390 -0.000831
Al 1.557123 -0.938684 -5.244358 0.000021 0.000318 0.000232
Ga 1.548424 -0.945298 -0.146088 -0.000461 0.000457 0.000297
Al 3.143908 1.772705 4.964379 0.000244 0.000255 0.000303
Al 3.129662 1.780150 -5.250418 0.000255 -0.000049 -0.000017
Al 3.141061 1.784541 -0.163640 -0.000619 0.000559 -0.000325
Ga 6.295965 -3.681384 4.953650 -0.000046 0.000028 -0.000133
Al 6.307812 -3.699667 -5.244415 0.000020 0.000028 -0.000138
Ga 6.299579 -3.698921 -0.147925 0.000353 -0.000259 0.000598
Al 4.707323 -0.941538 4.932572 -0.000548 0.000099 0.000053
Al 4.710954 -0.938938 -5.255786 -0.000117 -0.000039 -0.000299
Ga 4.723873 -0.931326 -0.113257 -0.000040 -0.000025 -0.000524
Al -3.192228 1.776704 4.952913 -0.000225 0.000168 0.000087
Ga -3.193067 1.779173 -5.251081 0.000096 0.000004 0.000560
Al -3.188516 1.791945 -0.149721 0.000032 -0.000077 -0.000632
Al -0.018889 -3.690640 4.970961 0.000571 -0.000323 0.000456
Al -0.028364 -3.685605 -5.236855 -0.000154 0.000261 0.000125
Al -0.017467 -3.689156 -0.180773 -0.000241 -0.000438 -0.000654
Al -1.610284 -0.939346 4.945123 -0.000135 0.000033 -0.000581
Al -1.590692 -0.947944 -5.243940 0.000527 -0.001499 0.000299
Al -1.591625 -0.946191 -0.137395 0.000015 -0.000248 -0.000315
N 1.598245 0.856901 4.320630 0.000123 -0.000400 -0.000209
N 1.561817 0.870291 -5.857611 0.000264 -0.000099 -0.000146
N 1.555067 0.922625 -0.789058 -0.000212 0.000187 0.000198
N -0.075152 3.629380 4.308920 0.000178 -0.000115 -0.000267
N 0.016998 3.583428 -5.869504 0.000167 -0.000280 -0.000166
N -0.062128 3.576752 -0.779719 0.000004 -0.000191 -0.000082
N 3.135096 -1.871285 4.343066 -0.000048 0.000005 -0.000344
N 3.135897 -1.815068 -5.874952 0.000016 0.000254 0.000092
N 3.145009 -1.904569 -0.736881 -0.000182 -0.000513 0.000064
N -4.767329 0.880870 4.342240 0.000187 0.000150 -0.000173
N -4.805001 0.852354 -5.889903 -0.000303 -0.000072 -0.000148
N -4.765785 0.918820 -0.781828 0.001044 -0.000543 -0.000574
N -6.299394 3.579202 4.374126 -0.000173 -0.000487 -0.000231
N -6.334949 3.602857 -5.845338 -0.000211 0.000136 0.000037
N -6.303597 3.579416 -0.793077 0.000170 0.000435 0.000004
N -3.182718 -1.814357 4.332361 0.000647 0.000106 -0.000118
N -3.179949 -1.861391 -5.790321 -0.000045 -0.000105 0.000021
N -3.142382 -1.837329 -0.747111 0.000255 0.000402 0.000101
N -1.650942 0.854058 4.301724 0.000364 -0.000347 0.000334
N -1.563867 0.848785 -5.864244 0.000090 0.001254 -0.001525
N -1.597716 0.874468 -0.697093 -0.000319 0.000279 0.000351
N -3.184148 3.607228 4.394686 -0.000217 -0.000034 0.000155
N -3.227366 3.631322 -5.899980 0.000198 -0.000141 -0.000379
N -3.181192 3.609227 -0.757086 0.000133 -0.000476 0.000087
N -0.026135 -1.865874 4.405314 0.000376 0.000696 0.000088
N -0.014668 -1.864205 -5.806981 -0.000750 -0.000135 0.000260
N -0.062481 -1.880911 -0.789069 -0.000106 0.000170 -0.000254
N -0.016797 1.782798 1.795159 -0.000390 -0.000085 -0.000317
N -0.025711 1.778985 6.929857 0.000306 0.000312 -0.000045
N 0.019385 1.803221 -3.341248 -0.000250 0.000698 0.000164
N 3.176861 -3.664725 1.766435 0.000108 0.000167 0.000402
N 3.139982 -3.683991 6.889365 -0.000104 0.000019 -0.000053
N 3.139259 -3.739116 -3.279445 0.000149 -0.000101 -0.000078
N 1.598998 -0.930831 1.834377 -0.000339 0.000004 -0.000352
N 1.598468 -0.923463 6.858529 -0.000277 0.000535 0.000808
N 1.521373 -0.922947 -3.323883 -0.000173 0.000399 -0.000220
N 3.139139 1.732473 1.755099 -0.000541 -0.000575 0.000512
N 3.128283 1.783236 6.883899 -0.000150 -0.000043 -0.000201
N 3.137374 1.782101 -3.326040 0.000052 -0.000145 -0.000271
N 6.258590 -3.662726 1.835505 -0.000614 0.000464 -0.000500
N 6.295485 -3.733071 6.926770 -0.000010 -0.000224 0.000088
N 6.299968 -3.740442 -3.323816 -0.000275 0.000106 -0.000239
N 4.717081 -0.945491 1.863756 -0.000765 -0.000203 0.000859
N 4.672753 -0.928033 6.851090 -0.000041 0.000144 -0.000306
N 4.716044 -0.895952 -3.348717 -0.000007 0.000246 0.000060
N -3.195096 1.739682 1.769619 0.000776 -0.000445 0.000268
N -3.185314 1.776665 6.879701 0.000088 0.000110 -0.000127
N -3.220619 1.809530 -3.271419 -0.000288 0.000085 -0.000192
N -0.020619 -3.684059 1.726858 0.000154 0.000204 0.000092
N -0.032567 -3.734018 6.875773 0.000369 0.000113 -0.000290
N -0.015909 -3.688593 -3.308359 0.000154 -0.000090 -0.000126
N -1.638784 -0.932016 1.777786 0.000018 -0.000154 -0.000320
N -1.608573 -0.900011 6.850577 0.000175 -0.000176 0.000244
N -1.555903 -0.962759 -3.344455 0.000134 0.000027 0.000175
