108
Energy=-1123296.479883 Lattice="9.476248 0.000000 0.000000 -4.738694 8.203986 0.000000 -0.001672 -0.027370 15.273972" Stress="0.000000 -0.000000 -0.000000 -0.000000 -0.000002 -0.000006 -0.000000 -0.000006 0.000002" Properties=species:S:1:pos:R:3:forces:R:3
Al 1.554814 0.868859 2.398686 -0.000128 -0.000030 -0.000012
Al 1.554038 0.861747 7.461681 -0.000004 -0.000022 0.000149
Al 1.559541 0.876880 -2.669671 0.000001 -0.000148 -0.000070
Al -0.038733 3.599231 2.385720 0.000172 0.000037 0.000058
Al -0.022434 3.583929 7.471790 0.000131 -0.000016 0.000010
Al -0.016389 3.614996 -2.663910 0.000079 -0.000084 -0.000132
Al 3.129816 -1.877395 2.380313 -0.000151 -0.000074 -0.000170
Al 3.131686 -1.871581 7.497572 0.000017 -0.000163 -0.000309
Ga 3.138137 -1.847460 -2.682434 -0.000095 -0.000048 0.000025
Al -4.767007 0.869724 2.415300 0.000133 -0.000041 -0.000036
Al -4.762521 0.862826 7.480486 0.000081 -0.000148 -0.000113
Al -4.756823 0.877629 -2.699019 0.000089 0.000112 0.000010
Ga -6.334440 3.595784 2.384662 -0.000056 -0.000011 0.000054
Al -6.339393 3.589084 7.485055 -0.000137 0.000144 -0.000019
Ga -6.345611 3.613209 -2.673804 0.000006 -0.000009 -0.000055
Al -3.176221 -1.858501 2.401261 0.000177 -0.000251 -0.000112
Ga -3.176658 -1.872930 7.501806 0.000019 -0.000033 -0.000011
Al -3.184817 -1.857326 -2.707552 0.000245 -0.000126 0.000012
Al -1.593485 0.863327 2.401556 0.000003 -0.000082 0.000005
Al -1.597957 0.858163 7.469065 -0.000112 0.000004 -0.000239
Ga -1.608283 0.881828 -2.679951 0.000013 -0.000066 -0.000021
Al -3.171009 3.611208 2.422416 -0.000013 -0.000107 -0.000083
Ga -3.184824 3.588806 7.465435 0.000018 -0.000027 -0.000036
Al -3.184812 3.604511 -2.693991 0.000035 0.000167 0.000006
Al -0.024291 -1.862519 2.388444 -0.000093 0.000200 0.000105
Al -0.023753 -1.870875 7.489223 -0.000056 0.000043 0.000118
Ga -0.020007 -1.851687 -2.683170 0.000005 -0.000009 -0.000019
Al -0.033794 1.775249 4.931872 0.000062 0.000061 -0.000088
Ga -0.021866 1.788654 -5.245226 0.000037 0.000001 -0.000006
Al -0.007633 1.786655 -0.131371 -0.000075 -0.000144 -0.000022
Al 3.132786 -3.704523 4.933622 0.000198 -0.000167 -0.000011
Ga 3.139486 -3.673700 -5.235419 -0.000028 -0.000081 0.000015
Al 3.131045 -3.694562 -0.139080 -0.000135 -0.000051 -0.000060
Ga 1.546116 -0.965030 4.934026 0.000019 0.000049 0.000002
Al 1.551114 -0.940837 -5.266668 -0.000102 0.000110 0.000051
Al 1.544249 -0.939954 -0.111711 -0.000017 -0.000139 -0.000110
Al 3.140567 1.778938 4.955763 -0.000121 -0.000202 -0.000095
Ga 3.142924 1.790121 -5.249530 -0.000036 -0.000014 -0.000027
Al 3.124160 1.777494 -0.146764 -0.000081 -0.000080 0.000054
Ga 6.293931 -3.705410 4.937278 -0.000069 -0.000044 0.000002
Al 6.298460 -3.668306 -5.240555 0.000122 0.000011 -0.000096
Al 6.289631 -3.681982 -0.137076 0.000023 -0.000021 -0.000070
Ga 4.712097 -0.953089 4.932281 0.000009 0.000000 0.000065
Al 4.723734 -0.934508 -5.241154 0.000139 0.000165 -0.000070
Ga 4.722199 -0.951549 -0.128686 -0.000021 -0.000027 0.000050
Al -3.175919 1.774814 4.918536 0.000086 0.000029 0.000003
Al -3.186719 1.782244 -5.244817 -0.000008 -0.000007 0.000104
Ga -3.184933 1.799597 -0.118158 0.000058 -0.000006 0.000017
Al -0.019449 -3.692385 4.938565 -0.000043 -0.000041 0.000044
Al -0.028045 -3.665902 -5.251809 0.000014 -0.000063 -0.000077
Al -0.013462 -3.678539 -0.130254 0.000272 0.000150 0.000014
Al -1.589446 -0.951805 4.933749 -0.000237 0.000162 0.000018
Al -1.601308 -0.944953 -5.252911 -0.000012 -0.000168 0.000147
Al -1.596861 -0.962379 -0.125197 0.000118 0.000064 -0.000006
N 1.558582 0.914884 4.320288 0.000101 0.000124 0.000266
N 1.556397 0.842118 -5.907889 0.000005 -0.000043 -0.000185
N 1.553384 0.867266 -0.746862 0.000011 -0.000009 0.000064
N -0.067405 3.572817 4.302392 -0.000181 -0.000072 0.000041
N 0.017385 3.638612 -5.895285 -0.000055 -0.000032 0.000000
N -0.021382 3.608283 -0.740341 -0.000029 0.000014 0.000019
N 3.131258 -1.922658 4.285635 -0.000051 0.000005 0.000293
N 3.140133 -1.807552 -5.859260 -0.000050 -0.000035 0.000262
N 3.090087 -1.878847 -0.702992 0.000042 0.000005 0.000092
N -4.768814 0.915081 4.320488 -0.000069 0.000045 0.000143
N -4.717838 0.861159 -5.878498 0.000019 -0.000157 0.000105
N -4.795196 0.897017 -0.789773 0.000051 -0.000078 -0.000026
N -6.297092 3.571244 4.356207 0.000021 0.000077 0.000057
N -6.340330 3.664538 -5.867660 0.000010 0.000022 0.000112
N -6.339301 3.611978 -0.685344 -0.000138 0.000078 0.000112
N -3.136415 -1.847906 4.306070 -0.000017 -0.000009 0.000078
N -3.180193 -1.851703 -5.796958 -0.000002 0.000051 0.000022
N -3.137877 -1.883081 -0.781077 0.000025 0.000006 -0.000068
N -1.596322 0.859973 4.324025 0.000014 0.000066 0.000000
N -1.642141 0.860680 -5.878349 -0.000013 0.000189 0.000001
N -1.564126 0.849580 -0.702889 0.000090 -0.000051 0.000034
N -3.181982 3.603549 4.345741 0.000002 0.000045 -0.000016
N -3.221491 3.590998 -5.832180 -0.000026 0.000102 -0.000012
N -3.186204 3.652764 -0.777648 0.000143 0.000009 0.000136
N -0.066128 -1.896056 4.302149 0.000219 -0.000100 -0.000211
N -0.024616 -1.852083 -5.860347 0.000036 -0.000007 0.000045
N -0.020289 -1.858643 -0.698201 -0.000173 0.000177 0.000105
N -0.019043 1.778717 1.789772 0.000012 0.000063 -0.000033
N -0.027023 1.770833 6.859359 0.000020 -0.000019 0.000048
N 0.020979 1.815030 -3.263378 0.000021 0.000177 0.000083
N 3.130832 -3.698788 1.780253 -0.000009 0.000046 -0.000052
N 3.178914 -3.671722 6.853918 -0.000156 0.000351 0.000031
N 3.141545 -3.727366 -3.259689 0.000007 0.000009 0.000019
N 1.552638 -0.947868 1.805869 -0.000032 0.000033 -0.000081
N 1.555220 -0.969536 6.916350 0.000086 0.000059 -0.000024
N 1.554917 -0.892932 -3.349094 0.000020 0.000051 -0.000009
N 3.135851 1.723693 1.763030 0.000014 0.000093 -0.000233
N 3.138892 1.771529 6.879577 -0.000009 0.000014 -0.000005
N 3.132417 1.744055 -3.270182 0.000030 -0.000006 0.000039
N 6.249834 -3.662709 1.778198 -0.000184 0.000016 0.000114
N 6.294574 -3.743883 6.904515 0.000109 -0.000010 0.000001
N 6.251776 -3.662062 -3.316717 -0.000140 -0.000069 0.000104
N 4.718281 -0.951587 1.850420 0.000194 0.000237 -0.000214
N 4.673525 -0.943380 6.904888 -0.000046 0.000241 0.000067
N 4.754237 -0.919674 -3.318640 -0.000163 0.000175 -0.000046
N -3.182876 1.784009 1.862989 -0.000113 0.000084 -0.000007
N -3.180526 1.719075 6.836202 0.000013 -0.000130 0.000032
N -3.219945 1.811680 -3.322982 -0.000125 -0.000280 -0.000078
N 0.029448 -3.668194 1.779135 -0.000006 -0.000254 -0.000108
N -0.064999 -3.668555 6.854835 -0.000013 -0.000156 -0.000118
N 0.013709 -3.698801 -3.338281 -0.000018 0.000009 0.000036
N -1.604858 -0.955211 1.790280 0.000007 0.000033 -0.000056
N -1.558716 -0.942006 6.852895 -0.000031 0.000074 0.000050
N -1.636585 -0.964258 -3.342675 -0.000026 -0.000024 0.000004
