108
Energy=-1993030.611189 Lattice="9.595858 0.000000 0.000000 -4.809885 8.288111 0.000000 0.200322 -0.122192 15.549399" Stress="0.000012 -0.000003 0.000045 -0.000003 -0.000011 -0.000028 0.000045 -0.000028 0.000027" Properties=species:S:1:pos:R:3:forces:R:3
Al 1.607833 0.867302 2.442667 -0.000319 -0.001506 0.000864
Al 1.686839 0.830662 7.638418 -0.000263 -0.000031 0.000201
Ga 1.541527 0.910229 -2.741424 0.000273 -0.000247 -0.000018
Al 0.002838 3.614368 2.390182 -0.000924 0.011851 0.013708
Al 0.076076 3.586516 7.607892 -0.000406 0.000246 0.000027
Ga -0.063575 3.682820 -2.704494 0.000010 0.000042 0.000936
Al 3.221551 -1.920177 2.451988 -0.001619 -0.000697 0.000816
Ga 3.303995 -1.939705 7.597801 -0.000155 -0.000091 0.000565
Ga 3.139437 -1.855687 -2.719355 0.000000 0.000504 -0.000488
Ga -4.793498 0.862404 2.450536 0.000085 -0.000084 0.001447
Al -4.727075 0.812945 7.605537 0.000313 -0.000185 0.000373
Al -4.872479 0.913990 -2.732097 -0.000369 -0.000189 -0.000002
Ga -6.407149 3.620147 2.440624 0.000887 0.000915 0.000430
Ga -6.339178 3.571428 7.638039 -0.000368 0.000614 0.000005
Al -6.473143 3.670635 -2.742269 -0.000304 -0.000230 0.000831
Ga -3.192834 -1.913624 2.425701 -0.000349 0.000727 0.002090
Al -3.133019 -1.937077 7.615597 -0.000548 -0.000065 0.000248
Al -3.250611 -1.858638 -2.714513 -0.000492 -0.000070 -0.000536
Ga -1.597908 0.878421 2.436973 -0.000355 -0.001214 0.001586
Ga -1.535032 0.829879 7.616044 0.000908 -0.000068 -0.000355
Ga -1.690879 0.895394 -2.710403 0.001076 -0.000266 -0.000328
Al -3.173489 3.621868 2.433222 0.000257 0.000971 0.001290
Ga -3.118607 3.577607 7.604199 0.000590 0.000285 0.000779
Ga -3.284673 3.669970 -2.704161 0.000270 0.000089 -0.000835
Ga 0.022941 -1.894238 2.439711 -0.000021 -0.000233 -0.000311
Ga 0.075541 -1.931149 7.626653 0.000519 -0.000098 -0.000020
Al -0.081536 -1.857900 -2.718506 0.000467 -0.000182 0.000737
Ga 0.045949 1.771919 5.028795 -0.000974 0.002018 -0.000275
Ga -0.089205 1.852975 -5.341538 -0.001039 0.000552 0.000454
Ga -0.040985 1.810070 -0.119430 -0.001459 0.000591 -0.001068
Al 3.262972 -3.774462 4.999660 -0.000098 0.000274 -0.000669
Ga 3.114642 -3.684927 -5.335017 -0.000493 0.000418 0.000560
Al 3.173998 -3.726735 -0.112149 0.000524 -0.000453 0.000973
Ga 1.674473 -1.002834 5.024002 -0.000651 0.001063 0.000223
Ga 1.512066 -0.909959 -5.324617 -0.001095 0.000697 -0.000273
Ga 1.574571 -0.969610 -0.126740 -0.002460 0.000316 -0.000002
Ga 3.250937 1.744946 5.042463 -0.001026 0.000006 0.000956
Al 3.105194 1.840191 -5.334018 -0.000192 0.000007 0.000394
Ga 3.173412 1.810422 -0.146755 -0.000842 0.001680 -0.001258
Ga 6.426186 -3.756912 5.042238 -0.001888 -0.000644 0.000068
Ga 6.301600 -3.677467 -5.329060 -0.000454 0.000478 0.000723
Al 6.370702 -3.709820 -0.159577 0.001545 -0.001043 0.000124
Al 4.856710 -1.003504 5.031841 -0.001938 0.000067 0.000551
Ga 4.711055 -0.901150 -5.323923 -0.000504 0.000430 0.000424
Ga 4.786286 -0.964169 -0.153145 -0.001622 0.001053 -0.001011
Al -3.157919 1.765427 5.026479 -0.001325 0.001045 0.000574
Ga -3.324828 1.845727 -5.327883 -0.000226 0.000153 0.000780
Al -3.239050 1.810212 -0.145663 0.000827 -0.000388 0.001562
Ga 0.071684 -3.775457 5.017926 -0.000223 -0.000177 0.000244
Ga -0.098245 -3.682182 -5.298651 -0.000278 0.000255 0.000189
Ga -0.028870 -3.720892 -0.150539 -0.001463 0.000982 -0.000706
Ga -1.566498 -0.996404 5.041636 -0.001337 0.000475 0.000378
Ga -1.703553 -0.921490 -5.313937 -0.001120 0.000467 0.000772
Al -1.640084 -0.961727 -0.163553 0.001275 -0.000473 0.000679
N 1.640581 0.847328 4.352597 0.000744 -0.000618 -0.000896
N 1.537381 0.953983 -5.982419 0.001475 -0.000283 -0.000221
N 1.560890 0.886503 -0.770411 0.000246 -0.000012 -0.000117
N 0.003618 3.627546 4.354246 0.000609 0.000073 -0.005937
N -0.107288 3.695829 -6.020376 0.000774 -0.000398 -0.001055
N -0.045924 3.698423 -0.716724 0.000367 0.000195 -0.000828
N 3.294155 -1.945556 4.391348 0.000672 -0.000256 -0.000822
N 3.109469 -1.832538 -5.966639 0.000578 -0.000221 -0.000495
N 3.165915 -1.927893 -0.744167 0.001229 -0.000791 -0.000395
N -4.716190 0.819012 4.436197 0.001148 -0.000175 -0.000521
N -4.944374 0.950672 -6.009324 0.000047 -0.000167 -0.000794
N -4.800771 0.915861 -0.808493 0.001358 -0.000826 -0.000285
N -6.368928 3.605069 4.413918 0.000377 0.000137 -0.000364
N -6.504791 3.646832 -5.928333 0.000232 -0.000660 0.000065
N -6.480075 3.668326 -0.811875 -0.000860 0.000704 -0.001169
N -3.190639 -1.899339 4.406793 0.000490 0.000233 -0.001032
N -3.301886 -1.829403 -6.011643 0.000523 -0.000453 -0.000570
N -3.194279 -1.896608 -0.791489 0.001402 -0.000975 0.000333
N -1.602339 0.869992 4.422504 0.000894 -0.000789 -0.000459
N -1.714058 0.933957 -5.953834 0.001345 -0.000568 -0.000293
N -1.684356 0.868733 -0.723503 0.001082 0.000120 0.000038
N -3.116205 3.580249 4.372968 0.000449 -0.000611 -0.000891
N -3.310009 3.696063 -5.963455 0.000350 -0.000329 -0.000815
N -3.197014 3.632606 -0.725376 0.001367 -0.000905 -0.000028
N 0.043603 -1.911173 4.407397 0.000476 -0.000514 0.000260
N -0.101364 -1.832075 -5.950406 0.000994 -0.000693 -0.000165
N -0.069980 -1.848235 -0.794921 -0.000098 0.000205 -0.000786
N 0.038122 1.824968 1.869018 0.002810 -0.011965 -0.004929
N 0.120360 1.764466 7.024745 -0.000157 -0.000141 0.000417
N -0.080351 1.832992 -3.356784 -0.000118 -0.000124 -0.000478
N 3.215398 -3.748321 1.819494 -0.001965 0.002000 0.000324
N 3.322600 -3.808758 6.933417 0.000067 -0.000303 -0.000569
N 3.134101 -3.702284 -3.363006 0.000197 -0.000423 -0.000669
N 1.653903 -0.958835 1.858945 0.001605 0.000986 0.000698
N 1.685293 -0.970237 7.008779 -0.000869 0.000591 0.000013
N 1.490994 -0.962602 -3.342536 -0.000499 0.000010 0.000000
N 3.163368 1.763468 1.824823 0.000672 -0.001484 0.001102
N 3.268775 1.694694 7.026143 0.000207 -0.000512 -0.000141
N 3.165772 1.849385 -3.390161 0.001197 0.000167 -0.000726
N 6.380487 -3.765372 1.766848 -0.002535 -0.000100 -0.002530
N 6.436314 -3.757834 7.030263 0.000216 0.000258 0.000250
N 6.364156 -3.669084 -3.332088 0.001254 -0.000188 -0.000520
N 4.764784 -1.001600 1.821384 0.000537 0.000056 0.000844
N 4.919105 -0.994686 6.965488 0.000431 0.000337 -0.000746
N 4.774982 -0.908237 -3.321354 0.000891 -0.000157 0.000097
N -3.203287 1.827325 1.781386 -0.001151 0.000702 -0.001784
N -3.171997 1.724221 6.951367 -0.000739 -0.000583 -0.000457
N -3.319348 1.810462 -3.345296 0.000107 -0.000348 -0.000423
N 0.048120 -3.763238 1.831895 0.001759 -0.001837 0.000955
N 0.078181 -3.783969 6.991170 -0.000481 -0.000121 -0.000274
N -0.105228 -3.672276 -3.307560 -0.000006 -0.000050 -0.000137
N -1.586977 -0.980066 1.759359 -0.001713 0.001398 -0.001336
N -1.564877 -1.042094 7.013794 -0.000754 0.000082 0.000149
N -1.672726 -0.980170 -3.322934 0.000138 -0.000312 -0.000293
