108
Energy=-2.588113e+06 Lattice="9.667443e+00 0.000000e+00 0.000000e+00 -4.843512e+00 8.364410e+00 0.000000e+00 -5.451704e-03 1.527915e-02 1.567834e+01" Stress="8.886964e-05 -1.282318e-04 -3.351835e-04 -1.298276e-04 -4.023006e-04 4.844352e-04 -3.439135e-04 4.867585e-04 1.433446e-04" Properties=species:S:1:pos:R:3:forces:R:3 Config_type=AlGaN_super3_47_0_8.xyz
Al 1.595682e+00 8.953160e-01 2.463690e+00 4.099746e-04 7.244471e-05 -3.760573e-06
Ga 1.577236e+00 8.993992e-01 7.701466e+00 5.854240e-04 -1.918930e-04 7.148063e-04
Ga 1.576808e+00 8.998564e-01 -2.768171e+00 4.656536e-04 -1.199700e-04 6.104373e-04
Al -7.944874e-03 3.666629e+00 2.467392e+00 1.584984e-04 -7.659525e-05 2.808832e-07
Ga -3.534969e-02 3.675408e+00 7.699031e+00 1.482868e-04 2.953146e-04 7.685763e-04
Ga -2.480220e-02 3.666027e+00 -2.771511e+00 1.008313e-04 9.299487e-05 5.092032e-04
Ga 3.216270e+00 -1.904756e+00 2.469067e+00 1.701739e-04 -3.206683e-05 9.741467e-05
Ga 3.197912e+00 -1.900405e+00 7.686411e+00 2.607027e-04 -1.128446e-04 3.567828e-04
Ga 3.196880e+00 -1.905237e+00 -2.755502e+00 1.644040e-04 8.199609e-06 5.593625e-04
Ga -4.857009e+00 8.902267e-01 2.468642e+00 5.045276e-04 -1.805364e-04 -1.623675e-04
Ga -4.859569e+00 9.048698e-01 7.694114e+00 3.806659e-04 -2.361152e-04 1.846304e-04
Ga -4.870388e+00 9.000151e-01 -2.761203e+00 2.319909e-04 -5.921003e-05 1.832390e-04
Ga -6.467679e+00 3.670906e+00 2.479318e+00 8.524137e-05 2.488057e-05 6.849342e-05
Ga -6.459448e+00 3.687969e+00 7.672178e+00 -3.244626e-05 2.003166e-04 8.239031e-04
Al -6.477522e+00 3.676242e+00 -2.760906e+00 -1.319173e-04 5.446286e-05 8.153514e-04
Ga -3.227277e+00 -1.906226e+00 2.454507e+00 8.213541e-05 -2.262218e-05 -2.307962e-04
Ga -3.243285e+00 -1.893691e+00 7.694417e+00 1.717768e-06 -1.005189e-04 6.426286e-04
Ga -3.235349e+00 -1.906416e+00 -2.744608e+00 2.125141e-05 -4.312741e-05 5.802731e-04
Ga -1.614790e+00 8.923404e-01 2.458556e+00 7.065704e-04 -6.113036e-04 1.189679e-05
Ga -1.637511e+00 9.118398e-01 7.695047e+00 5.240385e-04 -3.808873e-04 2.060032e-04
Ga -1.636417e+00 8.912844e-01 -2.756011e+00 7.958662e-04 -1.510621e-04 4.910963e-04
Ga -3.235493e+00 3.681022e+00 2.475514e+00 3.932018e-04 -2.661508e-04 6.955515e-05
Al -3.259452e+00 3.691312e+00 7.676779e+00 -1.445125e-04 -1.749698e-04 6.629462e-04
Ga -3.264471e+00 3.679298e+00 -2.758133e+00 4.838761e-04 -4.022146e-05 3.645282e-04
Ga -1.289554e-02 -1.894188e+00 2.461561e+00 2.889553e-04 5.234871e-05 9.257391e-04
Ga -1.569526e-02 -1.905329e+00 7.679223e+00 3.977901e-04 -3.289760e-04 6.970264e-04
Ga -3.307868e-02 -1.904090e+00 -2.750693e+00 5.520674e-04 -8.286471e-05 2.781140e-04
Ga -1.472328e-02 1.821824e+00 5.050688e+00 -1.010667e-04 6.303948e-04 1.297697e-03
Al -2.690027e-02 1.811415e+00 -5.371711e+00 -1.511151e-04 5.209097e-04 6.341481e-04
Ga -4.246569e-02 1.816257e+00 -1.253394e-01 1.109060e-03 1.540692e-04 7.890252e-04
Ga 3.203422e+00 -3.764501e+00 5.080022e+00 6.722744e-05 1.902763e-04 6.209952e-04
Ga 3.202850e+00 -3.776465e+00 -5.388361e+00 -5.223707e-04 3.991092e-04 2.270211e-04
Ga 3.192749e+00 -3.760607e+00 -1.315373e-01 1.255278e-03 -5.404940e-05 7.755644e-05
Ga 1.590394e+00 -9.685124e-01 5.065939e+00 -5.216252e-04 8.847003e-04 2.829531e-04
Ga 1.588279e+00 -9.700840e-01 -5.371916e+00 -5.666530e-04 4.185818e-04 5.274790e-05
Ga 1.565750e+00 -9.624197e-01 -1.346405e-01 1.110392e-03 1.110361e-04 2.008044e-04
Ga 3.195934e+00 1.823812e+00 5.069676e+00 -2.804571e-04 3.392746e-05 8.044258e-04
Ga 3.185345e+00 1.820738e+00 -5.367711e+00 5.154852e-05 8.322750e-05 5.651985e-04
Ga 3.173040e+00 1.829017e+00 -1.442740e-01 1.573467e-03 -1.299796e-04 -1.426160e-04
Ga 6.432341e+00 -3.756497e+00 5.066588e+00 -2.500971e-04 -2.270228e-04 5.739369e-04
Ga 6.429201e+00 -3.773243e+00 -5.363817e+00 -1.043393e-04 2.753599e-04 5.586739e-04
Ga 6.417088e+00 -3.756457e+00 -1.461150e-01 1.392456e-03 6.654941e-05 2.536179e-04
Ga 4.821183e+00 -9.674340e-01 5.079428e+00 -4.502962e-04 2.953553e-04 8.749423e-05
Ga 4.815572e+00 -9.770014e-01 -5.366230e+00 -4.271729e-04 2.631851e-04 3.639344e-04
Ga 4.806890e+00 -9.653084e-01 -1.443451e-01 1.332736e-03 -3.475368e-04 -1.905339e-04
Ga -3.249771e+00 1.835340e+00 5.088342e+00 -1.244025e-04 1.069864e-04 5.713995e-04
Ga -3.238103e+00 1.823926e+00 -5.387071e+00 -2.374003e-04 1.997590e-04 8.655591e-04
Ga -3.260361e+00 1.816592e+00 -1.451187e-01 1.226206e-03 -9.426162e-05 -5.630524e-05
Al -1.005172e-02 -3.753731e+00 5.082829e+00 -1.125693e-04 1.453900e-04 5.277222e-04
Ga -1.647502e-02 -3.766792e+00 -5.374171e+00 -4.669936e-05 2.039992e-04 1.144942e-03
Ga -4.775052e-02 -3.748503e+00 -1.585233e-01 1.400458e-03 -4.194317e-04 2.510037e-04
Ga -1.622708e+00 -9.730602e-01 5.079184e+00 -4.226832e-04 4.773873e-04 5.084030e-04
Ga -1.624080e+00 -9.653114e-01 -5.376302e+00 -5.557191e-04 4.902739e-04 6.509858e-04
Al -1.639153e+00 -9.640682e-01 -1.437643e-01 -7.824245e-04 2.761244e-06 -3.955783e-04
N 1.591002e+00 8.913691e-01 4.383331e+00 7.039724e-04 -4.829402e-04 -7.472747e-04
N 1.542175e+00 9.095417e-01 -5.986830e+00 2.817478e-04 -1.542683e-04 -4.702094e-04
N 1.565156e+00 8.955822e-01 -7.866070e-01 4.179718e-04 -3.602830e-04 -1.946908e-04
N -2.471031e-02 3.682685e+00 4.389850e+00 1.657438e-04 -2.110895e-05 -8.326845e-04
N -2.341868e-02 3.622427e+00 -5.988117e+00 1.203282e-04 -3.451569e-04 -3.964655e-04
N -4.215638e-02 3.674264e+00 -7.871701e-01 2.394581e-04 -1.748252e-04 -1.901158e-04
N 3.207947e+00 -1.899504e+00 4.448627e+00 2.650273e-04 -4.168855e-04 -2.925894e-04
N 3.202497e+00 -1.904047e+00 -6.010259e+00 2.763486e-04 -2.856679e-04 -2.540084e-04
N 3.185221e+00 -1.897592e+00 -7.715247e-01 2.219763e-04 -2.614034e-04 1.557433e-04
N -4.854915e+00 8.944115e-01 4.447812e+00 4.679898e-04 -1.036733e-05 -4.730931e-04
N -4.862360e+00 8.866630e-01 -6.001447e+00 2.514427e-04 -6.805911e-05 -4.173794e-04
N -4.877572e+00 8.968512e-01 -7.808848e-01 1.537674e-04 -1.368272e-04 -1.070431e-05
N -6.423931e+00 3.706289e+00 4.467454e+00 2.479553e-04 8.710571e-05 -5.295272e-04
N -6.468915e+00 3.675771e+00 -6.023292e+00 -1.284097e-04 -8.254519e-05 -8.250767e-04
N -6.489213e+00 3.679332e+00 -8.369949e-01 1.653125e-05 -5.576986e-05 -7.765976e-05
N -3.235262e+00 -1.893519e+00 4.434566e+00 3.701288e-04 -2.274748e-04 -5.332081e-04
N -3.240334e+00 -1.906145e+00 -6.002104e+00 1.635692e-04 -3.293476e-04 -6.402047e-04
N -3.210083e+00 -1.872863e+00 -7.540696e-01 3.264639e-04 -8.942800e-05 -7.416498e-04
N -1.639421e+00 8.930803e-01 4.441151e+00 3.338009e-04 -6.221415e-04 -5.616917e-04
N -1.593315e+00 9.139161e-01 -5.995384e+00 3.444540e-04 -6.026936e-04 -7.330620e-04
N -1.646380e+00 8.491358e-01 -7.603439e-01 5.523246e-04 -3.789492e-04 -4.355531e-04
N -3.289539e+00 3.708272e+00 4.459743e+00 -6.975258e-06 -2.662216e-04 -6.069253e-04
N -3.257454e+00 3.678634e+00 -6.073521e+00 3.032228e-04 -2.337434e-04 -7.233337e-04
N -3.264374e+00 3.684491e+00 -7.783573e-01 3.183715e-06 -3.482834e-04 -1.490277e-04
N -2.028033e-02 -1.942787e+00 4.455951e+00 4.135260e-04 -8.343683e-04 -4.555912e-04
N -1.903000e-02 -1.906588e+00 -6.015042e+00 3.541861e-04 -4.966430e-04 -6.473698e-04
N -7.481228e-02 -1.866872e+00 -7.637540e-01 3.320595e-04 -5.639090e-04 3.337159e-04
N 3.456408e-02 1.838736e+00 1.871403e+00 -1.999673e-03 7.723166e-04 -9.381142e-04
N -2.201889e-02 1.824472e+00 7.034881e+00 -3.991369e-04 2.098127e-04 -7.530062e-04
N -3.169731e-02 1.812997e+00 -3.450561e+00 -5.704014e-04 2.388955e-04 -4.658627e-04
N 3.264305e+00 -3.790345e+00 1.855125e+00 -1.749329e-03 6.261412e-04 -2.212349e-04
N 3.166175e+00 -3.782072e+00 7.073013e+00 5.388823e-05 2.176053e-04 -5.851099e-04
N 3.198763e+00 -3.764666e+00 -3.404152e+00 -3.038563e-04 7.326512e-05 -5.316712e-04
N 1.607485e+00 -9.239599e-01 1.855813e+00 -2.292880e-03 2.525584e-04 -4.503370e-04
N 1.592277e+00 -9.584953e-01 7.050057e+00 -5.781693e-04 1.992829e-04 -5.382163e-04
N 1.586721e+00 -9.738577e-01 -3.390139e+00 -6.620957e-04 2.401753e-04 -3.321950e-04
N 3.169386e+00 1.796747e+00 1.844949e+00 -1.867083e-03 4.190462e-04 3.747871e-04
N 3.189781e+00 1.820438e+00 7.052330e+00 -7.447593e-05 7.029198e-05 -6.583810e-04
N 3.190672e+00 1.867812e+00 -3.379488e+00 -2.068680e-04 1.749900e-04 -6.119202e-04
N 6.404084e+00 -3.789169e+00 1.846546e+00 -1.540604e-03 -5.185584e-05 -2.444485e-04
N 6.420215e+00 -3.754099e+00 7.051664e+00 1.257035e-04 -1.575943e-04 -7.630396e-04
N 6.465808e+00 -3.782395e+00 -3.372683e+00 8.675602e-05 -1.393641e-04 -6.373079e-04
N 4.829105e+00 -9.723235e-01 1.830342e+00 -2.036148e-03 5.632838e-04 1.408274e-04
N 4.814310e+00 -9.624070e-01 7.058500e+00 -2.018577e-04 2.571003e-05 -4.052416e-04
N 4.813724e+00 -9.731708e-01 -3.383230e+00 -2.760039e-04 -4.749713e-05 -4.001506e-04
N -3.234274e+00 1.818583e+00 1.832164e+00 -1.618203e-03 6.359080e-04 4.786262e-04
N -3.249033e+00 1.874339e+00 7.078205e+00 -1.434752e-04 2.550282e-04 -3.547222e-04
N -3.248779e+00 1.820573e+00 -3.400083e+00 -4.104569e-04 1.843890e-05 -5.675315e-04
N -7.756303e-03 -3.762118e+00 1.820381e+00 -1.597552e-03 6.647604e-04 2.625433e-04
N 2.399794e-02 -3.773485e+00 7.011662e+00 1.533079e-04 -1.266521e-04 -7.268281e-04
N -6.320390e-02 -3.782120e+00 -3.378878e+00 -4.989619e-04 -1.378470e-04 -6.412544e-04
N -1.619920e+00 -9.694379e-01 1.775636e+00 3.534940e-05 3.813084e-04 5.047997e-04
N -1.630425e+00 -9.594095e-01 7.060952e+00 -4.133121e-04 1.560822e-04 -3.120902e-04
N -1.633371e+00 -9.682016e-01 -3.397371e+00 -6.729654e-04 -4.186926e-05 -5.238590e-04
