108
Energy=-1489500.240405 Lattice="9.520999 0.000000 0.000000 -4.762133 8.244310 0.000000 0.003542 0.000022 15.376083" Stress="-0.000001 -0.000000 0.000000 -0.000000 -0.000002 -0.000000 0.000000 -0.000000 -0.000002" Properties=species:S:1:pos:R:3:forces:R:3
Al 1.576364 0.874815 2.422415 0.000279 -0.000272 0.000203
Al 1.569487 0.882552 7.528678 -0.000028 -0.000037 -0.000144
Al 1.562091 0.883401 -2.704251 0.000087 0.000021 0.000072
Al -0.028096 3.639273 2.430936 -0.000081 0.000205 -0.000272
Al -0.034760 3.620513 7.520170 -0.000011 0.000326 -0.000064
Al -0.028952 3.619331 -2.706291 0.000006 0.000046 -0.000035
Al 3.158762 -1.877403 2.393520 -0.000203 -0.000044 -0.000001
Al 3.160356 -1.877442 7.509960 0.000005 -0.000018 -0.000076
Ga 3.163306 -1.871963 -2.667396 -0.000025 0.000008 0.000161
Al -4.795585 0.867723 2.430045 0.000017 0.000353 -0.000183
Al -4.787577 0.874263 7.515205 -0.000052 -0.000220 0.000201
Al -4.778355 0.874153 -2.706273 0.000121 0.000055 -0.000069
Al -6.370233 3.622035 2.419809 0.000267 0.000344 0.000186
Ga -6.374614 3.606455 7.526292 -0.000026 0.000071 0.000009
Ga -6.364031 3.622522 -2.700646 -0.000005 0.000001 -0.000059
Al -3.211526 -1.876807 2.432401 -0.000133 -0.000063 0.000378
Ga -3.214021 -1.868856 7.519852 -0.000069 -0.000030 0.000003
Al -3.206614 -1.864354 -2.702994 -0.000010 -0.000015 -0.000003
Ga -1.611202 0.881122 2.418638 -0.000033 -0.000028 -0.000015
Al -1.608609 0.893572 7.569444 0.000043 -0.000101 0.000075
Ga -1.615592 0.889992 -2.741494 0.000057 -0.000054 -0.000068
Al -3.192094 3.639721 2.411682 -0.000031 -0.000130 -0.000338
Al -3.180014 3.619433 7.539022 0.000098 0.000067 -0.000103
Al -3.198981 3.618665 -2.707248 -0.000198 0.000058 0.000019
Al -0.010676 -1.880229 2.395076 0.000143 -0.000077 0.000002
Ga -0.010525 -1.868433 7.558957 0.000029 -0.000042 0.000046
Ga -0.020184 -1.879454 -2.701712 0.000024 -0.000139 0.000050
Ga -0.008672 1.811553 4.991349 -0.000035 -0.000064 0.000090
Al -0.026659 1.792413 -5.292541 -0.000086 0.000194 -0.000185
Ga -0.013400 1.800237 -0.134585 0.000052 0.000024 0.000014
Al 3.166091 -3.694278 4.969394 -0.000577 -0.000167 0.000099
Ga 3.142270 -3.721077 -5.279923 0.000053 0.000081 0.000079
Al 3.143005 -3.699005 -0.136733 -0.000260 0.000046 0.000029
Ga 1.589041 -0.957890 4.965135 -0.000229 0.000055 0.000001
Ga 1.559458 -0.949459 -5.280103 -0.000057 0.000025 0.000044
Al 1.573746 -0.961663 -0.122321 -0.000134 0.000367 0.000323
Al 3.152050 1.786873 4.960525 -0.000437 0.000158 -0.000238
Ga 3.153884 1.786118 -5.269330 0.000057 -0.000008 0.000054
Ga 3.155852 1.776709 -0.130811 -0.000061 -0.000005 0.000073
Al 6.312782 -3.707160 4.947417 0.000037 0.000003 0.000135
Ga 6.320329 -3.704256 -5.260549 0.000006 0.000024 0.000003
Ga 6.311341 -3.691515 -0.126869 0.000035 -0.000060 0.000024
Al 4.726782 -0.961307 4.957141 0.000146 -0.000266 0.000070
Ga 4.745501 -0.943831 -5.274821 -0.000043 -0.000014 0.000076
Al 4.734511 -0.955616 -0.127304 0.000050 -0.000304 0.000087
Ga -3.210153 1.799457 4.989998 0.000207 0.000068 0.000051
Al -3.201569 1.800430 -5.294610 0.000088 -0.000288 0.000289
Ga -3.215531 1.808727 -0.139019 0.000052 0.000028 0.000087
Ga -0.019002 -3.713225 4.954037 0.000009 0.000111 -0.000041
Al -0.011185 -3.710612 -5.275289 -0.000027 -0.000002 0.000041
Al -0.000896 -3.700740 -0.115697 0.000022 -0.000081 0.000171
Ga -1.617387 -0.965045 4.972999 -0.000062 -0.000051 0.000068
Al -1.610799 -0.946441 -5.271833 -0.000052 0.000007 0.000012
Ga -1.614151 -0.971376 -0.131219 -0.000053 -0.000021 -0.000088
N 1.601803 0.898168 4.329859 -0.000069 -0.000004 -0.000427
N 1.526631 0.903198 -5.936359 0.000099 0.000008 -0.000055
N 1.561458 0.827489 -0.789161 0.000005 -0.000080 -0.000066
N -0.031765 3.671479 4.344408 0.000257 -0.000163 -0.000164
N -0.024331 3.583689 -5.939908 0.000013 -0.000129 0.000168
N -0.068375 3.648350 -0.792308 0.000054 -0.000009 -0.000027
N 3.195038 -1.901327 4.320978 0.000103 0.000152 -0.000246
N 3.156618 -1.876442 -5.952023 -0.000041 0.000005 -0.000070
N 3.153227 -1.870023 -0.679531 0.000335 -0.000212 -0.000101
N -4.822400 0.851381 4.347505 0.000333 -0.000315 -0.000300
N -4.748649 0.898650 -5.944893 -0.000060 0.000037 -0.000210
N -4.781930 0.826247 -0.793928 -0.000025 0.000107 -0.000029
N -6.410804 3.597922 4.342460 0.000051 0.000243 -0.000308
N -6.335711 3.645634 -5.872717 -0.000025 0.000015 -0.000030
N -6.326086 3.652091 -0.722626 -0.000050 0.000063 -0.000008
N -3.241265 -1.892871 4.350232 -0.000038 0.000192 -0.000360
N -3.158930 -1.851150 -5.887337 0.000007 0.000035 -0.000053
N -3.241371 -1.845481 -0.790523 -0.000078 0.000059 0.000051
N -1.608567 0.883937 4.372389 0.000117 0.000033 -0.000128
N -1.612494 0.880581 -5.871363 0.000094 -0.000031 0.000005
N -1.612953 0.879679 -0.764576 0.000057 -0.000039 0.000034
N -3.145775 3.649138 4.320357 0.000220 0.000142 0.000348
N -3.236652 3.604093 -5.921449 -0.000034 0.000094 -0.000024
N -3.200100 3.675595 -0.780379 0.000137 0.000049 0.000094
N -0.015624 -1.869659 4.300674 0.000089 -0.000070 -0.000030
N -0.064894 -1.896620 -5.843121 0.000010 -0.000045 -0.000013
N 0.021799 -1.897139 -0.714369 -0.000081 -0.000043 -0.000051
N 0.024911 1.822659 1.839512 -0.000076 0.000198 0.000140
N -0.023825 1.791210 6.974939 0.000064 -0.000273 -0.000094
N 0.025057 1.820369 -3.361458 -0.000034 0.000073 0.000099
N 3.154555 -3.710031 1.788459 0.000006 0.000022 -0.000125
N 3.151262 -3.706011 6.904858 -0.000050 0.000000 -0.000009
N 3.149010 -3.748260 -3.294715 0.000140 0.000023 -0.000069
N 1.569210 -0.949823 1.804082 0.000044 0.000109 0.000006
N 1.606714 -0.933531 6.946259 -0.000083 0.000133 0.000044
N 1.573902 -0.910707 -3.306371 -0.000090 0.000024 -0.000103
N 3.153598 1.790865 1.850293 -0.000094 -0.000613 0.000111
N 3.150810 1.743263 6.882052 0.000076 -0.000048 0.000669
N 3.151628 1.741494 -3.287775 -0.000024 -0.000034 -0.000014
N 6.322111 -3.701735 1.859417 -0.000142 -0.000099 0.000030
N 6.283705 -3.730777 6.866981 0.000008 -0.000057 0.000074
N 6.280755 -3.680178 -3.280003 0.000029 -0.000007 0.000006
N 4.744580 -0.951519 1.800496 -0.000043 0.000092 0.000048
N 4.695016 -0.931548 6.877574 0.000003 0.000178 0.000137
N 4.772417 -0.931443 -3.297803 -0.000067 -0.000044 -0.000075
N -3.248036 1.819768 1.836957 -0.000049 -0.000066 0.000094
N -3.194041 1.792968 6.976495 0.000025 0.000028 -0.000079
N -3.247096 1.822339 -3.360110 -0.000008 -0.000042 -0.000115
N -0.018615 -3.709907 1.808600 -0.000011 0.000096 -0.000050
N 0.022939 -3.728034 6.924694 -0.000020 -0.000013 0.000011
N 0.024072 -3.729412 -3.364163 0.000013 0.000003 -0.000031
N -1.617274 -1.007530 1.842141 -0.000004 0.000030 -0.000035
N -1.604836 -0.904177 6.943785 -0.000007 0.000063 -0.000055
N -1.649834 -0.981693 -3.355442 -0.000059 -0.000016 0.000042
