108
Energy=-1.489500e+06 Lattice="9.522697e+00 0.000000e+00 0.000000e+00 -4.764462e+00 8.247161e+00 0.000000e+00 -2.300211e-03 2.518595e-03 1.537117e+01" Stress="7.283164e-05 -1.656023e-04 1.107252e-05 -1.527913e-04 3.073541e-04 1.341502e-04 2.506460e-06 1.126599e-04 -3.321631e-04" Properties=species:S:1:pos:R:3:forces:R:3 Config_type=AlGaN_super3_23_2_21.xyz
Al 1.565811e+00 8.803740e-01 2.393413e+00 5.737353e-04 -4.632357e-04 -1.164754e-04
Al 1.558508e+00 8.593231e-01 7.525576e+00 1.122227e-04 1.360981e-04 -2.781104e-04
Al 1.552644e+00 8.606837e-01 -2.687872e+00 2.272238e-04 -1.172489e-04 2.214221e-04
Al -3.328071e-02 3.612197e+00 2.393854e+00 3.250781e-04 2.542630e-04 -2.294874e-04
Al -2.449930e-02 3.623799e+00 7.546148e+00 -9.969140e-05 -4.690476e-05 4.176996e-04
Al -3.793412e-02 3.623719e+00 -2.701708e+00 -1.539322e-04 1.185108e-04 -9.389734e-05
Al 3.144493e+00 -1.867564e+00 2.411868e+00 -3.032851e-04 -1.146531e-04 1.694469e-04
Al 3.137390e+00 -1.857486e+00 7.530189e+00 -3.943294e-05 -3.335571e-04 4.343976e-05
Al 3.131651e+00 -1.882565e+00 -2.708946e+00 -5.706558e-05 -2.517170e-04 -1.692177e-04
Al -4.802321e+00 8.812082e-01 2.420704e+00 4.416597e-04 3.077019e-04 -6.824475e-04
Al -4.787661e+00 8.719140e-01 7.523642e+00 -2.113204e-05 -1.241031e-05 1.662829e-04
Ga -4.791980e+00 8.747682e-01 -2.695921e+00 -5.306624e-07 1.782305e-05 2.667694e-04
Al -6.364117e+00 3.606897e+00 2.390608e+00 2.521333e-06 1.589745e-04 -8.907390e-05
Ga -6.382844e+00 3.620194e+00 7.549582e+00 6.239748e-05 2.192124e-05 1.133743e-04
Ga -6.385580e+00 3.618890e+00 -2.691620e+00 7.436521e-05 3.517077e-05 9.160808e-05
Ga -3.208809e+00 -1.869545e+00 2.416670e+00 1.186789e-04 -3.479865e-05 1.163922e-04
Ga -3.208606e+00 -1.871415e+00 7.551894e+00 7.445860e-05 -3.796545e-05 9.266811e-05
Ga -3.187504e+00 -1.874417e+00 -2.716973e+00 9.986657e-05 8.692461e-06 -1.430804e-04
Ga -1.597490e+00 8.979068e-01 2.417603e+00 1.245855e-04 -1.893607e-04 3.074857e-04
Ga -1.607489e+00 8.902139e-01 7.538331e+00 1.947758e-04 -6.668339e-05 2.221232e-04
Al -1.593947e+00 8.731878e-01 -2.708801e+00 2.550312e-04 -7.340205e-04 -8.675633e-05
Al -3.197641e+00 3.631926e+00 2.396065e+00 2.349548e-04 -1.827993e-05 4.600442e-04
Ga -3.187989e+00 3.623946e+00 7.552245e+00 1.987717e-04 -2.950093e-04 2.114733e-04
Ga -3.173223e+00 3.636921e+00 -2.704725e+00 -4.859896e-05 7.243846e-05 3.174032e-04
Ga 6.637214e-04 -1.873889e+00 2.384888e+00 1.330741e-04 6.334090e-05 5.160049e-04
Al 3.076669e-03 -1.851504e+00 7.550648e+00 9.526967e-05 -3.787157e-05 4.268915e-04
Al -9.521626e-03 -1.848301e+00 -2.692078e+00 -1.581509e-04 1.826038e-04 2.467675e-04
Al -1.661471e-02 1.792781e+00 4.973812e+00 5.555532e-05 5.458232e-05 3.432192e-04
Ga -2.247730e-02 1.795175e+00 -5.254362e+00 -2.243830e-04 4.959884e-05 3.576871e-04
Al -1.718841e-02 1.786963e+00 -1.724415e-01 5.476363e-05 -9.444762e-05 -1.189069e-04
Ga 3.158303e+00 -3.703788e+00 4.961054e+00 -1.769337e-04 1.350665e-04 3.340429e-04
Al 3.166033e+00 -3.697962e+00 -5.276661e+00 -1.022722e-04 4.579711e-05 -4.093885e-05
Al 3.150773e+00 -3.698212e+00 -1.354270e-01 -9.240932e-04 9.117376e-05 1.203563e-04
Al 1.573062e+00 -9.426343e-01 4.972017e+00 3.445527e-05 -3.900769e-04 8.356374e-05
Al 1.561147e+00 -9.623582e-01 -5.263830e+00 -2.902335e-05 -5.123526e-06 2.298695e-04
Al 1.564372e+00 -9.541894e-01 -1.614779e-01 -1.188296e-04 -2.001260e-05 -2.065213e-04
Ga 3.147292e+00 1.771507e+00 4.960480e+00 -8.704930e-05 -1.226130e-05 3.914587e-04
Ga 3.145444e+00 1.778616e+00 -5.282727e+00 -1.166722e-05 -1.003339e-04 3.593505e-04
Al 3.132595e+00 1.785822e+00 -1.188312e-01 9.910710e-05 1.513857e-04 5.576078e-05
Ga 6.312836e+00 -3.716312e+00 4.957490e+00 1.295097e-04 -1.140822e-04 2.270929e-04
Al 6.309783e+00 -3.705976e+00 -5.257223e+00 -4.240277e-05 -1.794744e-04 2.354908e-04
Ga 6.320847e+00 -3.719766e+00 -1.330102e-01 1.376971e-04 1.426996e-06 -6.422296e-06
Al 4.721070e+00 -9.408374e-01 4.976603e+00 -1.169538e-04 -2.141629e-04 -1.311648e-04
Ga 4.730608e+00 -9.623655e-01 -5.276378e+00 -2.564763e-04 6.346004e-05 1.327813e-04
Ga 4.716155e+00 -9.610747e-01 -1.397815e-01 -8.684979e-05 -1.972332e-05 2.402830e-05
Al -3.203556e+00 1.790958e+00 4.951756e+00 8.572248e-05 1.778413e-04 6.508323e-05
Al -3.189546e+00 1.785163e+00 -5.258712e+00 -5.896204e-05 -1.728843e-06 3.322160e-04
Ga -3.188883e+00 1.798038e+00 -1.340306e-01 -2.092660e-04 1.457234e-05 5.229078e-04
Ga -9.261491e-03 -3.702964e+00 4.970846e+00 -3.446166e-05 -1.885494e-04 4.461464e-04
Ga -1.422721e-02 -3.683008e+00 -5.260823e+00 -5.578390e-05 2.982643e-05 8.466269e-05
Al -1.633305e-02 -3.694512e+00 -1.456733e-01 1.430294e-04 -4.561186e-05 -2.737756e-04
Ga -1.600000e+00 -9.420045e-01 4.988290e+00 -2.309911e-04 -1.336999e-04 1.212489e-04
Al -1.592930e+00 -9.549456e-01 -5.262183e+00 -5.312708e-05 2.728337e-05 1.540099e-04
Al -1.586075e+00 -9.492765e-01 -1.643752e-01 -1.320270e-04 1.769514e-06 1.980144e-04
N 1.516018e+00 8.507718e-01 4.323753e+00 -2.154655e-04 1.804881e-04 -1.057959e-04
N 1.554551e+00 8.209520e-01 -5.930046e+00 2.116399e-05 -9.753245e-05 1.563786e-04
N 1.566830e+00 8.731172e-01 -7.613037e-01 1.890698e-04 1.127402e-04 -3.410992e-04
N -3.144375e-02 3.569826e+00 4.302884e+00 -2.456593e-05 -4.946746e-05 -1.296608e-04
N -2.397730e-02 3.665954e+00 -5.904376e+00 7.197148e-05 1.390276e-04 -2.998392e-04
N -7.519729e-02 3.608039e+00 -7.796811e-01 2.486545e-04 -2.857344e-04 -5.779703e-05
N 3.146449e+00 -1.822991e+00 4.337033e+00 5.861290e-05 2.296829e-04 4.084025e-05
N 3.101910e+00 -1.893152e+00 -5.915109e+00 1.614494e-05 5.276974e-05 3.572612e-06
N 3.104480e+00 -1.903832e+00 -7.896435e-01 -5.229069e-06 3.860261e-06 2.054465e-04
N -4.746908e+00 8.522504e-01 4.335115e+00 -1.364523e-04 -1.122802e-04 3.062729e-04
N -4.737417e+00 8.992965e-01 -5.928815e+00 3.714179e-04 5.811005e-05 -3.904155e-04
N -4.828561e+00 9.043520e-01 -7.327263e-01 7.874771e-05 8.542320e-05 -3.572097e-05
N -6.366291e+00 3.621417e+00 4.302676e+00 9.972025e-06 5.115714e-05 -4.558331e-04
N -6.413814e+00 3.650520e+00 -5.853165e+00 -8.072869e-06 1.732003e-04 -1.732347e-04
N -6.334065e+00 3.596764e+00 -7.136702e-01 5.964311e-05 -1.364209e-04 1.000809e-04
N -3.237817e+00 -1.841878e+00 4.388912e+00 -7.417394e-05 1.560884e-04 -1.565019e-04
N -3.152811e+00 -1.895655e+00 -5.835340e+00 9.743242e-05 2.592091e-05 -4.463810e-05
N -3.156587e+00 -1.851378e+00 -7.432370e-01 1.047989e-04 1.178104e-04 1.625385e-04
N -1.604121e+00 9.285050e-01 4.397314e+00 3.863539e-04 -1.978498e-04 -2.508962e-04
N -1.647653e+00 8.566585e-01 -5.850836e+00 2.860860e-04 -2.961837e-05 -3.500413e-04
N -1.572579e+00 8.548816e-01 -7.871930e-01 1.714463e-04 1.030098e-05 -9.361554e-05
N -3.195803e+00 3.585054e+00 4.314417e+00 4.677287e-06 2.669354e-05 -4.240289e-04
N -3.153633e+00 3.597619e+00 -5.836263e+00 1.623724e-04 -9.911306e-05 -1.371141e-04
N -3.192535e+00 3.674146e+00 -7.257129e-01 2.412389e-04 1.242180e-04 2.799795e-06
N 2.395589e-02 -1.844829e+00 4.357152e+00 1.000558e-04 1.782457e-04 -3.493285e-04
N -1.343290e-02 -1.817679e+00 -5.902282e+00 1.670851e-05 -3.710822e-05 -2.009471e-04
N -1.745565e-02 -1.868691e+00 -7.614551e-01 1.250124e-04 -1.183873e-04 -2.890234e-04
N 2.116160e-02 1.813638e+00 1.748861e+00 -4.337992e-04 3.541871e-04 5.320752e-05
N 2.190268e-02 1.822636e+00 6.903540e+00 -2.840073e-05 7.147250e-05 -1.387636e-04
N -1.589882e-02 1.794131e+00 -3.263601e+00 -2.513991e-04 1.073041e-04 -2.744943e-05
N 3.155873e+00 -3.697148e+00 1.797648e+00 -6.758232e-08 -3.054713e-05 -9.348947e-05
N 3.196690e+00 -3.678821e+00 6.946714e+00 -2.809712e-05 2.510200e-04 -2.035702e-04
N 3.201340e+00 -3.678062e+00 -3.356458e+00 -1.923079e-05 1.029053e-04 1.801741e-04
N 1.614381e+00 -9.287393e-01 1.754811e+00 -2.308333e-04 2.470863e-04 2.669840e-04
N 1.566105e+00 -9.540237e-01 6.901054e+00 -8.698442e-05 1.021147e-04 -4.073962e-04
N 1.565052e+00 -9.548381e-01 -3.323437e+00 -9.013348e-05 1.534889e-04 -5.411424e-04
N 3.146295e+00 1.785853e+00 1.805664e+00 -1.252042e-05 -1.494845e-04 -7.696064e-05
N 3.146691e+00 1.744009e+00 6.947167e+00 -1.799772e-04 -1.332121e-04 -1.929911e-04
N 3.102137e+00 1.761213e+00 -3.312806e+00 -2.635563e-04 -1.488243e-04 -2.097093e-04
N 6.324612e+00 -3.752611e+00 1.838870e+00 -2.696193e-04 -1.610371e-04 -8.497979e-05
N 6.283507e+00 -3.729056e+00 6.927748e+00 -1.477821e-04 -1.088065e-04 -2.673624e-04
N 6.278537e+00 -3.736806e+00 -3.344133e+00 2.736363e-04 1.426313e-04 -1.010770e-04
N 4.690178e+00 -9.322883e-01 1.831575e+00 3.071056e-04 1.461606e-04 -1.921099e-04
N 4.692077e+00 -9.320836e-01 6.907051e+00 -1.345922e-04 6.708189e-05 -7.587414e-05
N 4.690382e+00 -9.813768e-01 -3.304419e+00 -1.229172e-04 6.430969e-05 -7.740761e-05
N -3.237169e+00 1.813321e+00 1.838472e+00 -3.553309e-04 -1.846103e-04 -2.431005e-04
N -3.241250e+00 1.775021e+00 6.869447e+00 -2.375606e-04 6.440078e-05 -6.605733e-05
N -3.157479e+00 1.766894e+00 -3.342247e+00 -5.288360e-05 2.106795e-05 -1.750066e-04
N -1.869509e-02 -3.749035e+00 1.770911e+00 -9.823317e-05 2.049289e-05 5.873097e-06
N -1.860348e-02 -3.655503e+00 6.950872e+00 -2.664307e-05 2.310687e-04 -2.372665e-04
N -2.195618e-02 -3.650608e+00 -3.288223e+00 7.732339e-05 -8.152022e-06 -7.469453e-05
N -1.606828e+00 -9.479349e-01 1.744103e+00 -1.326126e-04 1.087988e-04 -3.392521e-04
N -1.566091e+00 -9.783752e-01 6.953691e+00 -1.546380e-04 -1.351431e-05 -8.944813e-05
N -1.557643e+00 -9.328188e-01 -3.339172e+00 8.698760e-05 1.720532e-04 1.564597e-04
