108
Energy=-2496561.377227 Lattice="9.646048 0.000000 0.000000 -4.823149 8.357941 0.000000 -0.002620 0.001712 15.656450" Stress="-0.000006 0.000000 0.000000 0.000000 -0.000001 -0.000001 0.000000 -0.000001 -0.000002" Properties=species:S:1:pos:R:3:forces:R:3
Al 1.578977 0.910302 2.471189 -0.000591 -0.000009 -0.000125
Al 1.594664 0.897261 7.670224 0.000107 -0.000384 0.000045
Ga 1.584279 0.895624 -2.756125 -0.000107 -0.000512 -0.000692
Al -0.024234 3.665718 2.471362 -0.000269 0.000785 -0.000152
Al -0.030478 3.677878 7.660255 0.000076 -0.000145 0.000141
Ga -0.021839 3.666509 -2.750519 -0.000088 -0.000346 0.000594
Ga 3.190522 -1.899611 2.483122 -0.000284 0.000915 0.000136
Al 3.190930 -1.906736 7.656779 0.000002 0.000146 0.000153
Ga 3.191560 -1.898119 -2.756247 -0.000051 -0.000242 0.000062
Ga -4.863174 0.898292 2.483970 -0.000253 0.000176 0.000069
Ga -4.876619 0.889679 7.676593 -0.000071 -0.000403 0.000012
Ga -4.857124 0.892099 -2.771577 0.000123 -0.000684 -0.000006
Ga -6.469004 3.667045 2.481913 -0.000301 0.000666 0.000244
Ga -6.473288 3.652151 7.672075 -0.000024 -0.000260 0.000092
Ga -6.456542 3.664832 -2.767004 0.000011 -0.000197 0.000159
Ga -3.245127 -1.900903 2.471501 -0.000180 0.000883 0.000089
Ga -3.252284 -1.905975 7.677334 -0.000109 -0.000007 0.000140
Ga -3.241431 -1.901184 -2.759533 -0.000048 -0.000185 0.000209
Ga -1.611686 0.909392 2.461917 0.000454 0.000049 -0.000164
Ga -1.617598 0.898640 7.674367 0.000169 -0.000398 0.000094
Ga -1.620530 0.897039 -2.741647 0.000278 -0.000370 -0.000476
Ga -3.224854 3.685122 2.487114 0.000197 0.000864 -0.000050
Ga -3.217897 3.686697 7.665901 0.000142 -0.000099 0.000063
Ga -3.235934 3.676311 -2.758788 0.000204 -0.000201 0.000084
Ga -0.016626 -1.882424 2.473409 -0.000033 0.001119 0.000173
Ga -0.010677 -1.886671 7.678404 0.000186 0.000094 0.000080
Ga -0.016716 -1.897089 -2.758505 0.000193 -0.000147 0.000078
Ga -0.005628 1.834179 5.075068 -0.000177 -0.000401 -0.000162
Ga -0.004113 1.823032 -5.399636 -0.000268 -0.000261 -0.000096
Al -0.012608 1.813848 -0.118142 -0.000516 0.001729 0.000050
Al 3.206522 -3.756256 5.079332 -0.000483 0.000011 -0.000123
Ga 3.203181 -3.751212 -5.389099 -0.000335 -0.000138 -0.000053
Ga 3.203328 -3.775903 -0.130500 -0.000195 0.001377 -0.000225
Ga 1.599196 -0.954020 5.083074 -0.000196 0.000305 0.000007
Ga 1.601863 -0.954761 -5.397427 -0.000288 0.000044 -0.000104
Ga 1.584670 -0.962708 -0.128404 -0.000701 0.001395 0.000049
Al 3.177768 1.812621 5.071562 -0.000052 -0.000302 0.000085
Al 3.183001 1.813414 -5.381357 0.000088 -0.000187 -0.000077
Ga 3.179346 1.802491 -0.131461 -0.000224 0.001864 -0.000166
Ga 6.391033 -3.768659 5.072526 0.000157 0.000106 0.000130
Ga 6.404202 -3.769569 -5.385710 0.000083 -0.000055 0.000099
Ga 6.402320 -3.778505 -0.127718 -0.000701 0.001508 -0.000333
Ga 4.787745 -0.967809 5.088225 -0.000131 0.000129 0.000074
Ga 4.787048 -0.966086 -5.388959 -0.000042 0.000166 0.000013
Ga 4.799789 -0.978755 -0.136809 -0.000322 0.001959 -0.000349
Ga -3.245351 1.825635 5.075196 0.000207 -0.000094 0.000123
Ga -3.247016 1.816850 -5.373411 0.000155 -0.000053 0.000027
Ga -3.231832 1.805990 -0.138867 -0.000146 0.001912 -0.000149
Ga -0.021374 -3.761860 5.078705 0.000141 0.000185 0.000211
Ga -0.028332 -3.764471 -5.379006 0.000164 -0.000006 0.000100
Ga -0.021640 -3.768572 -0.136532 -0.000207 0.001868 -0.000406
Ga -1.630403 -0.966222 5.075026 0.000079 0.000424 -0.000054
Ga -1.629634 -0.966130 -5.362538 0.000101 0.000226 -0.000039
Ga -1.623733 -0.971077 -0.142937 -0.000181 0.001558 -0.000148
N 1.621092 0.916145 4.399052 0.000212 -0.000052 -0.000370
N 1.632297 0.916196 -6.059109 0.000203 -0.000094 -0.000196
N 1.539822 0.910859 -0.768362 0.000209 -0.000703 0.000171
N -0.068101 3.694896 4.397851 -0.000245 0.000251 0.000088
N -0.025628 3.675935 -6.077591 -0.000065 -0.000046 -0.000453
N -0.021140 3.617193 -0.763615 0.000035 -0.001308 0.000361
N 3.190438 -1.946993 4.465732 0.000015 -0.000044 -0.000008
N 3.192656 -1.904254 -6.078056 0.000018 -0.000033 -0.000405
N 3.188536 -1.904861 -0.772443 0.000237 -0.000941 -0.000234
N -4.891754 0.913472 4.467608 -0.000371 0.000068 -0.000051
N -4.893158 0.916018 -5.993837 -0.000334 -0.000080 0.000122
N -4.851677 0.886394 -0.785931 0.000126 -0.001226 -0.000008
N -6.456510 3.626044 4.466681 -0.000172 -0.000099 -0.000173
N -6.455310 3.619858 -5.997896 -0.000105 -0.000284 0.000083
N -6.454885 3.664302 -0.781324 0.000084 -0.001060 -0.000043
N -3.242032 -1.898138 4.448194 -0.000096 0.000152 -0.000080
N -3.236877 -1.899369 -6.002837 -0.000049 0.000045 -0.000133
N -3.237878 -1.908200 -0.775060 0.000102 -0.000863 -0.000226
N -1.624161 0.897819 4.441613 0.000311 -0.000096 0.000149
N -1.629720 0.890535 -6.007421 0.000339 -0.000138 -0.000014
N -1.580159 0.914042 -0.749517 0.000383 -0.000601 0.000327
N -3.193309 3.703032 4.469927 0.000630 0.000462 0.000140
N -3.233563 3.675523 -6.013917 0.000318 0.000147 0.000020
N -3.235618 3.669868 -0.778347 0.000449 -0.000890 0.000043
N -0.016291 -1.894146 4.450342 0.000130 0.000246 -0.000077
N -0.020732 -1.896011 -6.002380 0.000189 0.000164 -0.000062
N -0.016386 -1.903414 -0.776337 0.000344 -0.000718 -0.000031
N 0.023387 1.854223 1.820884 0.000388 -0.001645 -0.000355
N 0.025229 1.843506 7.070279 -0.000056 0.000310 0.000117
N -0.018583 1.818547 -3.418537 -0.000170 0.000046 0.000204
N 3.236850 -3.770790 1.850771 0.000051 -0.001568 -0.000043
N 3.239860 -3.732310 7.012772 -0.000031 0.000043 -0.000109
N 3.199748 -3.754614 -3.405153 -0.000197 -0.000019 -0.000025
N 1.588431 -0.907148 1.858282 0.000103 -0.000516 0.000793
N 1.628472 -0.937328 7.077270 -0.000077 0.000438 0.000114
N 1.590932 -0.963720 -3.409921 -0.000220 0.000295 0.000188
N 3.147017 1.803682 1.847500 0.000144 -0.001824 0.000146
N 3.143353 1.791015 6.991377 -0.000191 0.000003 -0.000228
N 3.184441 1.813879 -3.456282 -0.000034 0.000127 -0.000235
N 6.361984 -3.773548 1.859139 0.000299 -0.001494 0.000224
N 6.362515 -3.781066 7.054888 -0.000329 -0.000107 0.000082
N 6.403024 -3.759896 -3.401656 0.000038 0.000041 -0.000211
N 4.794530 -0.956876 1.839523 0.000281 -0.001203 0.000518
N 4.757022 -0.989997 7.066860 -0.000258 0.000218 0.000060
N 4.796218 -0.972113 -3.405575 -0.000039 0.000479 0.000055
N -3.244959 1.828521 1.843597 0.000247 -0.001423 -0.000063
N -3.245061 1.814488 7.049808 0.000088 0.000285 -0.000126
N -3.235892 1.814408 -3.390674 0.000084 0.000209 0.000012
N -0.026802 -3.747768 1.845860 0.000459 -0.001605 0.000240
N -0.029434 -3.756696 7.053395 0.000118 0.000199 -0.000207
N -0.024176 -3.756778 -3.398072 0.000108 0.000073 -0.000116
N -1.634039 -0.958402 1.833583 0.000409 -0.000923 0.000503
N -1.633359 -0.969036 7.046508 0.000087 0.000491 -0.000042
N -1.630052 -0.965260 -3.382206 0.000064 0.000437 0.000026
