108
Energy=-1169068.127660 Lattice="9.476987 0.000000 0.000000 -4.740246 8.203469 0.000000 -0.001266 -0.000702 15.290018" Stress="-0.000072 0.000032 0.000000 0.000032 -0.000046 -0.000003 0.000000 -0.000003 -0.000022" Properties=species:S:1:pos:R:3:forces:R:3
Al 1.559217 0.892301 2.487658 0.001220 -0.008956 -0.016267
Al 1.563463 0.899451 7.503686 -0.001329 -0.013472 -0.003704
Al 1.564702 0.895097 -2.763549 -0.001988 -0.009235 0.000173
Al -0.002140 3.609744 2.485971 -0.003705 -0.002837 -0.010117
Al -0.000938 3.610132 7.511458 -0.003238 -0.001453 -0.002483
Al 0.003975 3.607712 -2.757408 -0.002842 -0.001058 -0.002938
Al 3.168781 -1.882455 2.484420 -0.001424 0.000859 -0.010916
Al 3.164738 -1.889617 7.499119 -0.001623 0.005092 0.000686
Al 3.152294 -1.876311 -2.759737 0.002297 0.001072 -0.004232
Al -4.791495 0.908373 2.459019 0.002472 -0.015000 -0.005452
Al -4.784020 0.901460 7.507693 0.001198 -0.012491 -0.002512
Ga -4.783354 0.900974 -2.756445 0.001511 -0.015904 -0.002599
Al -6.348435 3.615371 2.473970 -0.000451 -0.004344 -0.010347
Ga -6.349223 3.610444 7.509960 -0.000277 -0.000271 -0.000537
Al -6.345839 3.612994 -2.749799 0.000399 0.000352 -0.000195
Al -3.175902 -1.882349 2.480588 0.005716 0.007748 -0.012329
Ga -3.175064 -1.882483 7.509051 -0.000981 0.002918 -0.000365
Ga -3.171663 -1.883984 -2.757439 0.000185 0.002907 -0.002101
Al -1.659693 0.895618 2.480194 0.017345 -0.003208 -0.011193
Al -1.652587 0.901823 7.507160 0.013260 -0.006912 -0.004078
Al -1.653545 0.900761 -2.754011 0.013416 -0.008254 -0.004402
Al -3.219002 3.609642 2.476863 0.013371 0.005249 -0.008166
Ga -3.217751 3.613837 7.510434 0.014691 0.007211 -0.003826
Ga -3.216473 3.610840 -2.757353 0.013349 0.007061 -0.002148
Al -0.027831 -1.878325 2.472300 0.007983 0.008698 -0.010051
Al -0.051164 -1.878913 7.498211 0.014293 0.006893 -0.000413
Al -0.029426 -1.876258 -2.766094 0.004429 0.005503 0.003806
Ga -0.001324 1.805759 4.995855 -0.014527 -0.009223 -0.006508
Al -0.000073 1.802657 -5.269368 -0.013204 -0.006650 -0.004170
Al -0.000889 1.799468 -0.251276 -0.011301 -0.009235 0.030647
Al 3.170927 -3.688349 4.991157 -0.011016 -0.005640 -0.002768
Ga 3.175846 -3.688128 -5.266307 -0.014009 -0.007765 -0.004440
Al 3.174432 -3.693603 -0.255836 -0.012821 -0.005712 0.030863
Al 1.605912 -0.980247 4.993586 -0.012742 0.007267 -0.005153
Ga 1.601837 -0.973640 -5.267218 -0.014668 0.008428 -0.010069
Ga 1.610280 -0.985959 -0.227238 -0.017474 0.009583 0.032386
Al 3.128906 1.804741 4.992108 0.000012 -0.002285 -0.000883
Al 3.132696 1.804588 -5.265725 -0.001693 -0.003101 -0.003363
Ga 3.128609 1.798680 -0.234973 0.000488 -0.003156 0.033948
Al 6.305035 -3.685891 4.988378 -0.001047 -0.002400 0.000660
Al 6.307061 -3.692197 -5.266231 -0.000045 0.001174 -0.001302
Al 6.299594 -3.698692 -0.227164 0.001112 0.002009 0.028348
Ga 4.734567 -0.979769 4.996191 -0.001442 0.016561 -0.005351
Al 4.737532 -0.977868 -5.268853 -0.000675 0.012638 -0.003444
Al 4.736303 -0.985416 -0.255841 -0.001004 0.014372 0.031129
Ga -3.220628 1.806102 4.994558 0.002358 -0.001442 -0.003093
Ga -3.216856 1.803682 -5.269766 0.003107 -0.002144 -0.002527
Al -3.207116 1.805499 -0.214771 -0.000769 -0.002974 0.023389
Al -0.044044 -3.687388 4.984919 0.003283 0.000641 -0.000253
Al -0.043294 -3.689196 -5.267348 0.002452 0.001193 -0.001971
Al -0.052295 -3.692833 -0.201400 0.006647 0.000516 0.022304
Ga -1.609638 -0.979825 4.991597 0.002136 0.017594 -0.005263
Al -1.603580 -0.982138 -5.277419 -0.001713 0.015020 -0.000165
Ga -1.611805 -0.983331 -0.231867 0.003914 0.018639 0.033754
N 1.563977 0.899871 4.400162 0.019272 -0.023351 -0.003991
N 1.553563 0.908435 -5.872267 0.003835 0.002729 -0.000582
N 1.563763 0.894308 -0.835968 -0.019483 -0.006692 -0.009844
N -0.001352 3.614240 4.398741 -0.002106 0.021555 -0.004300
N 0.001569 3.609779 -5.863496 0.015895 -0.010313 -0.005995
N -0.000262 3.606268 -0.843232 -0.001553 0.000613 0.004913
N 3.168440 -1.882425 4.398767 -0.020937 -0.008906 -0.005483
N 3.172181 -1.878778 -5.859819 0.013705 0.012301 -0.016434
N 3.170350 -1.886779 -0.845056 0.015314 -0.008556 -0.003419
N -4.788171 0.903652 4.400352 -0.018085 -0.006008 -0.014690
N -4.784301 0.902142 -5.866593 -0.017898 -0.023554 -0.004135
N -4.782741 0.896892 -0.840240 0.022041 -0.022688 0.022901
N -6.348521 3.612538 4.391648 -0.000615 -0.001259 0.000474
N -6.346508 3.609553 -5.861925 -0.000241 0.000319 0.023824
N -6.349650 3.609565 -0.826188 -0.000787 0.022287 -0.005159
N -3.176876 -1.884914 4.398930 0.000364 -0.017399 -0.015120
N -3.174976 -1.881071 -5.863703 -0.000387 0.000463 0.023832
N -3.175543 -1.887073 -0.840996 -0.019078 -0.010401 0.021454
N -1.655122 0.903311 4.397422 0.015122 -0.010253 -0.012156
N -1.650348 0.900319 -5.867944 0.031227 -0.017800 -0.001127
N -1.652456 0.900009 -0.835657 0.012235 0.010137 0.001648
N -3.220679 3.612349 4.393332 0.011693 0.027167 -0.003061
N -3.218327 3.612925 -5.862807 -0.003177 0.019038 0.012621
N -3.217166 3.607869 -0.842640 0.009469 0.006392 0.033563
N -0.042918 -1.881029 4.391124 0.028834 -0.003493 -0.003658
N -0.048521 -1.883473 -5.864659 -0.001756 -0.001639 -0.004612
N -0.044562 -1.891867 -0.817758 0.014933 -0.010960 -0.013338
N -0.003776 1.799830 1.898837 -0.009863 -0.004652 -0.027131
N -0.001092 1.804518 6.913189 -0.011440 -0.007344 0.025467
N 0.000030 1.801255 -3.353611 -0.011471 -0.005991 0.004081
N 3.173051 -3.691119 1.894526 -0.012173 -0.005048 -0.026643
N 3.178220 -3.685379 6.917177 0.002493 0.000057 -0.005835
N 3.178617 -3.689443 -3.350050 0.002327 0.004167 0.021607
N 1.603254 -0.980594 1.879651 -0.008573 0.007098 -0.007113
N 1.603626 -0.981435 6.906449 -0.013172 0.007828 0.006159
N 1.587888 -0.961055 -3.349282 -0.006900 0.002600 0.026060
N 3.136322 1.800384 1.806007 -0.004309 0.000462 0.006639
N 3.128935 1.803221 6.909485 0.000616 -0.022665 -0.006655
N 3.128914 1.805605 -3.350922 -0.017766 0.008603 -0.006749
N 6.300907 -3.688468 1.879571 0.001972 0.000576 -0.025827
N 6.299814 -3.691473 6.915609 -0.016357 -0.010221 -0.016338
N 6.307390 -3.692010 -3.351134 -0.000036 -0.021930 -0.005981
N 4.734878 -0.980416 1.892233 0.000136 0.013048 -0.027019
N 4.735497 -0.979100 6.913424 -0.019507 0.023057 0.018401
N 4.738164 -0.981056 -3.354855 -0.021975 0.005127 -0.008416
N -3.217806 1.803648 1.873186 0.001761 -0.000666 -0.026660
N -3.218282 1.804977 6.912846 0.002549 -0.022641 0.015770
N -3.216431 1.802974 -3.352354 0.021069 -0.011958 0.007683
N -0.040305 -3.686530 1.874228 0.000963 -0.000561 -0.024492
N -0.043926 -3.684869 6.915029 0.001327 0.020629 -0.017598
N -0.041154 -3.686589 -3.351946 -0.015797 0.010735 -0.006636
N -1.565082 -0.942816 1.848678 -0.014242 -0.000376 -0.002736
N -1.607644 -0.979512 6.910319 0.016924 0.024491 0.017848
N -1.604974 -0.979031 -3.349942 0.018972 0.023766 -0.006012
