108
Energy=-573990.773841 Lattice="9.412520 0.000000 0.000000 -4.706425 8.151827 0.000000 0.000162 -0.000039 15.095791" Stress="0.000000 -0.000000 0.000000 -0.000000 0.000000 0.000000 0.000000 0.000000 0.000002" Properties=species:S:1:pos:R:3:forces:R:3
Al 1.545408 0.866859 2.365155 -0.000004 -0.000021 -0.000026
Al 1.545586 0.866817 7.397057 0.000017 -0.000001 0.000026
Al 1.547815 0.867310 -2.667355 0.000020 0.000008 0.000040
Al -0.021855 3.583328 2.365618 -0.000014 0.000004 -0.000029
Al -0.022474 3.583431 7.397369 0.000005 0.000021 0.000021
Al -0.023136 3.585033 -2.667372 -0.000001 0.000008 0.000047
Al 3.109242 -1.853041 2.379912 -0.000185 -0.000066 0.000041
Al 3.114835 -1.850821 7.396196 0.000003 0.000002 0.000012
Al 3.110021 -1.854259 -2.677692 0.000007 0.000011 0.000061
Al -4.728363 0.873680 2.379383 -0.000071 -0.000019 0.000008
Al -4.728482 0.867084 7.395965 -0.000006 -0.000006 0.000010
Al -4.729940 0.873597 -2.677654 -0.000014 -0.000016 -0.000064
Al -6.297481 3.584933 2.364645 -0.000008 0.000002 -0.000034
Al -6.301674 3.581888 7.386513 -0.000003 0.000017 0.000006
Al -6.305323 3.578535 -2.652585 -0.000061 -0.000037 0.000063
Al -3.158820 -1.856537 2.369527 -0.000194 0.000062 -0.000086
Al -3.166677 -1.854908 7.410417 -0.000101 -0.000087 0.000062
Al -3.154622 -1.853406 -2.678319 -0.000022 -0.000011 0.000101
Al -1.590975 0.872812 2.354984 0.000034 -0.000005 -0.000019
Al -1.590900 0.875163 7.411556 -0.000010 -0.000144 -0.000014
Al -1.591785 0.866631 -2.668093 0.000002 -0.000002 0.000029
Al -3.160897 3.584027 2.365003 0.000001 0.000021 -0.000021
Al -3.155644 3.581645 7.386785 -0.000015 0.000013 0.000008
Al -3.151604 3.580153 -2.652533 -0.000042 0.000012 0.000033
Al -0.017482 -1.853327 2.354376 0.000018 -0.000005 -0.000021
Al -0.015350 -1.849798 7.401290 0.000002 -0.000059 0.000022
Al -0.022475 -1.841220 -2.653222 -0.000006 -0.000018 0.000050
Al -0.018557 1.779594 4.882188 0.000004 0.000006 0.000009
Al -0.021175 1.773709 -5.179155 0.000009 0.000021 0.000028
Al -0.021132 1.773336 -0.155597 0.000010 0.000025 0.000002
Al 3.116089 -3.663045 4.880642 -0.000003 0.000018 0.000001
Al 3.123437 -3.663774 -5.185415 -0.000026 0.000020 0.000027
Al 3.112792 -3.668578 -0.145451 0.000020 0.000031 0.000034
Al 1.554181 -0.943725 4.883092 -0.000034 0.000007 0.000004
Al 1.551061 -0.936331 -5.181078 -0.000011 -0.000010 0.000027
Al 1.540931 -0.942669 -0.149254 0.000004 0.000022 0.000076
Al 3.113778 1.772371 4.880711 -0.000026 0.000007 0.000014
Al 3.109410 1.766439 -5.185913 0.000000 0.000001 0.000045
Al 3.110479 1.777957 -0.144453 -0.000018 -0.000013 0.000006
Al 6.247604 -3.670121 4.883226 -0.000009 -0.000019 0.000025
Al 6.244032 -3.665544 -5.181366 -0.000004 0.000018 0.000040
Al 6.255042 -3.669888 -0.149001 -0.000017 -0.000088 0.000038
Al 4.675878 -0.944793 4.884241 -0.000026 -0.000016 0.000020
Al 4.682181 -0.944193 -5.181662 -0.000008 -0.000011 0.000032
Ga 4.682157 -0.944048 -0.149331 0.000008 0.000085 0.000122
Al -3.162770 1.779552 4.883011 -0.000005 -0.000005 0.000031
Al -3.155762 1.767732 -5.181272 -0.000029 -0.000003 0.000051
Al -3.156967 1.778687 -0.149031 -0.000098 -0.000053 -0.000035
Al -0.018117 -3.668824 4.880939 -0.000021 0.000001 0.000021
Ga -0.021981 -3.664449 -5.171802 -0.000014 -0.000008 0.000028
Al -0.022489 -3.663424 -0.155135 -0.000019 -0.000001 -0.000012
Ga -1.590435 -0.943398 4.888224 -0.000019 0.000055 0.000031
Al -1.593628 -0.936919 -5.184569 -0.000038 -0.000014 0.000023
Al -1.584407 -0.943293 -0.147219 -0.000064 -0.000045 0.000010
N 1.544998 0.866743 4.284328 0.000013 -0.000005 -0.000056
N 1.544664 0.867283 -5.781262 -0.000012 -0.000016 -0.000021
N 1.548282 0.867020 -0.748266 -0.000018 -0.000009 0.000059
N -0.022592 3.583283 4.282899 -0.000009 -0.000013 -0.000049
N -0.022266 3.582186 -5.781264 -0.000005 -0.000013 -0.000019
N -0.023370 3.585566 -0.748497 -0.000023 -0.000022 0.000064
N 3.112734 -1.852271 4.293089 -0.000011 -0.000002 -0.000040
N 3.114542 -1.850817 -5.778724 -0.000001 0.000014 -0.000005
N 3.072436 -1.876346 -0.768092 -0.000085 -0.000047 0.000010
N -4.728244 0.869488 4.294301 0.000039 -0.000004 -0.000061
N -4.728555 0.867474 -5.778714 0.000023 0.000000 -0.000016
N -4.730418 0.916692 -0.768523 0.000139 0.000085 0.000260
N -6.297861 3.584618 4.285667 0.000023 -0.000004 -0.000049
N -6.338787 3.560575 -5.800042 -0.000038 -0.000030 -0.000033
N -6.301389 3.580635 -0.739538 0.000020 -0.000005 0.000079
N -3.199430 -1.876396 4.275025 -0.000054 -0.000000 -0.000103
N -3.162952 -1.853199 -5.768807 -0.000003 0.000012 0.000005
N -3.117624 -1.875507 -0.766226 0.000104 0.000161 -0.000141
N -1.590708 0.916054 4.264489 0.000029 -0.000023 -0.000059
N -1.589936 0.871776 -5.771266 0.000043 -0.000018 -0.000040
N -1.592171 0.866628 -0.747039 -0.000003 -0.000029 0.000052
N -3.159619 3.584054 4.284244 0.000018 -0.000025 -0.000059
N -3.119000 3.560115 -5.799938 0.000066 -0.000029 -0.000043
N -3.155462 3.582526 -0.739698 0.000002 -0.000030 0.000061
N 0.019916 -1.874451 4.265728 0.000071 -0.000016 -0.000078
N -0.018442 -1.805569 -5.789397 0.000025 0.000075 -0.000028
N -0.022327 -1.846168 -0.738298 -0.000004 0.000010 0.000061
N -0.019763 1.774134 1.761490 -0.000018 -0.000026 -0.000045
N -0.023048 1.772370 6.801080 -0.000022 -0.000044 -0.000030
N -0.021701 1.773148 -3.260143 -0.000013 -0.000016 -0.000003
N 3.115836 -3.660874 1.773143 -0.000019 -0.000019 -0.000050
N 3.117867 -3.661276 6.797015 -0.000010 0.000004 -0.000022
N 3.114915 -3.665321 -3.269277 -0.000017 -0.000009 -0.000020
N 1.550227 -0.942801 1.766675 -0.000055 0.000010 -0.000102
N 1.547897 -0.943327 6.798543 -0.000026 0.000027 -0.000029
N 1.544235 -0.942599 -3.265680 -0.000035 0.000010 -0.000015
N 3.115368 1.771888 1.773866 0.000033 -0.000000 -0.000065
N 3.114353 1.770025 6.796655 0.000010 -0.000021 -0.000020
N 3.112090 1.774804 -3.269779 -0.000005 -0.000007 -0.000036
N 6.252029 -3.663763 1.766668 0.000000 0.000005 -0.000004
N 6.249968 -3.660816 6.798574 -0.000021 -0.000009 -0.000029
N 6.252880 -3.666187 -3.265962 -0.000004 -0.000006 -0.000007
N 4.680029 -0.942832 1.825104 0.000551 0.000023 -0.000108
N 4.684252 -0.945013 6.804260 -0.000010 0.000017 -0.000024
N 4.683096 -0.944083 -3.261975 -0.000003 -0.000005 -0.000024
N -3.163391 1.773202 1.766640 -0.000009 -0.000071 -0.000073
N -3.158878 1.769880 6.798355 0.000034 -0.000029 -0.000019
N -3.158076 1.775204 -3.265873 0.000034 0.000004 -0.000023
N -0.022689 -3.664829 1.763582 0.000024 -0.000000 -0.000022
N -0.022163 -3.661499 6.800767 0.000038 -0.000006 -0.000016
N -0.022719 -3.662711 -3.196345 0.000140 0.000026 0.000030
N -1.592353 -0.944444 1.772167 -0.000030 0.000035 -0.000020
N -1.593519 -0.943999 6.860985 0.000153 0.000353 -0.000004
N -1.588148 -0.943048 -3.267151 0.000015 0.000020 0.000006
