108
Energy=-802868.034090 Lattice="9.441445 0.000000 0.000000 -4.725385 8.171658 0.000000 -0.002475 -0.000283 15.175018" Stress="0.000002 -0.000001 -0.000001 -0.000001 -0.000001 0.000000 -0.000001 0.000000 0.000005" Properties=species:S:1:pos:R:3:forces:R:3
Al 1.549090 0.872941 2.384271 0.000360 0.000017 0.000074
Al 1.546649 0.868040 7.424073 0.000345 -0.000101 0.000276
Al 1.557854 0.872666 -2.679207 -0.000165 -0.000021 0.000026
Al -0.037010 3.585607 2.384893 -0.000061 -0.000188 -0.000138
Al -0.026330 3.585769 7.433541 -0.000078 -0.000125 0.000173
Al -0.022094 3.583247 -2.676543 0.000127 0.000231 -0.000264
Al 3.123298 -1.860060 2.398040 0.000039 -0.000116 -0.000255
Al 3.121837 -1.852707 7.404067 0.000001 -0.000003 -0.000035
Al 3.124580 -1.855309 -2.659985 -0.000857 -0.000667 0.000187
Al -4.748187 0.876913 2.394361 -0.000018 -0.000075 0.000022
Al -4.746340 0.876578 7.419163 0.000354 -0.000204 -0.000125
Al -4.742197 0.881372 -2.676845 0.000109 -0.000020 -0.000069
Al -6.309487 3.585043 2.389573 0.000089 -0.000117 -0.000202
Al -6.321106 3.587240 7.430351 0.000188 -0.000008 -0.000047
Al -6.324650 3.577468 -2.676312 0.000012 0.000057 0.000184
Al -3.163490 -1.843865 2.403288 0.000249 0.000078 -0.000303
Al -3.170265 -1.851863 7.420418 0.000032 0.000048 -0.000203
Al -3.172740 -1.863090 -2.671642 0.000768 0.000203 -0.000002
Al -1.599002 0.872580 2.385271 0.000373 -0.000266 -0.000088
Al -1.601736 0.880674 7.416406 0.000482 -0.000456 -0.000043
Al -1.600228 0.884881 -2.665898 -0.000069 -0.000399 -0.000004
Al -3.173595 3.596316 2.385581 0.000266 -0.000302 -0.000244
Al -3.173815 3.588144 7.404958 0.000097 -0.000235 -0.000115
Al -3.165939 3.577406 -2.651214 -0.000188 0.000039 0.000157
Al -0.024306 -1.852636 2.381182 0.000166 -0.000347 -0.000387
Al -0.016859 -1.850343 7.407866 0.000345 -0.000164 -0.000344
Ga -0.013093 -1.849769 -2.645765 0.000377 0.000074 -0.000054
Al -0.029045 1.768452 4.905100 -0.000250 0.000104 0.000279
Al -0.014646 1.772721 -5.214837 -0.000213 0.000007 0.000417
Al -0.024659 1.764570 -0.144843 -0.000038 0.000510 0.000095
Al 3.118600 -3.674373 4.907786 -0.000203 0.000204 -0.000054
Ga 3.129514 -3.678706 -5.210237 -0.000438 0.000075 -0.000033
Al 3.115698 -3.682748 -0.141292 -0.000011 0.000839 0.000017
Al 1.551463 -0.944846 4.894618 -0.000604 0.000381 0.000098
Al 1.557201 -0.930388 -5.221185 0.000117 0.000193 -0.000064
Al 1.551884 -0.942417 -0.120058 -0.000078 -0.000100 0.000540
Al 3.123684 1.769523 4.908769 -0.000116 -0.000043 0.000310
Al 3.113425 1.774304 -5.217500 0.000115 -0.000046 0.000189
Al 3.124431 1.772000 -0.144974 -0.000287 0.000423 0.000874
Ga 6.271778 -3.673716 4.905923 0.000042 -0.000041 -0.000380
Al 6.274507 -3.686424 -5.212757 0.000304 -0.000114 -0.000001
Ga 6.281001 -3.684237 -0.128358 0.000030 0.000207 0.000760
Al 4.694238 -0.935610 4.906714 -0.000178 0.000053 -0.000226
Ga 4.693222 -0.939143 -5.205407 -0.000353 0.000141 -0.000155
Ga 4.694472 -0.939656 -0.137818 -0.000039 0.000195 0.000370
Al -3.174257 1.778401 4.896876 -0.000021 0.000027 -0.000191
Al -3.169965 1.779783 -5.213888 0.000056 -0.000231 0.000295
Al -3.165373 1.782856 -0.133181 -0.000321 0.000299 -0.000116
Al -0.014804 -3.669024 4.904041 0.000005 0.000113 -0.000102
Ga -0.020997 -3.682096 -5.216787 0.000014 0.000131 0.000218
Al -0.011273 -3.681371 -0.130595 -0.000147 0.000251 0.000218
Al -1.589123 -0.934435 4.909522 -0.000299 0.000150 -0.000089
Ga -1.587888 -0.933254 -5.221001 -0.000635 0.000171 0.000354
Al -1.588042 -0.932747 -0.128012 0.000205 -0.000531 0.000079
N 1.547199 0.873436 4.302691 0.000426 -0.000235 -0.000267
N 1.549005 0.870303 -5.824522 0.000064 -0.000098 -0.000275
N 1.551860 0.864743 -0.749572 0.000195 0.000002 -0.000104
N -0.071498 3.565505 4.290793 -0.000348 -0.000229 0.000018
N 0.014712 3.565872 -5.826091 0.000033 -0.000247 -0.000408
N -0.060858 3.565107 -0.760427 -0.000466 -0.000307 0.000233
N 3.125145 -1.858180 4.314422 0.000075 -0.000087 0.000133
N 3.086008 -1.832652 -5.861966 0.000314 -0.000174 -0.000048
N 3.079612 -1.878242 -0.749540 -0.000040 -0.000413 0.000070
N -4.749575 0.874113 4.308601 0.000339 0.000027 -0.000076
N -4.744148 0.918572 -5.835078 0.000162 0.000284 -0.000036
N -4.739909 0.921473 -0.763192 0.000006 -0.000226 0.000067
N -6.276009 3.566031 4.294472 0.000363 -0.000246 0.000061
N -6.358083 3.566437 -5.832560 -0.000348 -0.000136 -0.000143
N -6.277644 3.564269 -0.762012 -0.000069 0.000188 0.000244
N -3.166056 -1.802462 4.305875 0.000054 0.000324 0.000272
N -3.169838 -1.900232 -5.846136 0.000167 -0.000139 -0.000132
N -3.124778 -1.837506 -0.767910 0.000095 0.000199 -0.000131
N -1.600168 0.872786 4.302694 0.000507 -0.000264 -0.000039
N -1.597930 0.924645 -5.841936 0.000487 0.000077 -0.000344
N -1.598996 0.873824 -0.742469 0.000189 -0.000347 0.000128
N -3.174114 3.596716 4.304040 0.000168 -0.000358 -0.000021
N -3.170411 3.546167 -5.865398 0.000300 -0.000079 -0.000173
N -3.171906 3.587655 -0.734908 0.000114 -0.000359 0.000293
N -0.025765 -1.852391 4.303806 0.000402 -0.000264 0.000048
N 0.023336 -1.831541 -5.857006 0.000026 -0.000005 0.000063
N -0.016896 -1.854664 -0.669657 -0.000420 0.000411 0.000231
N -0.023722 1.773702 1.775191 -0.000157 -0.000097 -0.000093
N -0.022745 1.775500 6.822570 -0.000149 0.000221 -0.000187
N -0.020541 1.769738 -3.284901 -0.000191 0.000182 0.000067
N 3.125209 -3.670598 1.779739 -0.000151 0.000137 -0.000174
N 3.130031 -3.675353 6.824406 -0.000068 0.000366 0.000049
N 3.124812 -3.674456 -3.228635 0.000193 0.000317 0.000471
N 1.557794 -0.944760 1.798064 -0.000450 0.000302 -0.000038
N 1.552593 -0.942591 6.808456 -0.000455 0.000327 -0.000115
N 1.595616 -0.924641 -3.303026 -0.000320 0.000099 -0.000234
N 3.121278 1.775460 1.777112 0.000173 -0.000403 -0.000581
N 3.118669 1.775863 6.825280 -0.000161 -0.000132 -0.000048
N 3.123504 1.773249 -3.292483 -0.000116 -0.000124 -0.000030
N 6.273506 -3.670243 1.853606 0.000072 -0.000254 -0.000859
N 6.271690 -3.673144 6.873895 -0.000045 -0.000064 0.000280
N 6.274587 -3.675702 -3.282310 0.000001 -0.000023 -0.000033
N 4.698205 -0.946152 1.840449 -0.000407 0.000400 -0.000109
N 4.699578 -0.941901 6.824737 -0.000318 0.000049 0.000107
N 4.695467 -0.948948 -3.220663 0.000660 0.000943 -0.000299
N -3.173525 1.778502 1.787498 0.000107 -0.000143 0.000183
N -3.174226 1.775037 6.808109 -0.000157 0.000121 0.000151
N -3.167365 1.778959 -3.286623 -0.000049 -0.000173 -0.000175
N -0.021151 -3.672566 1.787183 0.000166 -0.000057 -0.000076
N -0.025409 -3.671178 6.823203 -0.000017 0.000146 -0.000038
N -0.016371 -3.717331 -3.241288 0.000243 -0.000319 -0.000044
N -1.597616 -0.941711 1.787826 -0.000232 0.000332 0.000131
N -1.594457 -0.941292 6.828287 -0.000388 0.000160 -0.000025
N -1.630422 -0.920333 -3.248048 -0.000581 0.000082 0.000178
