108
Energy=-1672602.314851 Lattice="9.543997 0.000000 0.000000 -4.774811 8.263561 0.000000 -0.003908 -0.007802 15.430931" Stress="0.000001 -0.000001 -0.000001 -0.000001 -0.000001 -0.000002 -0.000001 -0.000002 -0.000001" Properties=species:S:1:pos:R:3:forces:R:3
Al 1.580391 0.874610 2.454461 0.000095 -0.000170 0.000172
Al 1.578346 0.885963 7.555165 -0.000545 0.000598 0.000763
Al 1.563718 0.896582 -2.742056 -0.000005 -0.000035 0.000021
Al -0.016307 3.645650 2.398955 -0.000052 0.000150 0.000019
Al -0.018582 3.633053 7.591467 0.000040 0.000024 -0.000032
Ga -0.023036 3.629103 -2.722765 -0.000052 -0.000065 -0.000056
Al 3.173130 -1.871088 2.412698 -0.000230 -0.000040 0.000541
Al 3.162326 -1.882695 7.559104 0.000249 -0.000193 -0.000009
Ga 3.167537 -1.884385 -2.698925 -0.000070 -0.000020 0.000069
Al -4.798626 0.863879 2.415703 0.000043 0.000288 0.000876
Ga -4.820852 0.875116 7.563193 0.000093 -0.000069 -0.000131
Ga -4.796335 0.886286 -2.710684 0.000025 -0.000035 -0.000057
Ga -6.409020 3.626163 2.439427 -0.000095 0.000054 -0.000048
Al -6.402328 3.616317 7.549370 -0.000244 0.000352 -0.000160
Al -6.394595 3.629265 -2.714320 0.000007 -0.000054 -0.000115
Al -3.224510 -1.882181 2.417324 0.000186 -0.000410 0.000167
Al -3.210812 -1.891943 7.550195 -0.000078 -0.000110 -0.000014
Al -3.201085 -1.878309 -2.692120 -0.000027 0.000013 -0.000038
Ga -1.623626 0.881612 2.437757 0.000004 -0.000093 0.000058
Ga -1.612375 0.871869 7.553596 0.000003 -0.000000 -0.000002
Al -1.606858 0.888372 -2.714117 0.000082 -0.000073 -0.000007
Ga -3.194399 3.624964 2.431582 -0.000040 -0.000025 0.000041
Ga -3.205204 3.635105 7.554868 0.000039 -0.000129 -0.000034
Al -3.193140 3.630382 -2.704992 0.000020 -0.000035 0.000000
Ga -0.015970 -1.865900 2.459652 0.000057 -0.000035 0.000093
Ga -0.027566 -1.879582 7.538981 -0.000265 -0.000158 0.000151
Ga -0.026574 -1.871541 -2.719719 -0.000016 -0.000092 0.000026
Ga -0.013421 1.790822 4.995836 -0.000086 0.000137 0.000038
Al -0.011826 1.803963 -5.300331 0.000049 -0.000014 -0.000034
Ga -0.023531 1.805566 -0.139169 -0.000020 0.000082 0.000020
Ga 3.156970 -3.709062 4.991613 -0.000061 0.000054 -0.000038
Al 3.165447 -3.714687 -5.301646 -0.000022 -0.000024 -0.000008
Al 3.167501 -3.714267 -0.131277 0.000054 0.000073 0.000141
Al 1.572945 -0.953017 5.001529 0.000296 0.000030 -0.001229
Ga 1.585755 -0.939589 -5.307725 -0.000099 0.000125 0.000023
Ga 1.585823 -0.949690 -0.129553 -0.000097 0.000039 0.000080
Al 3.162188 1.790519 4.989108 0.000492 -0.000503 -0.000219
Al 3.139277 1.808236 -5.293107 -0.000061 -0.000082 -0.000117
Ga 3.156808 1.794709 -0.138344 -0.000051 -0.000124 0.000150
Ga 6.346074 -3.712892 5.013993 -0.000033 0.000031 -0.000004
Ga 6.342984 -3.720060 -5.305530 -0.000008 -0.000039 -0.000048
Al 6.331145 -3.700699 -0.151050 -0.000733 0.000371 0.000930
Ga 4.747679 -0.948388 4.980370 -0.000004 0.000116 -0.000143
Ga 4.747780 -0.965206 -5.300660 -0.000082 -0.000026 -0.000016
Al 4.760196 -0.967766 -0.121669 -0.000027 -0.000143 -0.000030
Al -3.223797 1.790892 4.988376 -0.000116 -0.000119 -0.000161
Ga -3.195687 1.810649 -5.268934 0.000082 -0.000021 -0.000028
Al -3.201475 1.800201 -0.159691 0.000070 -0.000019 0.000118
Al -0.027559 -3.718161 5.003903 0.000043 -0.000055 0.000002
Ga -0.022057 -3.731335 -5.279992 0.000054 -0.000028 -0.000019
Ga -0.016735 -3.726436 -0.157842 0.000110 0.000022 0.000134
Al -1.618772 -0.965398 4.989437 -0.000068 -0.000013 -0.000011
Ga -1.621697 -0.947860 -5.274596 -0.000075 -0.000017 0.000013
Ga -1.638759 -0.953363 -0.145727 -0.000081 -0.000013 -0.000061
N 1.609676 0.852367 4.368465 -0.000074 -0.000058 0.000278
N 1.572016 0.933421 -5.946259 0.000022 -0.000071 0.000024
N 1.566064 0.883194 -0.832581 0.000135 0.000010 -0.000106
N -0.020378 3.635654 4.309797 0.000052 -0.000005 0.000010
N -0.063706 3.611264 -5.915650 0.000001 0.000050 0.000038
N -0.026368 3.680109 -0.737010 0.000014 0.000054 -0.000019
N 3.117124 -1.853918 4.331221 0.000144 -0.000166 -0.000504
N 3.160620 -1.922896 -5.956254 -0.000025 0.000040 0.000000
N 3.205145 -1.901300 -0.715549 -0.000063 -0.000024 -0.000050
N -4.797263 0.923259 4.345473 -0.000181 0.000115 -0.000416
N -4.837890 0.911367 -5.884933 0.000097 -0.000009 0.000051
N -4.758750 0.850392 -0.726403 0.000013 0.000078 -0.000010
N -6.353787 3.608540 4.414370 -0.000015 0.000173 0.000121
N -6.382165 3.584896 -5.962275 0.000018 0.000096 0.000318
N -6.435865 3.652794 -0.795845 0.000491 -0.000170 -0.000273
N -3.168178 -1.862330 4.332196 -0.000062 0.000015 -0.000088
N -3.196913 -1.872292 -5.976291 -0.000005 0.000023 0.000011
N -3.250904 -1.899483 -0.775262 0.000118 0.000076 -0.000087
N -1.657508 0.856952 4.417363 0.000054 -0.000038 -0.000074
N -1.573761 0.905045 -5.901157 0.000052 -0.000079 0.000025
N -1.646675 0.907359 -0.796208 0.000026 -0.000056 -0.000039
N -3.245292 3.608436 4.411128 0.000020 -0.000026 0.000009
N -3.165644 3.658295 -5.906798 -0.000006 -0.000057 0.000072
N -3.152835 3.614105 -0.779186 -0.000060 -0.000006 -0.000052
N -0.018660 -1.876164 4.450262 -0.000094 0.000116 0.000215
N -0.023709 -1.875425 -5.912199 0.000062 -0.000076 0.000025
N -0.019443 -1.868589 -0.755590 0.000061 -0.000110 -0.000155
N 0.023434 1.811222 1.847430 -0.000136 0.000097 -0.000007
N 0.019226 1.822648 6.976782 -0.000016 0.000005 -0.000021
N -0.022709 1.752592 -3.369682 -0.000014 0.000118 -0.000021
N 3.196455 -3.691641 1.790238 -0.000076 0.000179 0.000072
N 3.208165 -3.694822 6.969987 -0.000046 0.000130 0.000078
N 3.121303 -3.732159 -3.381600 0.000005 0.000106 -0.000031
N 1.608205 -0.929249 1.848468 -0.000026 -0.000055 -0.000051
N 1.614883 -0.931963 6.929394 -0.000026 -0.000397 0.000130
N 1.580198 -0.909343 -3.331154 -0.000024 0.000048 -0.000043
N 3.153216 1.747795 1.840306 0.000063 0.000006 -0.000144
N 3.111743 1.813730 6.909824 0.000529 -0.000255 -0.000719
N 3.116394 1.826934 -3.364169 0.000052 0.000047 0.000033
N 6.304685 -3.686676 1.775418 0.000174 -0.000101 -0.000432
N 6.331709 -3.720925 7.001654 0.000025 0.000051 0.000113
N 6.384872 -3.683098 -3.317853 0.000030 0.000046 0.000011
N 4.752724 -0.959971 1.810096 -0.000142 0.000341 0.000013
N 4.745817 -1.007989 6.964823 -0.000051 0.000089 0.000183
N 4.793571 -0.983468 -3.326039 -0.000037 -0.000016 -0.000028
N -3.245442 1.773559 1.760134 -0.000054 -0.000135 -0.000178
N -3.216158 1.788501 6.893558 -0.000015 0.000018 0.000092
N -3.162480 1.823540 -3.292547 -0.000036 0.000041 -0.000011
N -0.024481 -3.713499 1.810558 0.000078 -0.000045 -0.000058
N -0.068782 -3.744665 6.913352 0.000088 0.000054 -0.000033
N -0.019833 -3.767170 -3.291765 -0.000028 0.000035 -0.000015
N -1.655374 -0.982974 1.827635 0.000069 0.000162 0.000021
N -1.663960 -0.986851 6.899735 0.000075 0.000031 -0.000051
N -1.661767 -0.930885 -3.292424 -0.000005 0.000031 0.000001
