108
Energy=-1809928.791065 Lattice="9.561694 0.000000 0.000000 -4.784500 8.279580 0.000000 -0.003367 0.001609 15.468873" Stress="-0.000000 -0.000001 -0.000000 -0.000001 -0.000000 0.000000 -0.000000 0.000000 0.000000" Properties=species:S:1:pos:R:3:forces:R:3
Al 1.578854 0.894886 2.443461 0.000115 0.000272 0.000360
Al 1.580591 0.885522 7.581073 0.000026 -0.000041 0.000011
Ga 1.568940 0.874935 -2.728151 0.000085 -0.000010 0.000037
Al -0.031617 3.643082 2.434070 0.001733 0.000297 0.003693
Al -0.012143 3.650968 7.571676 -0.000229 -0.000095 -0.000111
Ga -0.017107 3.641157 -2.722693 0.000005 -0.000009 0.000088
Al 3.179323 -1.880876 2.434710 0.000137 0.000321 0.000639
Ga 3.173054 -1.877328 7.579101 -0.000048 -0.000027 0.000033
Al 3.167395 -1.877222 -2.721320 0.000038 0.000028 0.000147
Al -4.822305 0.875957 2.429794 -0.000041 0.000298 0.000098
Al -4.813751 0.879439 7.583708 0.000109 0.000044 0.000128
Ga -4.799420 0.876788 -2.722463 0.000136 -0.000022 0.000099
Al -6.415438 3.619955 2.472894 -0.000363 0.000197 0.000462
Ga -6.425256 3.630722 7.575915 0.000176 -0.000007 0.000151
Al -6.401948 3.646498 -2.755675 0.000032 0.000040 0.000113
Ga -3.220132 -1.875910 2.439983 0.000218 -0.000327 0.000268
Al -3.208595 -1.888734 7.577166 -0.000057 0.000172 0.000401
Ga -3.210332 -1.884445 -2.732163 0.000008 0.000069 0.000171
Al -1.612107 0.883701 2.462967 0.000081 -0.000044 0.000326
Ga -1.626587 0.873168 7.587202 0.000259 -0.000072 0.000070
Al -1.623240 0.879074 -2.758048 0.000115 -0.000104 0.000094
Ga -3.192945 3.642778 2.430524 -0.000306 0.000117 0.000232
Ga -3.205149 3.632419 7.596307 0.000192 -0.000007 0.000098
Ga -3.213568 3.635409 -2.729218 0.000022 -0.000083 0.000109
Ga -0.023534 -1.865156 2.444522 -0.000195 -0.000104 0.000306
Ga -0.032159 -1.863801 7.610007 0.000169 -0.000124 0.000097
Ga -0.019253 -1.878272 -2.757561 0.000035 -0.000110 0.000017
Ga -0.014376 1.813352 5.006083 -0.000045 0.000744 -0.000217
Ga -0.023245 1.795459 -5.329894 -0.000123 0.000101 0.000063
Ga -0.041706 1.802573 -0.116460 -0.000106 -0.000060 -0.000068
Al 3.186540 -3.718360 5.007071 0.000387 0.000059 -0.000215
Ga 3.167169 -3.719342 -5.302591 -0.000140 0.000170 0.000196
Al 3.177942 -3.700159 -0.142556 -0.000251 0.000206 -0.000129
Ga 1.576685 -0.953064 4.997931 -0.000134 0.000203 -0.000027
Al 1.568206 -0.963020 -5.307111 -0.000097 0.000077 0.000039
Ga 1.598623 -0.972508 -0.125573 -0.000329 0.000297 -0.000156
Al 3.159874 1.798410 5.003705 -0.000951 0.000514 0.000039
Ga 3.169681 1.804888 -5.316465 -0.000029 0.000007 0.000150
Ga 3.166839 1.807929 -0.127128 0.000019 0.000182 0.000256
Al 6.346187 -3.717960 5.009336 -0.000775 -0.001315 -0.002245
Al 6.365548 -3.710667 -5.323893 0.000033 0.000013 0.000170
Ga 6.351118 -3.723000 -0.125428 0.000215 0.000093 0.000351
Ga 4.764612 -0.960453 5.015234 -0.000311 -0.000032 0.000092
Ga 4.772698 -0.961679 -5.326840 -0.000156 0.000004 0.000099
Al 4.743522 -0.970178 -0.132920 -0.000125 0.000087 0.000152
Ga -3.220310 1.794463 4.995838 0.000128 0.000087 0.000222
Al -3.214332 1.794130 -5.309464 -0.000032 0.000014 0.000059
Ga -3.201726 1.789625 -0.125703 -0.000164 0.000045 0.000146
Ga -0.034174 -3.719772 5.007674 -0.000015 0.000005 0.000189
Al -0.028515 -3.716272 -5.305500 0.000002 0.000008 -0.000004
Ga -0.029593 -3.726841 -0.138422 -0.000026 0.000149 0.000228
Al -1.626353 -0.964102 5.020030 -0.000074 0.000210 0.000102
Al -1.618962 -0.968116 -5.311108 -0.000106 0.000034 0.000079
Ga -1.624622 -0.944918 -0.150175 -0.000094 0.000105 0.000134
N 1.609936 0.908742 4.353996 0.000251 -0.000228 -0.000132
N 1.576415 0.830964 -5.969040 0.000142 -0.000008 -0.000051
N 1.564638 0.880403 -0.753306 0.000188 -0.000113 -0.000032
N -0.025772 3.691726 4.367836 -0.000146 -0.000032 -0.001797
N 0.020163 3.669981 -5.974675 0.000089 -0.000052 -0.000158
N -0.061556 3.660681 -0.744522 -0.000051 -0.000007 0.000015
N 3.171782 -1.927622 4.356514 0.000113 -0.000201 -0.000457
N 3.124725 -1.859352 -5.925074 0.000125 -0.000100 -0.000134
N 3.207597 -1.900944 -0.791748 0.000147 -0.000151 0.000083
N -4.853973 0.899802 4.345851 0.000638 -0.000402 -0.000225
N -4.764952 0.905769 -5.969778 0.000126 0.000012 -0.000072
N -4.804355 0.832874 -0.740218 0.000147 -0.000058 -0.000227
N -6.446455 3.612629 4.394987 -0.000136 0.000090 -0.000092
N -6.400488 3.685979 -5.913642 -0.000024 -0.000012 -0.000171
N -6.404482 3.642225 -0.837759 -0.000072 -0.000114 -0.000265
N -3.171342 -1.902882 4.419238 0.000486 0.000519 0.000310
N -3.161107 -1.907745 -5.961025 0.000077 -0.000006 -0.000130
N -3.253355 -1.860219 -0.745931 -0.000004 -0.000029 -0.000233
N -1.614926 0.832683 4.376241 0.000182 -0.000374 -0.000234
N -1.661623 0.851862 -5.904257 0.000188 -0.000099 -0.000099
N -1.618677 0.886070 -0.842266 0.000208 -0.000090 -0.000045
N -3.165372 3.670938 4.405425 0.000101 -0.000250 -0.000220
N -3.250288 3.616228 -5.887420 0.000087 -0.000143 -0.000067
N -3.170366 3.661869 -0.737836 0.000237 -0.000070 -0.000171
N -0.066629 -1.851264 4.411807 0.000052 -0.000039 -0.000149
N -0.022142 -1.876776 -5.865320 0.000072 -0.000063 -0.000007
N -0.017750 -1.876558 -0.774948 0.000128 -0.000206 -0.000108
N -0.029791 1.801935 1.882500 -0.000273 -0.000516 -0.000842
N 0.016871 1.824751 6.999351 -0.000106 0.000017 0.000115
N -0.060065 1.779539 -3.351210 -0.000087 0.000109 -0.000087
N 3.215302 -3.687371 1.782731 -0.000984 0.000036 -0.000569
N 3.207990 -3.745183 6.927524 -0.000104 0.000065 0.000140
N 3.170492 -3.673315 -3.330145 -0.000048 0.000057 -0.000156
N 1.620595 -0.934682 1.858738 -0.000266 -0.000045 -0.000076
N 1.569362 -0.912768 6.971470 -0.000253 0.000082 -0.000060
N 1.621617 -0.981814 -3.387485 -0.000130 0.000086 -0.000047
N 3.162460 1.810130 1.860172 -0.000003 -0.000278 -0.000321
N 3.163062 1.749207 6.936426 0.000047 0.000092 0.000103
N 3.165320 1.842110 -3.340962 -0.000053 -0.000025 -0.000058
N 6.356926 -3.770604 1.856600 0.000182 -0.000092 -0.000423
N 6.307948 -3.695491 6.927505 0.000294 0.000392 0.001147
N 6.389568 -3.741096 -3.400972 -0.000017 -0.000055 -0.000077
N 4.714216 -0.936609 1.795606 0.000005 -0.000102 -0.000125
N 4.802467 -0.933943 7.000507 0.000032 -0.000103 -0.000134
N 4.720134 -0.984137 -3.348657 -0.000139 -0.000031 -0.000197
N -3.206972 1.748112 1.860584 -0.000058 -0.000055 -0.000279
N -3.256687 1.775659 6.968046 -0.000128 -0.000053 -0.000105
N -3.176808 1.776131 -3.390224 -0.000086 0.000066 -0.000084
N -0.073492 -3.746536 1.845172 0.000173 -0.000181 -0.000307
N -0.024331 -3.716929 6.974805 -0.000182 0.000016 0.000027
N -0.059218 -3.746560 -3.388544 0.000003 0.000026 -0.000089
N -1.618996 -0.903519 1.820911 -0.000046 0.000021 -0.000275
N -1.657732 -0.984208 6.934141 -0.000159 -0.000035 -0.000125
N -1.622319 -0.917154 -3.393213 -0.000118 0.000053 -0.000072
