108
Energy=-940194.421916 Lattice="9.463161 0.000000 0.000000 -4.735197 8.187410 0.000000 -0.001965 -0.002001 15.239596" Stress="0.000014 -0.000002 0.000000 -0.000002 0.000008 -0.000000 0.000000 -0.000000 0.000024" Properties=species:S:1:pos:R:3:forces:R:3
Al 1.560815 0.874155 2.395464 0.000127 -0.001366 -0.000640
Al 1.557944 0.867148 7.482716 0.000249 -0.000228 0.000512
Al 1.559666 0.882743 -2.711198 0.000031 -0.000620 -0.000504
Al -0.020901 3.600412 2.377228 0.001316 -0.000425 -0.000045
Al -0.029137 3.597236 7.498452 -0.000311 0.000235 0.000182
Al -0.016769 3.592297 -2.706183 0.000038 0.000467 0.000410
Al 3.143330 -1.866667 2.429654 -0.000751 0.001512 0.000615
Al 3.136762 -1.859863 7.467756 -0.000216 -0.000016 0.000369
Al 3.138855 -1.852797 -2.720916 0.000103 -0.000172 -0.001366
Al -4.762443 0.868599 2.400212 -0.001776 -0.000392 0.000558
Al -4.766967 0.866429 7.483766 0.000154 -0.000202 0.000287
Al -4.765463 0.876899 -2.712663 0.000262 0.000002 -0.001365
Al -6.342260 3.589497 2.404450 -0.000866 -0.000397 0.000406
Al -6.331545 3.591413 7.480894 0.000152 0.000122 0.000143
Al -6.346060 3.584904 -2.712223 -0.000706 -0.000222 0.000232
Al -3.174558 -1.859932 2.411141 -0.001464 -0.000995 0.000464
Al -3.177431 -1.853430 7.482494 -0.000139 0.000258 0.000160
Ga -3.183139 -1.862701 -2.715430 -0.000207 0.000067 0.000044
Al -1.595390 0.865030 2.394353 -0.000205 0.002134 0.000236
Al -1.603074 0.867171 7.493380 0.000433 -0.000363 0.000412
Al -1.596916 0.885549 -2.711859 -0.000264 -0.000280 -0.000326
Ga -3.168649 3.603282 2.403602 -0.000323 0.000134 0.000440
Al -3.180095 3.606685 7.485119 0.000137 0.000130 -0.000040
Ga -3.171590 3.592038 -2.707425 0.000377 -0.000042 0.000065
Al -0.029315 -1.849644 2.439832 0.000947 0.000119 0.001197
Al -0.021500 -1.855335 7.468571 0.000118 -0.000238 0.000313
Ga -0.014142 -1.846800 -2.727444 -0.000021 0.000084 -0.000187
Ga -0.019260 1.773124 4.946069 -0.000189 0.000120 0.000276
Al -0.021901 1.778378 -5.236610 -0.000169 0.000196 -0.000027
Al -0.024105 1.793861 -0.161645 0.000761 0.000538 0.000000
Al 3.133713 -3.667053 4.960543 0.000001 0.000290 0.000819
Al 3.140875 -3.675829 -5.247558 -0.000240 0.000410 0.000130
Al 3.153258 -3.683007 -0.156624 0.000305 0.000243 -0.000713
Al 1.562365 -0.956546 4.942775 -0.000492 -0.000043 0.000214
Al 1.566248 -0.945623 -5.252281 -0.000266 -0.000095 -0.001409
Ga 1.571537 -0.941477 -0.128126 -0.000113 0.000115 -0.001842
Al 3.131144 1.770341 4.945019 0.000171 0.000082 0.000217
Al 3.129488 1.780584 -5.236155 0.000186 -0.000032 0.000179
Al 3.126283 1.787867 -0.160925 -0.000515 0.000272 -0.000242
Ga 6.286684 -3.676578 4.946923 0.000399 0.000192 0.000269
Al 6.289206 -3.684289 -5.251684 0.000068 0.000081 -0.000152
Al 6.280557 -3.699484 -0.141019 0.000162 -0.000516 0.000066
Al 4.703007 -0.949517 4.942182 -0.000231 -0.000078 0.000093
Al 4.706580 -0.944647 -5.247798 -0.000372 -0.000104 0.000327
Ga 4.701368 -0.944972 -0.137901 -0.000216 0.000018 -0.000960
Ga -3.191341 1.773965 4.958799 0.000178 -0.000119 0.000518
Al -3.181841 1.777294 -5.251495 0.000218 -0.000023 -0.000205
Al -3.177816 1.777105 -0.152107 0.000023 -0.000134 -0.000215
Al -0.026412 -3.671726 4.956470 0.000089 0.000260 -0.000142
Al -0.025873 -3.678825 -5.257550 0.000207 -0.000061 -0.000791
Ga -0.035005 -3.691539 -0.136319 -0.000166 -0.000143 0.000776
Al -1.599496 -0.952894 4.948505 0.000290 -0.000338 -0.000006
Al -1.598004 -0.940961 -5.255609 -0.000127 0.000007 -0.000939
Ga -1.600836 -0.932058 -0.123299 -0.000408 0.000059 -0.001129
N 1.593844 0.847903 4.315486 0.000271 -0.000053 -0.000507
N 1.556600 0.873296 -5.839487 0.000126 0.000156 -0.000104
N 1.552155 0.916597 -0.782223 0.000338 -0.000326 -0.000260
N -0.069692 3.621667 4.291620 0.000242 -0.000267 -0.000253
N -0.024810 3.596487 -5.833858 -0.000137 -0.000076 -0.000013
N -0.019667 3.600715 -0.770194 -0.000474 -0.000147 -0.000259
N 3.135191 -1.866143 4.351912 -0.000064 0.000154 -0.000318
N 3.137507 -1.859459 -5.854465 -0.000037 0.000154 -0.000472
N 3.132889 -1.902425 -0.811508 0.000029 -0.000171 0.000709
N -4.800133 0.848120 4.317716 0.000355 0.000175 -0.000205
N -4.763373 0.871596 -5.842133 0.000163 0.000064 -0.000106
N -4.759353 0.919343 -0.790061 0.000746 -0.000023 0.001149
N -6.295892 3.570106 4.324293 -0.000195 -0.000195 0.000061
N -6.331956 3.593883 -5.847823 -0.000096 -0.000021 -0.000017
N -6.378574 3.577738 -0.788240 0.000217 0.000025 -0.000097
N -3.177149 -1.815278 4.328355 -0.000167 0.000288 -0.000300
N -3.176648 -1.856212 -5.837759 -0.000104 0.000161 -0.000088
N -3.174495 -1.906370 -0.740013 0.000076 0.000269 -0.000071
N -1.604975 0.828930 4.301224 0.000138 -0.000044 0.000532
N -1.599585 0.875880 -5.839123 0.000419 -0.000234 0.000163
N -1.599618 0.922177 -0.784072 -0.000661 -0.000570 -0.000496
N -3.176080 3.647457 4.382015 -0.000299 -0.000296 -0.000607
N -3.176296 3.605579 -5.836146 0.000030 -0.000199 0.000022
N -3.139481 3.580687 -0.722856 0.000221 -0.000329 0.000328
N -0.024118 -1.857837 4.362490 0.000134 0.000365 -0.000346
N -0.018161 -1.853571 -5.848106 0.000053 -0.000213 -0.000147
N -0.019636 -1.853551 -0.766525 -0.000098 -0.000169 -0.000043
N -0.019870 1.777725 1.774425 -0.000421 -0.000653 0.000660
N -0.024000 1.777720 6.925636 -0.000053 0.000179 -0.000377
N -0.021205 1.781309 -3.310736 -0.000106 -0.000294 0.000351
N 3.181135 -3.646910 1.761882 -0.000738 -0.000963 -0.000542
N 3.138344 -3.682619 6.879892 0.000065 0.000124 -0.000132
N 3.179811 -3.656639 -3.331903 -0.000168 0.000097 0.000082
N 1.561401 -0.966792 1.851601 -0.000554 0.003838 0.002929
N 1.559053 -0.949386 6.868765 -0.000349 0.000330 -0.000336
N 1.603717 -0.921045 -3.343491 -0.000222 0.000957 0.001933
N 3.131993 1.779472 1.770070 0.000175 -0.000073 0.000444
N 3.127329 1.777429 6.867281 -0.000008 -0.000110 -0.000369
N 3.130165 1.781917 -3.316287 -0.000003 -0.000394 0.000198
N 6.292766 -3.680910 1.791106 -0.000149 0.000044 0.000543
N 6.284426 -3.681113 6.927484 0.000083 -0.000102 0.000055
N 6.287086 -3.727620 -3.337487 0.000199 -0.000270 -0.000194
N 4.704301 -0.950852 1.844670 0.000763 -0.000087 0.000885
N 4.712054 -0.948316 6.867788 -0.000194 -0.000022 -0.000331
N 4.671311 -0.920873 -3.333033 -0.000235 0.000165 0.000308
N -3.183138 1.729907 1.773445 0.001368 0.000200 -0.000465
N -3.183037 1.777704 6.936275 0.000133 -0.000117 0.000065
N -3.180879 1.732817 -3.335733 0.000143 -0.000112 0.000245
N -0.067258 -3.648352 1.844515 0.000334 -0.001334 -0.001812
N -0.026350 -3.678693 6.879146 0.000061 -0.000058 -0.000212
N -0.064168 -3.705402 -3.348450 0.000381 0.000214 0.000543
N -1.600683 -0.947854 1.855822 0.001572 -0.001078 -0.001194
N -1.601425 -0.946744 6.873845 -0.000261 0.000059 -0.000338
N -1.601839 -0.897535 -3.354002 0.000207 0.000478 0.001117
