108
Energy=-7.570926e+05 Lattice="9.432726e+00 0.000000e+00 0.000000e+00 -4.718108e+00 8.165696e+00 0.000000e+00 -2.682898e-04 4.170217e-04 1.515964e+01" Stress="-4.214905e-04 -2.507143e-05 1.326131e-05 -2.131966e-05 -6.721330e-04 5.619977e-05 6.828068e-06 5.550681e-05 1.643376e-04" Properties=species:S:1:pos:R:3:forces:R:3 Config_type=AlGaN_super3_7_2_16.xyz
Al 1.549607e+00 8.789236e-01 2.390816e+00 -1.622345e-04 -1.560626e-03 -4.671480e-04
Al 1.548739e+00 8.675532e-01 7.429978e+00 1.375358e-04 -2.956405e-04 1.070851e-04
Al 1.549029e+00 8.728302e-01 -2.694587e+00 -5.090838e-05 5.266883e-04 7.220796e-04
Al -2.199710e-02 3.587799e+00 2.385523e+00 5.160015e-05 2.009407e-04 -6.646837e-05
Al -2.143127e-02 3.590223e+00 7.423481e+00 -4.087299e-05 -8.130601e-05 -6.533569e-05
Al -2.061166e-02 3.581197e+00 -2.679478e+00 3.634768e-05 -2.188846e-04 1.859571e-04
Al 3.129677e+00 -1.855865e+00 2.399858e+00 -2.884358e-04 2.553439e-04 -7.645917e-04
Al 3.116526e+00 -1.856018e+00 7.412705e+00 -1.138660e-04 7.204894e-05 -1.656463e-04
Al 3.118686e+00 -1.855570e+00 -2.679355e+00 1.327056e-04 -3.878568e-05 1.385646e-03
Al -4.748783e+00 8.664253e-01 2.397508e+00 4.747826e-04 -6.864596e-04 -4.010757e-04
Al -4.739996e+00 8.761710e-01 7.412115e+00 1.652563e-04 -4.575611e-05 -7.748055e-05
Al -4.754052e+00 8.727403e-01 -2.676336e+00 -8.369298e-07 2.563060e-04 1.283796e-04
Al -6.316183e+00 3.587402e+00 2.375126e+00 -4.145639e-04 -4.216845e-05 -1.935283e-04
Al -6.321008e+00 3.586197e+00 7.437713e+00 -9.251765e-05 -8.169525e-06 -7.017624e-05
Al -6.316039e+00 3.580460e+00 -2.679790e+00 1.496922e-04 3.939018e-05 9.934780e-05
Al -3.170432e+00 -1.856357e+00 2.367294e+00 4.964971e-05 2.428179e-04 -1.604117e-04
Al -3.167231e+00 -1.861748e+00 7.432763e+00 -8.165534e-06 -2.194667e-05 -1.212737e-04
Ga -3.158590e+00 -1.856126e+00 -2.663300e+00 8.876427e-05 -8.736655e-05 5.613521e-05
Al -1.585747e+00 8.723734e-01 2.388909e+00 7.965372e-05 -8.641662e-04 -2.832651e-04
Al -1.597490e+00 8.788291e-01 7.436070e+00 3.896606e-04 -1.561631e-04 -9.549278e-05
Al -1.583108e+00 8.651580e-01 -2.691279e+00 6.686452e-04 1.633955e-04 4.731854e-04
Al -3.164873e+00 3.598176e+00 2.382426e+00 3.869438e-04 -1.754596e-03 -8.992938e-04
Al -3.160974e+00 3.585680e+00 7.443149e+00 1.690828e-04 -5.273467e-05 -7.095536e-05
Ga -3.168971e+00 3.597736e+00 -2.687502e+00 1.579925e-04 -1.408069e-04 1.394511e-04
Al -2.283592e-02 -1.855122e+00 2.375962e+00 8.945094e-05 6.785527e-04 1.244188e-03
Al -1.355848e-02 -1.846918e+00 7.450789e+00 2.891061e-04 4.598710e-05 -4.737942e-04
Al -2.401754e-02 -1.849917e+00 -2.692047e+00 4.107766e-06 -2.345967e-04 1.403809e-03
Al -1.646428e-02 1.784262e+00 4.912922e+00 -1.367738e-04 1.899869e-05 -7.213083e-05
Al -2.367164e-02 1.777870e+00 -5.213335e+00 -1.843809e-04 7.633126e-05 8.335539e-05
Al -1.784486e-02 1.785200e+00 -1.446342e-01 -6.235637e-04 -5.048153e-04 -2.099962e-03
Al 3.132543e+00 -3.670481e+00 4.907554e+00 -2.807044e-05 -6.055852e-06 -9.255906e-05
Al 3.126675e+00 -3.673906e+00 -5.220753e+00 -7.513487e-05 9.935016e-05 -3.434042e-04
Al 3.139790e+00 -3.665488e+00 -1.325538e-01 -3.573883e-04 2.810725e-04 -1.846171e-04
Al 1.563515e+00 -9.353760e-01 4.903824e+00 -2.962093e-04 -1.449372e-04 1.950035e-04
Al 1.545804e+00 -9.474434e-01 -5.202726e+00 -3.850729e-04 1.956221e-04 -2.002827e-04
Ga 1.552517e+00 -9.433703e-01 -1.483333e-01 -4.251444e-04 -3.065591e-04 -1.057009e-04
Al 3.113585e+00 1.771615e+00 4.909014e+00 1.943722e-05 -8.842407e-05 -1.477608e-04
Al 3.116710e+00 1.782927e+00 -5.211985e+00 4.184001e-05 -2.680536e-05 1.535843e-04
Al 3.116215e+00 1.781953e+00 -1.448041e-01 -4.427414e-04 -1.163781e-04 -6.564732e-04
Al 6.254495e+00 -3.675339e+00 4.902157e+00 5.084574e-05 9.436412e-05 -2.189749e-04
Al 6.268202e+00 -3.683141e+00 -5.209311e+00 5.808940e-05 -7.571219e-06 3.749202e-05
Al 6.265546e+00 -3.677932e+00 -1.404250e-01 3.495680e-04 -2.420460e-04 2.497696e-04
Al 4.689580e+00 -9.480098e-01 4.909615e+00 -2.007846e-05 2.321364e-04 -1.125885e-04
Ga 4.689524e+00 -9.437868e-01 -5.216662e+00 -1.746583e-04 1.392299e-04 -1.760263e-04
Al 4.690702e+00 -9.493280e-01 -1.356424e-01 -2.309173e-04 -7.245939e-05 1.197152e-04
Al -3.166100e+00 1.779402e+00 4.901931e+00 1.200339e-04 -6.023995e-05 -1.348231e-04
Al -3.165879e+00 1.777141e+00 -5.210369e+00 4.801988e-05 -5.404899e-05 -2.327712e-04
Ga -3.167792e+00 1.765513e+00 -1.364827e-01 3.146366e-04 -2.722946e-04 -8.905557e-05
Ga -1.899005e-02 -3.676909e+00 4.919616e+00 1.380723e-04 1.470289e-04 9.108813e-05
Al -2.883323e-02 -3.667571e+00 -5.222256e+00 -3.117355e-05 9.772276e-05 -4.452752e-04
Al -3.698708e-02 -3.670731e+00 -1.352118e-01 -5.242639e-04 2.014255e-03 -1.241321e-03
Ga -1.598369e+00 -9.398092e-01 4.914638e+00 -2.342135e-04 2.338063e-04 -1.241447e-05
Al -1.583578e+00 -9.425572e-01 -5.219695e+00 -1.081170e-04 1.747352e-04 -6.230014e-04
Al -1.590426e+00 -9.483790e-01 -1.335236e-01 2.142331e-04 1.237378e-04 -2.596370e-04
N 1.547664e+00 8.749154e-01 4.308260e+00 7.595897e-05 -1.980121e-04 -4.643289e-05
N 1.548549e+00 8.666192e-01 -5.805652e+00 1.962443e-04 -1.765267e-04 -1.633391e-04
N 1.545993e+00 9.206796e-01 -7.751734e-01 1.258715e-03 -4.906289e-04 -8.118781e-04
N -2.324923e-02 3.588359e+00 4.303629e+00 -8.176411e-05 -7.363898e-05 2.459863e-04
N -2.133949e-02 3.588631e+00 -5.820205e+00 -5.890835e-05 -3.933892e-05 -5.032710e-05
N -2.418216e-02 3.590391e+00 -7.542689e-01 -1.281801e-04 8.057079e-05 6.662224e-05
N 3.126091e+00 -1.855373e+00 4.316534e+00 -3.538923e-05 4.746285e-05 2.029118e-04
N 3.077110e+00 -1.876629e+00 -5.838180e+00 5.285024e-05 -1.455615e-04 1.401834e-04
N 3.162304e+00 -1.880179e+00 -7.648501e-01 2.250066e-04 -1.836401e-04 -8.208631e-04
N -4.744123e+00 8.682747e-01 4.317157e+00 1.577361e-04 4.477908e-05 1.802274e-04
N -4.741641e+00 9.200622e-01 -5.838527e+00 8.188394e-05 -2.780958e-05 6.670445e-05
N -4.783445e+00 8.455573e-01 -7.643545e-01 -2.943033e-04 2.340443e-04 1.816636e-04
N -6.352763e+00 3.566866e+00 4.286781e+00 -7.347055e-06 -1.608656e-05 1.185862e-04
N -6.317897e+00 3.586598e+00 -5.812026e+00 -6.395455e-05 -1.355235e-05 1.325839e-04
N -6.312071e+00 3.587968e+00 -7.528006e-01 -1.429874e-04 7.062636e-05 -6.073369e-05
N -3.207041e+00 -1.877171e+00 4.284077e+00 -3.342873e-05 -9.069143e-05 -1.093155e-05
N -3.127461e+00 -1.882563e+00 -5.817978e+00 6.290945e-06 -1.328662e-04 1.917484e-04
N -3.163190e+00 -1.855044e+00 -6.835563e-01 -2.304414e-04 8.789194e-05 6.251466e-05
N -1.589173e+00 9.179814e-01 4.295492e+00 2.457736e-04 -8.428273e-05 4.460749e-05
N -1.597208e+00 8.754435e-01 -5.810066e+00 3.868360e-04 -1.307552e-04 2.566329e-04
N -1.551653e+00 8.438254e-01 -7.724166e-01 1.226879e-04 1.257099e-04 2.472301e-04
N -3.126355e+00 3.573588e+00 4.290283e+00 -1.814810e-05 -2.577333e-04 -8.028106e-05
N -3.165630e+00 3.587762e+00 -5.798517e+00 2.106184e-04 -3.719932e-05 1.988404e-04
N -3.167622e+00 3.639482e+00 -7.116997e-01 6.791488e-04 -1.871244e-04 1.517960e-04
N 1.796696e-02 -1.831841e+00 4.282897e+00 -9.668954e-05 -1.366848e-04 -2.270038e-03
N -1.628570e-02 -1.849236e+00 -5.802095e+00 3.443602e-04 -1.381261e-04 3.671886e-04
N -6.410144e-02 -1.877537e+00 -7.689513e-01 -8.679696e-08 -9.010034e-04 -1.077920e-03
N -1.956182e-02 1.777155e+00 1.772152e+00 -2.083834e-04 1.201570e-04 1.187225e-03
N -2.125945e-02 1.774900e+00 6.830854e+00 -2.368196e-04 1.305457e-04 1.172806e-04
N -2.323201e-02 1.777347e+00 -3.293030e+00 -2.728486e-05 1.442982e-04 -2.930657e-04
N 3.129298e+00 -3.664733e+00 1.787303e+00 -8.389784e-05 -2.838496e-04 -5.245140e-05
N 3.122847e+00 -3.673173e+00 6.824740e+00 -1.484659e-04 7.172022e-05 2.354175e-04
N 3.169022e+00 -3.646431e+00 -3.309929e+00 2.075081e-05 1.745190e-04 1.562975e-04
N 1.555131e+00 -9.465267e-01 1.827714e+00 2.940694e-04 1.366691e-03 1.341176e-03
N 1.548294e+00 -9.436173e-01 6.821124e+00 -1.410061e-04 3.067956e-04 2.284460e-04
N 1.552520e+00 -9.493343e-01 -3.278073e+00 -6.211916e-05 4.073979e-04 2.173379e-04
N 3.120787e+00 1.774811e+00 1.776023e+00 2.472500e-04 -2.710490e-04 3.961970e-04
N 3.115894e+00 1.777744e+00 6.823846e+00 -1.730371e-05 -3.923052e-06 6.058457e-05
N 3.122004e+00 1.776435e+00 -3.292192e+00 -2.454058e-04 -4.757172e-06 2.075998e-06
N 6.264850e+00 -3.674997e+00 1.777666e+00 -9.600173e-05 -3.441309e-05 -2.956211e-04
N 6.266825e+00 -3.669779e+00 6.820006e+00 1.138661e-04 -1.751913e-06 4.394601e-05
N 6.265818e+00 -3.716690e+00 -3.294996e+00 2.394854e-05 -1.767833e-04 1.418895e-04
N 4.688855e+00 -9.423640e-01 1.785745e+00 -4.604450e-04 1.375913e-04 6.369829e-05
N 4.697247e+00 -9.475467e-01 6.830183e+00 -1.499713e-04 1.043010e-04 1.276813e-04
N 4.657024e+00 -9.234180e-01 -3.249994e+00 -2.820509e-04 -3.458801e-04 -3.599254e-04
N -3.168169e+00 1.764482e+00 1.835175e+00 -7.276124e-04 2.841831e-03 1.392261e-03
N -3.164934e+00 1.779628e+00 6.821021e+00 -1.154672e-04 1.466309e-05 3.076978e-05
N -3.169451e+00 1.726088e+00 -3.293822e+00 -1.340070e-04 3.852174e-05 1.999563e-04
N -2.692561e-02 -3.668638e+00 1.781358e+00 4.005392e-04 -5.155323e-04 8.438426e-04
N -2.185790e-02 -3.668733e+00 6.894921e+00 -3.566365e-06 9.999585e-06 3.918789e-04
N -6.819593e-02 -3.646538e+00 -3.309462e+00 -1.912393e-04 -7.612550e-05 1.327731e-04
N -1.591702e+00 -9.423818e-01 1.786025e+00 2.429389e-04 1.337334e-04 4.232895e-04
N -1.592638e+00 -9.449735e-01 6.887515e+00 -1.513223e-04 1.492304e-04 3.943213e-04
N -1.555841e+00 -9.240181e-01 -3.310716e+00 -1.389251e-04 1.151927e-04 3.588795e-04
