108
Energy=-8.486435e+05 Lattice="9.446139e+00 0.000000e+00 0.000000e+00 -4.724917e+00 8.179004e+00 0.000000e+00 -1.953310e-02 3.470902e-03 1.518004e+01" Stress="2.307161e-05 -3.185598e-05 -8.877993e-04 -3.121851e-05 7.819683e-05 2.247602e-04 -8.984970e-04 2.194637e-04 -4.163756e-04" Properties=species:S:1:pos:R:3:forces:R:3 Config_type=AlGaN_super3_9_0_14.xyz
Al 1.558340e+00 8.735999e-01 2.377291e+00 -1.575754e-05 3.615684e-04 -3.457881e-04
Al 1.554141e+00 8.632126e-01 7.443061e+00 2.558777e-04 6.857669e-05 1.125377e-04
Al 1.573734e+00 8.665125e-01 -2.679096e+00 6.431520e-06 -4.333626e-05 3.846180e-05
Al -2.777020e-02 3.596654e+00 2.395481e+00 6.560714e-04 -4.769856e-05 -5.110762e-04
Al -3.199211e-02 3.611200e+00 7.440120e+00 1.409995e-04 -1.875803e-04 7.226157e-05
Al -2.146166e-02 3.602173e+00 -2.685678e+00 1.413564e-04 -1.629889e-03 -4.660640e-04
Al 3.134098e+00 -1.848753e+00 2.390066e+00 1.511749e-04 -6.986006e-04 -8.556986e-04
Al 3.118065e+00 -1.854326e+00 7.443731e+00 5.661414e-05 3.520154e-05 4.676255e-04
Al 3.127678e+00 -1.857145e+00 -2.697245e+00 1.057726e-04 -1.946813e-05 2.523067e-04
Al -4.763319e+00 8.601835e-01 2.404340e+00 3.632085e-06 3.570143e-04 -2.504169e-04
Al -4.758334e+00 8.710265e-01 7.435954e+00 1.238256e-04 1.206206e-05 1.713599e-04
Al -4.762062e+00 8.727462e-01 -2.701923e+00 6.487226e-04 -6.125366e-05 5.542869e-05
Al -6.337351e+00 3.580863e+00 2.415653e+00 5.670652e-04 -2.133476e-04 -1.028241e-04
Al -6.333908e+00 3.595806e+00 7.441744e+00 -1.012301e-04 -5.333465e-05 1.195360e-06
Al -6.313324e+00 3.582006e+00 -2.717286e+00 -8.674881e-05 1.467899e-04 3.352025e-04
Al -3.184869e+00 -1.849659e+00 2.401593e+00 7.494853e-04 9.268833e-05 -4.611712e-04
Al -3.183710e+00 -1.857589e+00 7.438665e+00 2.282162e-06 -1.056311e-04 1.679382e-04
Ga -3.170363e+00 -1.859344e+00 -2.694417e+00 9.574533e-05 1.534515e-04 2.759632e-05
Al -1.601465e+00 8.669327e-01 2.395555e+00 8.736695e-04 -8.637583e-04 -9.359322e-04
Al -1.619855e+00 8.672134e-01 7.444309e+00 3.200321e-04 3.358474e-04 1.184372e-03
Ga -1.591300e+00 8.709400e-01 -2.685573e+00 4.402147e-04 -1.794221e-04 -4.861587e-05
Ga -3.164574e+00 3.596595e+00 2.419433e+00 -1.422774e-05 8.115597e-06 -4.892047e-04
Al -3.181156e+00 3.598212e+00 7.440828e+00 2.866489e-05 -2.865149e-04 -2.206151e-04
Al -3.166643e+00 3.607060e+00 -2.715335e+00 3.370858e-05 -4.196793e-04 5.742202e-04
Ga -2.565505e-02 -1.841098e+00 2.410765e+00 -1.801853e-04 1.753469e-06 -8.708299e-05
Al -2.825961e-02 -1.852352e+00 7.437158e+00 6.405026e-05 -2.632547e-04 -3.265055e-04
Al -3.270284e-03 -1.857374e+00 -2.700808e+00 -1.016990e-03 3.468298e-04 -3.781262e-04
Ga -2.886613e-02 1.775510e+00 4.924924e+00 5.201811e-06 -1.883506e-04 3.136730e-04
Ga -8.635103e-03 1.779618e+00 -5.225912e+00 -1.314159e-04 5.996224e-05 2.029957e-04
Al -1.087648e-02 1.774952e+00 -1.412787e-01 -8.834624e-05 1.693674e-04 1.118725e-04
Al 3.120401e+00 -3.660625e+00 4.936896e+00 -1.139274e-04 1.939544e-04 1.527080e-04
Al 3.132693e+00 -3.665704e+00 -5.222695e+00 -1.079236e-04 -7.118046e-05 -1.051726e-04
Al 3.136449e+00 -3.663491e+00 -1.624131e-01 -2.565673e-04 1.710735e-04 3.193592e-04
Al 1.559321e+00 -9.522696e-01 4.929013e+00 -3.839275e-04 3.631327e-04 2.267299e-04
Al 1.567433e+00 -9.576575e-01 -5.216771e+00 -3.402371e-04 2.925170e-04 3.997789e-04
Al 1.565250e+00 -9.414103e-01 -1.668261e-01 -1.854899e-04 1.885359e-04 1.949419e-04
Al 3.125071e+00 1.777174e+00 4.922432e+00 -5.374811e-05 9.507932e-05 1.587228e-04
Al 3.141288e+00 1.774597e+00 -5.222931e+00 9.096178e-06 -7.657928e-05 1.405948e-05
Al 3.121502e+00 1.764258e+00 -1.532963e-01 -2.193690e-04 9.148650e-04 9.303794e-04
Al 6.270913e+00 -3.666971e+00 4.915637e+00 1.973298e-04 1.785711e-05 1.842845e-04
Al 6.285432e+00 -3.671509e+00 -5.225390e+00 5.608897e-05 -2.081306e-05 2.710618e-05
Ga 6.271370e+00 -3.681261e+00 -1.330231e-01 2.553507e-04 -2.691972e-04 -8.682463e-04
Al 4.691546e+00 -9.486472e-01 4.919770e+00 2.241959e-04 1.057451e-04 1.928020e-04
Al 4.704498e+00 -9.459725e-01 -5.233847e+00 1.085014e-05 -5.337040e-05 9.489340e-05
Al 4.688095e+00 -9.448340e-01 -1.413020e-01 -2.859540e-04 -2.437990e-04 3.909593e-04
Al -3.189350e+00 1.771999e+00 4.929679e+00 2.541371e-04 -1.414706e-04 -3.745632e-04
Al -3.181301e+00 1.780193e+00 -5.226723e+00 -1.658410e-04 6.487227e-05 -2.749920e-05
Ga -3.178214e+00 1.771433e+00 -1.479543e-01 1.131373e-04 3.019065e-04 5.389147e-04
Al -3.643048e-02 -3.675722e+00 4.949617e+00 8.882049e-05 -1.725643e-05 -3.636826e-04
Al -1.512680e-02 -3.671918e+00 -5.226650e+00 1.094441e-04 -1.252296e-05 -4.167683e-04
Ga -2.263920e-02 -3.666476e+00 -1.688089e-01 2.410461e-04 -3.103915e-04 4.982360e-04
Al -1.615633e+00 -9.519868e-01 4.936210e+00 2.329673e-04 -1.408552e-04 -2.544363e-04
Al -1.589823e+00 -9.613702e-01 -5.241530e+00 -2.231377e-04 9.584491e-04 -7.632837e-04
Al -1.587805e+00 -9.431694e-01 -1.333286e-01 -4.168832e-05 -8.830661e-05 4.263318e-04
N 1.587155e+00 8.446481e-01 4.294514e+00 3.065588e-04 -9.372381e-05 -5.652452e-05
N 1.605905e+00 8.392227e-01 -5.833591e+00 2.709239e-04 -1.149195e-04 -1.465027e-04
N 1.555978e+00 8.710519e-01 -7.536857e-01 1.384015e-04 -2.678873e-05 7.876479e-05
N -3.737621e-02 3.642117e+00 4.307752e+00 2.630039e-04 1.550005e-04 -1.586880e-04
N -1.649341e-02 3.648386e+00 -5.837242e+00 -4.908173e-05 -1.239228e-04 -1.785405e-04
N -6.000520e-02 3.573177e+00 -7.701933e-01 -1.910599e-04 -2.915390e-04 1.192325e-04
N 3.121045e+00 -1.856829e+00 4.313546e+00 -1.422667e-04 -2.971286e-04 -3.434250e-04
N 3.133746e+00 -1.857734e+00 -5.821185e+00 -6.104825e-05 -7.017717e-05 -2.401286e-04
N 3.133128e+00 -1.855982e+00 -7.698785e-01 -1.765292e-05 -1.658036e-04 -7.070722e-05
N -4.758247e+00 8.677414e-01 4.323293e+00 2.623537e-04 -2.101864e-04 1.679425e-04
N -4.741417e+00 8.690910e-01 -5.829716e+00 1.004729e-04 3.973663e-05 -2.141250e-04
N -4.790037e+00 8.420618e-01 -7.825307e-01 1.517380e-04 2.784901e-04 8.885623e-05
N -6.326616e+00 3.593288e+00 4.332400e+00 -1.690875e-04 -1.902311e-04 8.895898e-05
N -6.313805e+00 3.593170e+00 -5.818858e+00 -1.034175e-04 2.157153e-05 2.072661e-04
N -6.323797e+00 3.547064e+00 -8.054396e-01 9.907897e-05 -8.872673e-04 -4.295125e-04
N -3.179215e+00 -1.853874e+00 4.322353e+00 -2.498158e-04 4.241339e-04 5.075381e-05
N -3.166858e+00 -1.861005e+00 -5.823304e+00 -7.872374e-05 2.315041e-04 -3.362380e-04
N -3.169240e+00 -1.810125e+00 -7.169473e-01 -1.971671e-04 5.050490e-04 -3.119750e-04
N -1.643956e+00 8.416728e-01 4.306115e+00 -5.895217e-04 8.780776e-04 9.561070e-04
N -1.637867e+00 8.503457e-01 -5.825647e+00 6.473526e-04 -1.196507e-03 -1.541332e-03
N -1.555837e+00 8.473667e-01 -7.170347e-01 5.933967e-05 8.629395e-05 1.210231e-04
N -3.178314e+00 3.601249e+00 4.392906e+00 7.547629e-05 -3.326419e-04 3.651502e-04
N -3.163981e+00 3.598025e+00 -5.818734e+00 6.379999e-05 -4.045611e-05 1.529374e-04
N -3.128338e+00 3.620222e+00 -8.006901e-01 6.737032e-07 -3.410544e-04 -6.416516e-04
N -2.824870e-02 -1.852523e+00 4.387844e+00 3.164030e-05 -3.841930e-04 3.043229e-04
N -7.680159e-03 -1.856618e+00 -5.826842e+00 1.391405e-04 -1.394788e-04 3.364861e-05
N -2.025501e-02 -1.802707e+00 -7.807401e-01 -1.564744e-05 -1.878206e-04 -1.326311e-04
N -2.460020e-02 1.778750e+00 1.793885e+00 2.810197e-04 5.229213e-04 -2.173666e-04
N -2.984853e-02 1.778810e+00 6.903482e+00 -7.068939e-04 -1.709551e-04 -1.797216e-04
N 3.059575e-02 1.796617e+00 -3.258480e+00 -4.576303e-04 1.875035e-03 3.119319e-04
N 3.165525e+00 -3.650587e+00 1.760096e+00 -5.753395e-04 1.322780e-03 7.556299e-05
N 3.118563e+00 -3.668532e+00 6.847694e+00 -1.251791e-05 2.326875e-04 -6.010590e-05
N 3.136973e+00 -3.671830e+00 -3.302673e+00 1.288106e-05 2.376326e-04 -5.281532e-05
N 1.591867e+00 -9.254071e-01 1.756482e+00 4.516940e-04 -8.626793e-04 1.196695e-04
N 1.549774e+00 -9.475985e-01 6.841360e+00 -1.668866e-04 1.392316e-04 -1.851406e-04
N 1.562465e+00 -9.469547e-01 -3.291705e+00 -1.439632e-04 2.782912e-05 -1.031479e-04
N 3.126246e+00 1.781715e+00 1.779905e+00 1.326934e-04 1.135394e-05 -6.752399e-04
N 3.116196e+00 1.780792e+00 6.837170e+00 5.119276e-05 -1.576021e-05 -1.024492e-04
N 3.128738e+00 1.773819e+00 -3.308441e+00 -2.701922e-04 -6.584268e-05 1.428919e-04
N 6.275440e+00 -3.676556e+00 1.845203e+00 -3.615309e-04 3.037580e-04 1.744455e-03
N 6.268273e+00 -3.672100e+00 6.834534e+00 3.489130e-06 3.369701e-05 -1.709977e-04
N 6.278253e+00 -3.721067e+00 -3.312744e+00 1.511196e-06 4.321484e-05 1.265801e-05
N 4.695205e+00 -9.449736e-01 1.787906e+00 -8.312714e-05 7.186061e-05 2.310810e-05
N 4.690834e+00 -9.474284e-01 6.840783e+00 -2.772020e-04 -6.727313e-05 -2.546789e-04
N 4.665094e+00 -9.249649e-01 -3.320697e+00 -4.643553e-04 -1.215931e-04 -2.917276e-04
N -3.181567e+00 1.734767e+00 1.829284e+00 -8.955089e-04 -5.026366e-05 -4.167677e-04
N -3.184213e+00 1.778216e+00 6.843225e+00 -6.051880e-05 1.305009e-04 2.237577e-04
N -3.210613e+00 1.798992e+00 -3.310647e+00 -5.628209e-04 2.728085e-04 3.805763e-04
N -6.679616e-02 -3.697109e+00 1.806308e+00 -7.442656e-05 2.053405e-04 -3.404451e-04
N -3.539469e-02 -3.674595e+00 6.859148e+00 2.504713e-05 1.311212e-04 4.839213e-04
N -1.760312e-02 -3.670864e+00 -3.302235e+00 -5.704190e-05 2.274556e-04 4.165541e-05
N -1.636977e+00 -9.278173e-01 1.779104e+00 -7.488112e-04 -3.934935e-04 -2.263933e-04
N -1.609890e+00 -9.471002e-01 6.849251e+00 5.052874e-05 1.083056e-04 3.078454e-04
N -1.552226e+00 -9.720155e-01 -3.343304e+00 9.128955e-04 -7.860442e-04 1.289500e-03
