108
Energy=-528215.287797 Lattice="9.407012 0.000000 0.000000 -4.703698 8.147302 0.000000 -0.000573 0.000773 15.078818" Stress="-0.000005 -0.000001 -0.000000 -0.000001 -0.000000 0.000001 -0.000000 0.000001 0.000003" Properties=species:S:1:pos:R:3:forces:R:3
Al 1.545255 0.866880 2.364995 0.000299 0.000021 -0.000015
Al 1.543094 0.868060 7.389125 0.000054 0.000042 -0.000252
Al 1.546518 0.865723 -2.669258 0.000064 0.000396 0.000358
Al -0.022913 3.583080 2.365024 -0.000047 -0.000060 0.000097
Al -0.022929 3.580742 7.389196 0.000009 0.000046 -0.000233
Al -0.022264 3.583547 -2.669231 0.000066 -0.000053 0.000306
Al 3.105128 -1.853360 2.379138 0.000525 0.000449 0.000041
Al 3.114188 -1.848048 7.388327 0.000023 -0.000040 -0.000249
Al 3.108164 -1.852412 -2.679628 0.000375 -0.000039 0.000416
Al -4.726409 0.875194 2.378883 0.000197 0.000865 0.000136
Al -4.726508 0.865683 7.388345 0.000003 0.000035 -0.000258
Al -4.726017 0.872740 -2.679639 -0.000062 -0.000120 0.000287
Al -6.300900 3.579123 2.379334 -0.003449 -0.003433 0.002275
Al -6.293530 3.583325 7.388406 -0.000011 -0.000001 -0.000369
Al -6.299204 3.579126 -2.679924 -0.000008 -0.000033 0.001073
Al -3.151268 -1.852771 2.379182 0.000413 0.000093 0.000322
Al -3.159666 -1.847946 7.388359 -0.000017 -0.000046 -0.000270
Al -3.152524 -1.852334 -2.679802 -0.000448 -0.000180 0.000331
Al -1.591019 0.867097 2.364855 -0.000406 0.000056 -0.000024
Al -1.589119 0.868234 7.389163 -0.000019 0.000021 -0.000286
Al -1.591502 0.865951 -2.669247 0.000053 0.000418 0.000392
Al -3.152257 3.578984 2.379054 0.002778 -0.003191 0.001921
Al -3.159466 3.583410 7.388377 -0.000005 -0.000013 -0.000366
Al -3.152643 3.579227 -2.679690 0.000126 -0.000123 0.002396
Al -0.023001 -1.840436 2.379353 -0.000097 -0.003731 -0.000956
Al -0.022813 -1.849462 7.388364 -0.000004 -0.000068 -0.000282
Al -0.022240 -1.842865 -2.679574 0.000280 -0.000332 0.006080
Al -0.022981 1.772235 4.875568 -0.000009 0.000023 -0.000166
Al -0.022411 1.771536 -5.176987 0.000016 0.000079 -0.000104
Al -0.022461 1.771863 -0.154776 -0.000019 -0.000013 0.000274
Al 3.114167 -3.660706 4.884341 -0.000236 -0.000210 -0.000168
Al 3.114836 -3.660711 -5.185353 0.000016 -0.000026 -0.000238
Al 3.117116 -3.666804 -0.150084 0.001043 0.000367 0.000877
Al 1.544565 -0.941739 4.884341 0.000024 0.000088 -0.000211
Al 1.545734 -0.942714 -5.185370 -0.000048 0.000011 -0.000479
Al 1.540921 -0.937187 -0.150033 0.002954 0.001613 0.002546
Al 3.110929 1.771843 4.884301 0.000013 0.000291 -0.000276
Al 3.111939 1.770773 -5.185405 0.000007 0.000013 -0.000165
Al 3.105053 1.771876 -0.150099 -0.000051 -0.000239 0.000634
Al 6.247221 -3.660539 4.884403 0.000250 -0.000195 -0.000162
Al 6.247747 -3.660616 -5.185406 -0.000031 -0.000045 -0.000170
Al 6.245540 -3.666387 -0.149569 -0.000072 -0.000122 0.000147
Al 4.680666 -0.943453 4.876107 0.000004 0.000076 -0.000177
Al 4.681290 -0.944142 -5.178741 -0.000021 0.000031 -0.000131
Ga 4.681612 -0.944174 -0.146774 -0.000105 0.000173 0.000345
Al -3.156961 1.771911 4.884225 -0.000028 0.000256 -0.000314
Al -3.156916 1.770883 -5.185389 -0.000046 0.000029 -0.000238
Al -3.150328 1.772280 -0.150089 0.000234 -0.001433 0.001395
Al -0.022847 -3.659122 4.876640 -0.000027 -0.000375 -0.000611
Al -0.022277 -3.659844 -5.179925 0.000007 0.000008 -0.000509
Ga -0.020298 -3.668039 -0.128482 -0.000234 0.000322 -0.000865
Al -1.590191 -0.941503 4.884312 -0.000098 0.000054 -0.000215
Al -1.590147 -0.942530 -5.185383 0.000028 -0.000040 -0.000562
Al -1.585861 -0.936713 -0.150042 -0.000839 0.000651 0.002038
N 1.545393 0.866717 4.282390 -0.000085 -0.000080 0.000161
N 1.543267 0.867503 -5.776658 -0.000005 -0.000112 0.000251
N 1.545760 0.866106 -0.748556 -0.000027 -0.000008 -0.000522
N -0.022957 3.583286 4.282346 0.000001 0.000018 0.000042
N -0.022384 3.579526 -5.776623 -0.000025 -0.000005 0.000202
N -0.022198 3.582881 -0.748508 0.000133 0.000093 -0.000229
N 3.108643 -1.851344 4.292390 0.000063 0.000015 0.000095
N 3.114609 -1.848929 -5.775361 -0.000071 0.000032 0.000291
N 3.070435 -1.873992 -0.766493 0.000084 -0.000024 -0.000479
N -4.726568 0.871738 4.292203 -0.000023 -0.000139 0.000237
N -4.726004 0.865013 -5.775362 0.000042 -0.000013 0.000197
N -4.725908 0.915644 -0.766831 -0.000042 0.000140 -0.000422
N -6.298391 3.580497 4.292378 -0.000713 -0.000096 0.000800
N -6.292997 3.582512 -5.775584 0.000073 0.000039 0.000291
N -6.333491 3.558992 -0.765641 -0.000074 0.000146 -0.000943
N -3.154405 -1.851150 4.292414 -0.000009 -0.000044 0.000161
N -3.159033 -1.848856 -5.775351 0.000089 0.000073 0.000296
N -3.114784 -1.873837 -0.766816 0.000376 -0.000080 -0.000516
N -1.591459 0.866871 4.282271 0.000154 -0.000077 0.000197
N -1.588273 0.867653 -5.776620 0.000022 -0.000113 0.000297
N -1.590923 0.866507 -0.748519 0.000179 -0.000371 -0.000618
N -3.154773 3.580522 4.292231 0.000701 -0.000037 0.000758
N -3.158999 3.582610 -5.775586 -0.000018 0.000014 0.000297
N -3.113025 3.555501 -0.755290 -0.001415 0.001192 -0.004896
N -0.022946 -1.843949 4.292406 0.000051 0.000092 -0.000066
N -0.022329 -1.850355 -5.775596 0.000013 0.000028 0.000362
N -0.015488 -1.800613 -0.725315 -0.003001 -0.003212 -0.013575
N -0.022727 1.772413 1.766713 0.000004 0.000025 -0.000158
N -0.022922 1.772416 6.790603 -0.000022 -0.000030 0.000241
N -0.022362 1.771779 -3.259233 -0.000055 -0.000112 -0.000146
N 3.112205 -3.659313 1.769619 -0.000039 0.000499 0.000072
N 3.113777 -3.659688 6.798006 0.000040 0.000070 0.000299
N 3.116305 -3.661122 -3.272921 -0.000293 -0.000031 0.000203
N 1.544754 -0.944010 1.769749 0.000523 -0.000576 0.000891
N 1.545189 -0.942509 6.798012 -0.000057 0.000007 0.000205
N 1.545912 -0.941028 -3.272941 -0.000612 -0.000300 0.000759
N 3.113280 1.772861 1.769696 -0.000746 -0.000858 -0.000202
N 3.111907 1.771982 6.797974 -0.000017 -0.000079 0.000309
N 3.110676 1.770142 -3.273047 0.000005 0.000047 -0.000023
N 6.249198 -3.658798 1.769989 0.000127 0.000175 -0.000251
N 6.247746 -3.659568 6.798044 -0.000066 0.000055 0.000317
N 6.246426 -3.661029 -3.273050 0.000133 0.000044 0.000005
N 4.683706 -0.942092 1.832019 -0.001288 -0.000819 -0.000506
N 4.680770 -0.943344 6.792493 -0.000027 -0.000012 0.000235
N 4.681292 -0.943948 -3.260092 0.000019 0.000007 -0.000190
N -3.159151 1.772843 1.769614 0.000695 -0.000914 0.000083
N -3.157932 1.772035 6.797914 0.000024 -0.000063 0.000313
N -3.155661 1.770249 -3.273007 0.000000 0.000166 0.000152
N -0.025550 -3.694177 1.850919 0.001118 0.013167 -0.003815
N -0.022850 -3.659054 6.793000 0.000021 0.000095 0.000327
N -0.022249 -3.659659 -3.261360 0.000170 0.000549 0.000934
N -1.590593 -0.943751 1.769850 -0.000227 -0.000618 0.000658
N -1.590679 -0.942342 6.797981 0.000032 0.000015 0.000226
N -1.590288 -0.940875 -3.272979 0.000645 -0.000343 0.001025
