108
Energy=-665541.651666 Lattice="9.421184 0.000000 0.000000 -4.716245 8.160999 0.000000 -0.018015 0.023512 15.110189" Stress="-0.000008 0.000000 -0.000005 0.000000 0.000000 0.000006 -0.000005 0.000006 -0.000018" Properties=species:S:1:pos:R:3:forces:R:3
Al 1.534489 0.878241 2.354232 0.000926 -0.000555 0.000018
Al 1.532894 0.884548 7.414250 0.000375 -0.000690 -0.000054
Al 1.558571 0.867885 -2.659918 0.000313 -0.004923 -0.001068
Al -0.035441 3.593800 2.350344 0.000190 -0.000180 0.000707
Al -0.034729 3.592605 7.407305 -0.000332 0.000039 -0.000114
Al -0.013046 3.575940 -2.653742 -0.000239 0.000360 -0.000869
Al 3.118000 -1.843949 2.364956 0.000657 -0.000219 -0.000587
Al 3.121469 -1.835639 7.391063 0.000144 -0.000461 0.000642
Al 3.133133 -1.855607 -2.648514 0.003970 -0.002981 0.000339
Al -4.739263 0.877165 2.355305 0.000576 -0.000835 -0.000161
Al -4.740267 0.877514 7.417255 0.000746 -0.000296 -0.000396
Al -4.730038 0.858527 -2.666947 0.000605 -0.000199 -0.000868
Al -6.310293 3.600841 2.342645 -0.000726 -0.000696 0.000887
Al -6.314834 3.597710 7.430413 0.000333 0.000391 -0.000445
Al -6.305047 3.570702 -2.658405 -0.000240 0.000505 -0.000053
Al -3.169378 -1.836592 2.355681 0.000191 0.000208 -0.000467
Al -3.179901 -1.832992 7.416043 0.000289 0.000130 -0.000296
Al -3.163888 -1.861436 -2.664980 0.000378 0.000094 -0.000255
Al -1.603990 0.883490 2.362518 0.000731 -0.001016 0.000267
Al -1.611282 0.892882 7.401315 0.000743 -0.000649 -0.000061
Al -1.595896 0.869677 -2.664740 0.000682 -0.000796 0.000218
Al -3.172803 3.600796 2.363233 0.001484 -0.001041 0.000294
Al -3.178345 3.592388 7.391827 0.000478 0.000019 0.000292
Al -3.163182 3.567423 -2.646300 0.000753 0.000216 -0.000957
Al -0.029099 -1.840394 2.363106 0.000419 0.000779 -0.000092
Ga -0.031294 -1.838915 7.410341 0.001084 -0.000523 -0.000124
Ga -0.015063 -1.862333 -2.658189 0.000625 -0.000019 -0.000440
Al -0.044598 1.777633 4.878081 -0.000350 0.000204 0.000578
Al -0.013701 1.755353 -5.178970 -0.000840 0.000451 -0.000278
Al -0.021461 1.766067 -0.154553 -0.000251 -0.000219 0.000040
Al 3.107322 -3.656819 4.881730 -0.000413 0.000375 -0.000370
Ga 3.126742 -3.676223 -5.178674 -0.001011 0.000600 -0.000094
Al 3.125515 -3.676439 -0.150664 -0.000471 0.001527 -0.000932
Al 1.543930 -0.939383 4.869533 -0.000783 0.000219 -0.000290
Al 1.565047 -0.942013 -5.174913 0.000705 -0.002043 -0.001998
Al 1.560017 -0.952518 -0.135122 -0.000159 0.001812 -0.000104
Ga 3.110728 1.781327 4.888833 0.000012 -0.000442 0.000360
Al 3.122001 1.765037 -5.180561 0.000294 -0.000110 -0.001062
Al 3.121520 1.761806 -0.148686 -0.000558 0.000879 -0.001333
Ga 6.250646 -3.646076 4.886456 -0.000147 0.000129 -0.000020
Al 6.275708 -3.674798 -5.180196 -0.000194 0.000120 -0.000616
Al 6.265128 -3.672991 -0.147987 -0.000106 0.000767 -0.001497
Al 4.685863 -0.932760 4.881055 -0.000525 0.000094 0.000042
Al 4.700119 -0.950163 -5.179043 -0.000659 -0.000013 -0.000278
Al 4.697049 -0.954407 -0.154952 -0.000865 0.000417 0.000748
Al -3.167227 1.787206 4.878399 -0.000135 0.000259 0.000017
Al -3.162237 1.760423 -5.183646 -0.000128 0.000257 0.000125
Al -3.160095 1.762801 -0.150122 -0.000424 0.000529 0.000061
Al -0.020220 -3.650570 4.870141 0.001498 0.000970 0.001032
Al -0.020661 -3.686280 -5.172618 0.001008 -0.000962 0.000150
Al -0.013475 -3.687895 -0.125252 -0.001124 0.006065 -0.006792
Al -1.599517 -0.922136 4.873156 -0.000087 0.000134 -0.000287
Al -1.592941 -0.947432 -5.181607 0.000862 -0.000557 -0.000909
Al -1.585165 -0.952126 -0.146434 -0.005265 0.003845 0.002564
N 1.497001 0.859902 4.262673 0.000064 -0.000327 -0.000210
N 1.549549 0.859270 -5.779183 0.000169 -0.000435 0.000590
N 1.550808 0.858916 -0.742159 0.000357 -0.000204 -0.001346
N -0.071396 3.575401 4.265308 -0.000443 -0.000443 -0.000187
N 0.020334 3.551499 -5.792661 0.000716 -0.000406 0.000178
N -0.017559 3.578527 -0.742321 0.000087 0.000059 0.000491
N 3.117579 -1.843695 4.282196 0.000256 -0.000242 0.000732
N 3.128396 -1.817038 -5.806280 0.001066 0.000557 -0.000943
N 3.123967 -1.858855 -0.739739 -0.000069 -0.000169 0.000817
N -4.704472 0.858007 4.264056 0.000705 -0.000345 0.000055
N -4.726884 0.856316 -5.775418 0.000135 -0.000022 0.000484
N -4.730330 0.857887 -0.751546 0.000206 0.000462 0.000522
N -6.273477 3.623054 4.245365 -0.001297 -0.000580 -0.001973
N -6.297811 3.579207 -5.769967 -0.000368 -0.000167 0.000378
N -6.301514 3.577026 -0.739362 0.000249 0.000646 -0.000204
N -3.169127 -1.794533 4.260948 0.000011 0.000296 0.000233
N -3.156449 -1.860113 -5.778503 0.000373 -0.000191 0.000339
N -3.153636 -1.861545 -0.749951 -0.000238 0.000108 0.000537
N -1.606812 0.884754 4.278021 0.000842 -0.000338 0.000180
N -1.589720 0.863595 -5.787147 0.000898 -0.000614 -0.000025
N -1.591447 0.860223 -0.749551 -0.000193 0.000471 -0.000153
N -3.173368 3.601003 4.280009 0.000366 -0.000350 0.000320
N -3.201255 3.555423 -5.805747 0.000098 -0.000890 -0.000426
N -3.164001 3.575714 -0.736482 -0.000358 0.000706 0.000300
N -0.031568 -1.838435 4.283447 0.000532 -0.000405 0.000339
N -0.005092 -1.869893 -5.720161 -0.002990 0.003315 0.000304
N -0.024730 -1.838780 -0.688891 0.005083 -0.010296 0.000972
N -0.030439 1.779938 1.757858 -0.000770 0.000761 0.000294
N -0.032711 1.783440 6.800043 -0.000364 0.000402 -0.000052
N -0.016152 1.764056 -3.258670 -0.000045 -0.000558 -0.000003
N 3.114318 -3.655554 1.762925 -0.000234 -0.000612 0.000820
N 3.113261 -3.656474 6.805183 -0.000103 0.000237 0.000027
N 3.125798 -3.676118 -3.203586 0.000247 -0.000917 0.001411
N 1.550484 -0.937415 1.776167 -0.000767 -0.000790 0.000628
N 1.582405 -0.910022 6.781386 -0.000648 0.001165 -0.000220
N 1.614206 -0.958529 -3.276154 -0.005426 0.011765 0.002093
N 3.109820 1.783656 1.763100 0.000269 -0.000856 0.000876
N 3.106986 1.788174 6.864596 -0.000205 -0.000091 0.000903
N 3.122317 1.767123 -3.261996 -0.000340 -0.000893 0.000259
N 6.252322 -3.652815 1.763339 0.000236 -0.000917 0.001107
N 6.254033 -3.651510 6.860611 0.000026 -0.000157 0.000835
N 6.267557 -3.674587 -3.259989 0.000070 -0.000297 0.000312
N 4.682791 -0.935698 1.760889 0.000021 -0.000387 -0.000688
N 4.685747 -0.930401 6.799575 -0.000377 0.000410 -0.000098
N 4.695451 -0.956028 -3.261969 -0.000130 0.000397 0.000502
N -3.171293 1.787848 1.765267 0.000089 -0.000334 -0.000159
N -3.177260 1.785658 6.797675 -0.000414 -0.000083 0.000042
N -3.159759 1.766901 -3.264070 -0.000348 0.000207 0.000099
N -0.023174 -3.655313 1.765838 0.000627 -0.000279 0.003618
N -0.034436 -3.698220 6.782016 -0.000336 -0.000428 -0.000104
N -0.014649 -3.726163 -3.265719 -0.000024 -0.000829 0.000050
N -1.598781 -0.930732 1.772689 0.000299 -0.000684 -0.000681
N -1.640201 -0.908824 6.788789 -0.001138 0.000702 0.000179
N -1.624288 -0.929193 -3.276738 -0.001508 0.000900 0.000433
