108
Energy=-1.993028e+06 Lattice="9.576080e+00 0.000000e+00 0.000000e+00 -4.812082e+00 8.281176e+00 0.000000e+00 -8.737375e-03 4.135971e-02 1.545197e+01" Stress="-1.655567e-02 -6.851129e-04 -2.194867e-04 -6.905717e-04 -9.616057e-03 1.609733e-03 -2.158821e-04 1.620760e-03 -1.007067e-02" Properties=species:S:1:pos:R:3:forces:R:3 Config_type=AlGaN_super3_34_0_3.xyz
Al 1.566721e+00 9.340609e-01 2.413340e+00 -8.170795e-03 -1.785740e-03 4.748093e-03
Al 1.567208e+00 9.005894e-01 7.591967e+00 -1.432876e-03 -4.027659e-03 2.293294e-04
Al 1.567647e+00 8.586727e-01 -2.754135e+00 2.444571e-03 -5.543896e-03 2.557492e-03
Al 1.096582e-02 3.842601e+00 1.972362e+00 -4.788443e-02 -9.569278e-02 8.375481e-02
Ga -3.970754e-02 3.663635e+00 7.598386e+00 -1.166008e-04 -2.054484e-05 -6.796367e-03
Ga -3.236145e-02 3.606061e+00 -2.740929e+00 -1.262725e-03 1.176168e-03 -5.307394e-03
Ga 3.191171e+00 -1.882757e+00 2.437151e+00 -5.070112e-03 5.536550e-03 6.294593e-03
Al 3.175458e+00 -1.865671e+00 7.588241e+00 -3.971550e-04 -1.395335e-03 -5.274645e-04
Ga 3.175428e+00 -1.920636e+00 -2.743320e+00 -3.756316e-04 1.457461e-03 -9.909491e-04
Ga -4.833300e+00 9.161812e-01 2.448448e+00 1.983155e-03 -4.151040e-03 7.903033e-04
Ga -4.839279e+00 9.148371e-01 7.600137e+00 2.198379e-03 -5.604296e-03 -2.894128e-03
Ga -4.834994e+00 8.755613e-01 -2.727387e+00 2.058962e-03 -5.276308e-03 -1.978029e-03
Ga -6.437601e+00 3.659066e+00 2.423818e+00 6.323092e-03 -5.197513e-03 8.872393e-03
Ga -6.424529e+00 3.661439e+00 7.598054e+00 -1.563957e-03 2.346073e-03 -1.375587e-03
Ga -6.417858e+00 3.613590e+00 -2.724629e+00 2.242157e-03 1.301067e-05 -1.018927e-03
Al -3.218098e+00 -1.879981e+00 2.439876e+00 6.193278e-03 8.813276e-03 6.563990e-03
Al -3.214183e+00 -1.862915e+00 7.590689e+00 7.526728e-04 -8.520446e-04 -6.416869e-04
Ga -3.196878e+00 -1.913448e+00 -2.721872e+00 8.103246e-05 3.039782e-03 -1.595850e-03
Ga -1.644986e+00 9.597870e-01 2.430253e+00 1.365040e-02 -1.227129e-03 3.366297e-04
Ga -1.648156e+00 9.222066e-01 7.601614e+00 6.985152e-03 -3.077497e-03 -4.098369e-03
Ga -1.630962e+00 8.728379e-01 -2.727245e+00 3.253697e-03 -4.061534e-03 -3.539082e-03
Al -3.234719e+00 3.675570e+00 2.443165e+00 2.546526e-03 -3.119505e-03 5.478272e-03
Al -3.237689e+00 3.680057e+00 7.595695e+00 5.054115e-03 1.434450e-03 -5.753869e-04
Al -3.229504e+00 3.634278e+00 -2.733766e+00 2.125740e-03 1.285330e-04 -5.764697e-04
Ga -2.311432e-02 -1.844121e+00 2.458763e+00 4.259116e-03 3.513741e-03 -1.129510e-03
Ga -1.615019e-02 -1.852880e+00 7.587359e+00 4.628981e-03 2.560491e-03 -2.663756e-03
Al -1.009734e-02 -1.901012e+00 -2.743965e+00 4.453359e-03 9.956396e-04 -2.632062e-03
Ga -1.420665e-02 1.818370e+00 5.017041e+00 -3.950465e-03 1.541828e-02 -7.500893e-03
Al -9.259981e-03 1.773754e+00 -5.301339e+00 -2.527296e-03 -2.536622e-05 -2.934347e-03
Al -6.870317e-03 1.770737e+00 -2.008633e-01 -3.125803e-03 -8.756542e-03 1.179446e-02
Ga 3.178891e+00 -3.695422e+00 5.021972e+00 1.197849e-02 -1.142947e-02 -4.583834e-03
Al 3.185218e+00 -3.750347e+00 -5.307973e+00 -9.600953e-04 8.459380e-04 -2.543677e-03
Al 3.199918e+00 -3.763891e+00 -1.709768e-01 -1.957865e-02 5.428535e-03 -1.656881e-03
Al 1.600261e+00 -9.371701e-01 5.013474e+00 -4.277771e-03 5.256298e-03 -1.929323e-04
Al 1.601847e+00 -9.879773e-01 -5.303313e+00 -2.365235e-03 4.140556e-03 -1.537238e-03
Ga 1.603548e+00 -9.995214e-01 -1.778196e-01 -6.701379e-03 8.785368e-03 1.004005e-02
Ga 3.141101e+00 1.820277e+00 5.012532e+00 -3.023552e-03 3.804564e-04 2.020381e-03
Al 3.146535e+00 1.775072e+00 -5.298480e+00 -3.494078e-04 6.489980e-06 -4.738003e-04
Al 3.143663e+00 1.787359e+00 -1.766969e-01 -7.644426e-05 -3.522227e-03 1.194638e-02
Ga 6.369362e+00 -3.691485e+00 5.017493e+00 -1.536594e-02 -9.913184e-03 -1.436517e-03
Ga 6.371665e+00 -3.750594e+00 -5.298946e+00 1.021396e-05 4.288065e-04 -2.598628e-03
Al 6.360255e+00 -3.753442e+00 -1.588092e-01 1.746274e-02 6.707982e-03 -8.533276e-03
Ga 4.771248e+00 -9.535298e-01 5.026962e+00 -3.044626e-04 3.234606e-03 4.750037e-04
Ga 4.770890e+00 -9.966684e-01 -5.305463e+00 -4.555243e-04 4.599388e-03 -2.338239e-03
Ga 4.776984e+00 -1.008181e+00 -1.532614e-01 -2.643287e-04 1.125625e-02 7.522617e-03
Ga -3.239240e+00 1.846565e+00 5.020844e+00 2.189894e-03 -5.490711e-04 1.055900e-03
Ga -3.226558e+00 1.804579e+00 -5.291302e+00 -9.036846e-04 -1.939117e-03 -1.015787e-03
Ga -3.225859e+00 1.796023e+00 -1.700357e-01 -1.449667e-03 -5.303635e-04 1.134018e-02
Ga -1.215585e-02 -3.690120e+00 5.017174e+00 -1.196356e-03 -9.218157e-04 9.765058e-04
Ga 1.958736e-03 -3.736547e+00 -5.288972e+00 -2.038867e-03 -1.040332e-03 -1.151290e-03
Ga -9.177622e-03 -3.742971e+00 -1.786956e-01 4.412444e-04 1.314897e-03 1.202494e-02
Ga -1.616430e+00 -9.392752e-01 5.015196e+00 -2.466960e-03 6.954699e-03 -1.156129e-03
Ga -1.597382e+00 -9.854970e-01 -5.293846e+00 -3.589620e-03 4.824886e-03 -2.052241e-03
Ga -1.601386e+00 -1.003881e+00 -1.693486e-01 -1.169113e-03 9.267866e-03 1.381251e-02
N 1.560673e+00 8.891906e-01 4.364077e+00 2.441607e-03 -1.729012e-02 -1.058237e-02
N 1.569814e+00 8.615644e-01 -5.917778e+00 9.784711e-04 -4.327176e-03 2.181517e-03
N 1.570728e+00 8.846712e-01 -8.083502e-01 2.287032e-03 3.519727e-03 -8.171346e-03
N -3.490604e-02 3.662125e+00 4.404137e+00 5.280308e-04 5.693538e-03 -1.791673e-02
N -5.103930e-02 3.602076e+00 -5.889015e+00 -8.318575e-03 -4.477373e-03 8.572256e-03
N -2.959060e-02 3.605567e+00 -7.619287e-01 3.478852e-04 6.192374e-03 1.972658e-02
N 3.159568e+00 -1.851982e+00 4.407083e+00 -9.762805e-03 6.891087e-03 -1.313930e-03
N 3.161799e+00 -1.922254e+00 -5.923228e+00 -7.872600e-03 -4.238471e-03 -1.914447e-03
N 3.189622e+00 -1.947931e+00 -7.766407e-01 1.150871e-03 -1.057428e-02 4.050159e-03
N -4.833238e+00 9.149551e-01 4.408376e+00 1.976314e-03 -5.908614e-03 -7.950786e-04
N -4.847749e+00 8.873882e-01 -5.892960e+00 -5.247086e-03 -5.577214e-04 5.288178e-03
N -4.850079e+00 8.815434e-01 -7.646653e-01 -6.331691e-03 -1.596646e-03 4.762967e-03
N -6.427560e+00 3.665032e+00 4.399039e+00 3.762586e-03 2.470039e-03 -6.084316e-03
N -6.413793e+00 3.594077e+00 -5.891607e+00 1.429477e-03 -7.984748e-03 4.854002e-03
N -6.444512e+00 3.604572e+00 -7.523146e-01 -9.864723e-03 -1.164937e-03 6.821136e-03
N -3.212057e+00 -1.862677e+00 4.368815e+00 2.473440e-03 2.929861e-03 -1.364119e-02
N -3.199162e+00 -1.905532e+00 -5.938323e+00 4.924422e-04 1.210637e-03 -7.166906e-03
N -3.204192e+00 -1.939414e+00 -7.655389e-01 -8.903402e-04 -1.061712e-02 4.675352e-03
N -1.646121e+00 9.339079e-01 4.397431e+00 3.154479e-03 -8.934463e-03 -1.162960e-03
N -1.615868e+00 8.908641e-01 -5.890810e+00 1.091495e-02 -4.180956e-05 5.854752e-03
N -1.614422e+00 8.798322e-01 -7.695270e-01 1.022676e-02 5.116150e-04 2.585959e-03
N -3.244282e+00 3.674427e+00 4.368756e+00 1.389403e-03 3.320924e-03 -1.272175e-02
N -3.210773e+00 3.643355e+00 -5.929711e+00 9.653219e-03 4.478516e-03 -5.368731e-03
N -3.208534e+00 3.637274e+00 -8.064111e-01 1.239579e-02 6.905115e-03 -5.526213e-03
N 1.095902e-03 -1.835499e+00 4.417184e+00 1.102086e-02 4.713427e-03 3.642596e-03
N 1.005016e-02 -1.884550e+00 -5.902386e+00 1.078597e-02 4.487826e-03 3.916012e-03
N -1.767388e-02 -1.907657e+00 -8.295446e-01 4.653797e-03 1.812150e-03 -5.219432e-03
N 1.182621e-02 1.871204e+00 1.734748e+00 2.366324e-03 3.302469e-03 -9.081290e-03
N 3.477849e-03 1.808775e+00 6.983784e+00 2.415013e-03 -8.867418e-03 8.234243e-03
N 9.306541e-03 1.762117e+00 -3.370509e+00 2.044792e-03 -4.318543e-03 -3.226373e-03
N 3.195874e+00 -3.759006e+00 1.826670e+00 -3.028782e-02 1.691531e-02 -3.458885e-02
N 3.161131e+00 -3.690202e+00 6.991462e+00 -1.297059e-02 5.388619e-03 1.095325e-02
N 3.169284e+00 -3.766128e+00 -3.373574e+00 -8.499232e-03 -5.856636e-03 -4.465127e-03
N 1.601483e+00 -9.099805e-01 1.825297e+00 -4.054903e-03 4.618031e-03 -6.634398e-03
N 1.622693e+00 -9.285874e-01 6.957113e+00 1.690754e-03 5.955683e-03 -1.849625e-03
N 1.580150e+00 -9.826252e-01 -3.364984e+00 -1.167526e-02 7.353906e-03 -1.484685e-03
N 3.134180e+00 1.805881e+00 1.806669e+00 -4.866138e-03 -9.354519e-04 -1.985309e-02
N 3.124310e+00 1.813129e+00 6.981467e+00 -5.840494e-03 -4.272939e-03 1.746582e-03
N 3.133276e+00 1.768512e+00 -3.366795e+00 -7.154697e-03 -3.603807e-03 -6.390599e-03
N 6.329659e+00 -3.710110e+00 1.820544e+00 6.186927e-02 4.858735e-02 -3.724667e-02
N 6.369055e+00 -3.671250e+00 6.988503e+00 3.555491e-03 8.998871e-03 6.485451e-03
N 6.375642e+00 -3.746162e+00 -3.341496e+00 -6.080532e-04 -1.462214e-03 1.740099e-03
N 4.806194e+00 -9.653671e-01 1.846038e+00 4.055270e-03 -3.618932e-03 -8.617186e-03
N 4.775074e+00 -9.771081e-01 6.998440e+00 -1.405466e-03 -2.056710e-03 6.491116e-03
N 4.781084e+00 -9.985363e-01 -3.345274e+00 -4.790516e-04 5.339339e-03 2.377140e-03
N -3.247615e+00 1.875935e+00 1.838133e+00 -5.270962e-04 4.648397e-03 -1.095149e-02
N -3.239035e+00 1.866294e+00 6.990340e+00 -1.241118e-03 6.863559e-03 2.361409e-03
N -3.230340e+00 1.818523e+00 -3.328791e+00 1.905662e-04 6.978931e-03 4.048231e-03
N 5.402699e-03 -3.697958e+00 1.837694e+00 5.078876e-03 -5.491833e-03 -9.903030e-03
N 5.346460e-03 -3.708802e+00 6.986595e+00 6.065366e-03 -4.223665e-03 1.838268e-03
N 1.172025e-02 -3.728722e+00 -3.322155e+00 5.913256e-03 3.258244e-03 7.297856e-03
N -1.643980e+00 -9.477700e-01 1.848484e+00 -7.669231e-03 -3.163330e-03 -9.625659e-03
N -1.640959e+00 -9.561702e-01 6.982842e+00 -8.021421e-03 7.579732e-04 3.727003e-03
N -1.585142e+00 -1.006265e+00 -3.334015e+00 5.377964e-03 1.275277e-03 4.683257e-03
