108
Energy=-1.169072e+06 Lattice="9.482894e+00 0.000000e+00 0.000000e+00 -4.742894e+00 8.218192e+00 0.000000e+00 2.548965e-03 -3.774379e-03 1.527507e+01" Stress="2.399543e-04 1.161006e-04 2.125831e-04 1.229675e-04 1.867047e-03 -9.547890e-05 2.134395e-04 -9.453277e-05 -4.395441e-04" Properties=species:S:1:pos:R:3:forces:R:3 Config_type=AlGaN_super3_16_2_14.xyz
Al 1.554086e+00 8.741087e-01 2.388998e+00 4.529649e-05 3.209875e-04 -5.198519e-04
Al 1.566145e+00 8.658391e-01 7.474609e+00 -5.437322e-04 -1.648194e-04 4.305034e-04
Al 1.557681e+00 8.601835e-01 -2.680847e+00 -2.614499e-03 4.701934e-04 6.090596e-04
Al -1.525545e-02 3.595448e+00 2.418817e+00 1.037875e-03 7.442362e-04 -3.921628e-04
Al -2.991450e-02 3.622440e+00 7.455900e+00 -3.636009e-06 -1.935107e-03 -8.439258e-04
Al -3.086127e-02 3.606231e+00 -2.681265e+00 -2.824261e-05 -3.247327e-04 7.193794e-07
Al 3.134579e+00 -1.856837e+00 2.414517e+00 2.141262e-03 1.839105e-03 1.071202e-04
Al 3.143654e+00 -1.870792e+00 7.484728e+00 2.074467e-05 6.045641e-05 -1.522379e-04
Al 3.133819e+00 -1.859202e+00 -2.715667e+00 -6.140732e-04 -1.966407e-03 5.427927e-04
Al -4.780539e+00 8.654373e-01 2.419861e+00 3.198707e-04 2.178977e-04 -2.959110e-04
Al -4.776738e+00 8.625794e-01 7.464391e+00 6.063533e-04 1.554315e-04 5.788264e-04
Ga -4.785540e+00 8.585738e-01 -2.691321e+00 8.149314e-04 5.652433e-04 6.828262e-04
Al -6.358549e+00 3.599526e+00 2.425878e+00 1.522430e-05 9.540525e-04 -6.517274e-04
Ga -6.345259e+00 3.603303e+00 7.458135e+00 -1.570978e-06 1.307089e-04 1.477989e-04
Ga -6.360928e+00 3.598701e+00 -2.684442e+00 2.293991e-04 3.552592e-04 3.038885e-04
Ga -3.183094e+00 -1.863011e+00 2.402423e+00 -5.015804e-04 -2.351569e-04 3.209823e-04
Al -3.185670e+00 -1.858977e+00 7.462763e+00 2.679944e-04 7.359113e-05 5.135549e-06
Ga -3.184528e+00 -1.856973e+00 -2.679504e+00 2.712300e-04 -1.325117e-04 6.856284e-04
Al -1.585666e+00 8.695522e-01 2.425846e+00 4.608692e-04 -5.106296e-04 -1.032663e-03
Ga -1.599116e+00 8.693111e-01 7.458090e+00 8.261000e-04 -4.707629e-04 7.222149e-04
Al -1.583229e+00 8.667245e-01 -2.687100e+00 5.030930e-04 -3.941179e-05 3.616555e-05
Ga -3.183288e+00 3.612928e+00 2.442367e+00 -2.617009e-04 -2.010393e-05 -2.411480e-04
Al -3.172599e+00 3.625573e+00 7.451812e+00 4.027886e-05 -8.902616e-04 -6.643925e-04
Ga -3.165813e+00 3.624257e+00 -2.689566e+00 1.891342e-04 -1.395176e-04 -2.138998e-04
Al -1.755222e-02 -1.844035e+00 2.412030e+00 -8.572344e-04 -2.952267e-03 -2.071828e-03
Al -1.825291e-02 -1.863165e+00 7.483949e+00 -5.789601e-04 2.046969e-04 -7.713752e-05
Al -9.503849e-03 -1.831785e+00 -2.694689e+00 5.869661e-05 -1.658800e-03 4.154687e-04
Al -1.818537e-02 1.794800e+00 4.930792e+00 -1.032116e-05 1.483935e-04 6.185494e-04
Ga -8.803753e-03 1.786033e+00 -5.238496e+00 -3.674889e-04 1.275311e-04 8.352786e-04
Al -1.378591e-02 1.780288e+00 -1.462332e-01 4.463546e-04 -4.686974e-04 -4.613640e-05
Al 3.153302e+00 -3.691233e+00 4.946950e+00 -7.837761e-04 -6.224189e-04 1.801871e-04
Al 3.147756e+00 -3.670716e+00 -5.260116e+00 -8.102971e-04 -2.041790e-03 -7.403325e-04
Ga 3.167507e+00 -3.675980e+00 -1.246793e-01 -2.083980e-04 8.845570e-04 -6.608694e-04
Ga 1.557559e+00 -9.528524e-01 4.943253e+00 -1.251164e-04 6.812010e-04 1.292666e-03
Al 1.569447e+00 -9.495160e-01 -5.257779e+00 -5.552304e-04 6.730600e-04 2.437077e-04
Al 1.564192e+00 -9.405897e-01 -1.438459e-01 -3.985855e-04 3.090030e-04 -1.388755e-04
Al 3.136664e+00 1.783411e+00 4.925778e+00 5.858667e-05 1.224088e-04 4.313782e-05
Al 3.130853e+00 1.762471e+00 -5.261459e+00 7.505276e-05 1.257319e-04 7.038885e-04
Al 3.119684e+00 1.775726e+00 -1.110818e-01 1.614469e-05 1.073581e-04 -4.947115e-04
Al 6.294117e+00 -3.693785e+00 4.943033e+00 3.072136e-04 2.250215e-04 -2.543616e-04
Ga 6.281404e+00 -3.679587e+00 -5.262059e+00 3.458315e-04 -1.723284e-05 6.996922e-04
Al 6.293963e+00 -3.701100e+00 -1.242615e-01 5.952695e-05 1.598883e-04 -7.307806e-04
Al 4.722191e+00 -9.510636e-01 4.953915e+00 -1.952840e-04 8.717475e-05 1.424208e-04
Al 4.711521e+00 -9.521173e-01 -5.276135e+00 -7.580367e-05 -4.139722e-05 -4.565993e-05
Al 4.707480e+00 -9.530791e-01 -1.289160e-01 -3.695503e-04 -1.684005e-04 -2.021527e-04
Al -3.191251e+00 1.774683e+00 4.943294e+00 -3.039267e-04 1.423169e-03 -1.476777e-04
Ga -3.193628e+00 1.783172e+00 -5.262441e+00 1.790233e-04 2.558606e-04 1.370131e-04
Ga -3.179178e+00 1.758457e+00 -1.169748e-01 1.733042e-04 -5.481727e-05 -4.925136e-04
Al -3.036566e-02 -3.689129e+00 4.945574e+00 -5.611040e-04 3.910482e-04 -1.130672e-04
Ga -1.260003e-02 -3.673665e+00 -5.256619e+00 -3.168489e-05 -1.435956e-04 3.116723e-04
Ga -4.290221e-02 -3.672123e+00 -1.207834e-01 2.656521e-06 2.567524e-04 -3.865502e-04
Al -1.601770e+00 -9.562563e-01 4.938681e+00 -1.633490e-03 3.085702e-04 9.267041e-04
Al -1.600697e+00 -9.603225e-01 -5.245520e+00 1.185921e-04 2.955858e-03 -6.019182e-04
Al -1.591329e+00 -9.447986e-01 -1.376210e-01 8.069378e-05 3.394665e-04 -1.522957e-04
N 1.552902e+00 9.167708e-01 4.301553e+00 4.437812e-04 -3.121285e-04 -5.208230e-04
N 1.593369e+00 8.513227e-01 -5.883777e+00 2.634578e-04 -5.076387e-04 -6.542378e-04
N 1.560829e+00 8.717746e-01 -7.459294e-01 4.392215e-04 -1.096064e-04 2.365988e-04
N -2.125878e-02 3.611509e+00 4.334971e+00 -1.525523e-04 -3.260247e-04 1.583139e-04
N -6.768643e-02 3.630289e+00 -5.914034e+00 -2.081007e-04 8.897141e-04 1.295400e-03
N 1.667635e-02 3.589625e+00 -7.665031e-01 -1.722386e-04 -6.355856e-04 4.382114e-04
N 3.180069e+00 -1.884209e+00 4.327014e+00 4.065557e-05 -3.244757e-04 -5.146441e-04
N 3.139339e+00 -1.864006e+00 -5.865431e+00 -3.285125e-04 -3.016660e-04 -2.580800e-04
N 3.138569e+00 -1.817657e+00 -7.860024e-01 5.021540e-05 7.819380e-05 -6.055341e-04
N -4.770119e+00 8.654493e-01 4.337490e+00 3.946048e-04 -2.330547e-04 -3.471414e-05
N -4.809005e+00 8.517190e-01 -5.890426e+00 -5.641902e-05 -1.795957e-04 -4.060664e-04
N -4.814487e+00 8.495982e-01 -7.139630e-01 2.368762e-04 2.790533e-04 -1.224837e-04
N -6.349825e+00 3.610907e+00 4.349417e+00 -2.688063e-04 5.653794e-05 1.794960e-04
N -6.346540e+00 3.566353e+00 -5.845587e+00 -9.586763e-05 -5.223856e-04 -4.574090e-04
N -6.387937e+00 3.581345e+00 -7.091481e-01 -5.345528e-05 -3.499484e-04 1.515969e-04
N -3.185558e+00 -1.864185e+00 4.382985e+00 1.508929e-04 -1.486930e-05 -1.239211e-04
N -3.178871e+00 -1.813488e+00 -5.886947e+00 -1.553700e-04 4.548212e-04 -4.247881e-04
N -3.183332e+00 -1.863277e+00 -6.843530e-01 8.511040e-05 9.258058e-06 3.839994e-05
N -1.599081e+00 8.726950e-01 4.349694e+00 1.880025e-04 -4.646514e-04 -3.586655e-04
N -1.597873e+00 8.343810e-01 -5.852618e+00 -2.314813e-04 -2.926760e-03 8.093226e-04
N -1.560519e+00 8.484644e-01 -7.685385e-01 -2.456154e-04 1.691603e-04 -6.454571e-04
N -3.186715e+00 3.614034e+00 4.412503e+00 1.653934e-03 -1.846759e-04 3.323141e-04
N -3.142169e+00 3.639867e+00 -5.906966e+00 1.033081e-03 1.030835e-03 1.254325e-03
N -3.181092e+00 3.615037e+00 -7.267868e-01 6.966031e-05 -4.462833e-04 5.745020e-04
N -6.500334e-02 -1.881212e+00 4.316294e+00 1.667851e-03 -1.274654e-03 -3.186633e-04
N -2.257188e-02 -1.809871e+00 -5.876098e+00 3.417790e-04 -2.552304e-04 -1.691965e-04
N -1.761864e-02 -1.809563e+00 -7.719148e-01 3.602764e-04 -3.729267e-04 -4.099327e-04
N -2.767866e-02 1.784883e+00 1.787597e+00 3.026641e-04 4.265938e-04 4.586045e-04
N 2.685305e-02 1.806415e+00 6.844348e+00 1.121378e-05 1.407658e-03 3.149794e-05
N -1.602617e-02 1.788338e+00 -3.249920e+00 6.018716e-04 -5.961119e-04 3.079072e-04
N 3.186496e+00 -3.667184e+00 1.847755e+00 -4.232225e-04 -2.079829e-04 -3.922682e-04
N 3.146633e+00 -3.684243e+00 6.861820e+00 -2.501462e-04 4.066728e-04 -4.081426e-04
N 3.186317e+00 -3.671643e+00 -3.334449e+00 4.939742e-05 2.076188e-03 8.913371e-05
N 1.562538e+00 -9.541719e-01 1.792374e+00 -3.462430e-04 -3.331672e-04 2.687556e-05
N 1.557449e+00 -9.598398e-01 6.922045e+00 1.766931e-03 1.151416e-03 2.964715e-06
N 1.563784e+00 -9.478002e-01 -3.318511e+00 -5.944478e-04 -1.549364e-05 -7.515005e-04
N 3.137012e+00 1.785731e+00 1.810563e+00 1.020755e-05 1.353553e-05 5.720973e-04
N 3.135451e+00 1.732723e+00 6.835879e+00 -1.755685e-04 -3.402152e-04 -6.156191e-04
N 3.088104e+00 1.756112e+00 -3.347685e+00 1.009530e-03 2.593956e-04 -7.489780e-04
N 6.296033e+00 -3.740991e+00 1.789519e+00 9.376400e-05 -9.693956e-04 1.586785e-03
N 6.260142e+00 -3.666648e+00 6.854798e+00 -8.862452e-05 2.754001e-05 -1.410472e-04
N 6.252689e+00 -3.709850e+00 -3.291058e+00 2.149985e-05 3.294504e-04 -5.531636e-04
N 4.675934e+00 -9.265535e-01 1.782031e+00 -1.383790e-03 -1.514377e-03 9.767393e-04
N 4.716821e+00 -9.537080e-01 6.874795e+00 -5.747174e-04 -3.684024e-04 -3.323693e-04
N 4.681946e+00 -9.792311e-01 -3.359362e+00 5.715194e-04 3.570161e-04 -6.367903e-04
N -3.177281e+00 1.733113e+00 1.857725e+00 -1.561504e-03 6.157747e-05 6.496731e-04
N -3.228087e+00 1.804107e+00 6.858069e+00 -5.531599e-04 3.486849e-04 -4.473414e-04
N -3.148307e+00 1.760376e+00 -3.285437e+00 -1.874151e-04 -4.164174e-04 -1.258810e-04
N -6.607535e-02 -3.669878e+00 1.851221e+00 -1.308311e-04 2.222289e-03 8.247132e-04
N 1.602604e-02 -3.661841e+00 6.858892e+00 -1.743515e-04 2.198495e-04 -2.358299e-04
N -2.494702e-02 -3.641356e+00 -3.281056e+00 -5.244613e-05 1.431046e-03 3.495278e-06
N -1.559552e+00 -9.241146e-01 1.776880e+00 5.381108e-04 4.370257e-04 1.748507e-03
N -1.594589e+00 -1.003148e+00 6.845026e+00 -7.385658e-04 -2.853701e-04 -3.294248e-05
N -1.563450e+00 -9.310164e-01 -3.322785e+00 -4.687025e-04 -2.949349e-05 -6.602438e-04
