108
Energy=-1.306398e+06 Lattice="9.497884e+00 0.000000e+00 0.000000e+00 -4.750156e+00 8.221554e+00 0.000000e+00 6.899003e-04 2.166326e-03 1.532108e+01" Stress="-9.821017e-04 -1.031118e-04 8.016923e-05 -1.066482e-04 -1.650343e-03 1.237607e-04 4.565927e-05 1.212031e-04 -3.977842e-04" Properties=species:S:1:pos:R:3:forces:R:3 Config_type=AlGaN_super3_19_1_14.xyz
Al 1.557584e+00 8.863819e-01 2.373018e+00 -1.545215e-04 1.927281e-04 8.276548e-04
Al 1.554225e+00 8.779015e-01 7.520495e+00 4.768392e-05 -3.243395e-05 -6.097864e-05
Al 1.542300e+00 8.755028e-01 -2.685219e+00 9.531717e-05 8.333127e-05 -7.491166e-05
Al -2.946911e-02 3.605885e+00 2.390328e+00 -1.145346e-03 -8.342705e-04 4.671135e-04
Al -2.726587e-02 3.600630e+00 7.525667e+00 1.420617e-04 7.702106e-04 2.316140e-04
Al -1.928925e-02 3.604241e+00 -2.704790e+00 8.268967e-04 -4.616985e-04 1.588941e-04
Al 3.149804e+00 -1.867572e+00 2.396079e+00 7.403485e-04 -1.700664e-04 -1.171505e-04
Al 3.154881e+00 -1.861071e+00 7.525449e+00 -3.183337e-04 4.477878e-04 -1.824469e-04
Ga 3.142639e+00 -1.876366e+00 -2.706350e+00 -3.045589e-04 1.020498e-04 9.760187e-05
Al -4.769757e+00 8.849773e-01 2.399092e+00 -2.780106e-04 -1.096910e-03 -8.005484e-05
Al -4.776718e+00 8.649465e-01 7.491250e+00 2.924048e-04 -1.623110e-05 -4.856179e-05
Ga -4.773280e+00 8.725980e-01 -2.672208e+00 5.424241e-05 3.182216e-04 1.776653e-04
Al -6.363887e+00 3.608021e+00 2.401276e+00 1.554644e-03 -1.386150e-03 1.975275e-03
Ga -6.353672e+00 3.608359e+00 7.512998e+00 8.812807e-05 1.357130e-04 2.166960e-04
Al -6.376437e+00 3.616740e+00 -2.693844e+00 -2.000453e-04 4.826490e-06 -4.642880e-04
Al -3.191881e+00 -1.858556e+00 2.413378e+00 5.910127e-05 9.747745e-04 2.506076e-04
Ga -3.209441e+00 -1.862030e+00 7.510974e+00 -8.273343e-05 2.376773e-04 4.252102e-04
Al -3.179824e+00 -1.875090e+00 -2.706336e+00 7.278510e-04 -4.827762e-04 5.138821e-04
Al -1.607809e+00 8.853352e-01 2.399448e+00 -2.143350e-05 -6.206586e-04 1.949844e-04
Ga -1.601362e+00 8.979849e-01 7.487780e+00 5.565002e-04 -3.845370e-04 1.699055e-04
Al -1.590416e+00 8.727846e-01 -2.674496e+00 4.313517e-04 -1.733681e-04 2.240011e-04
Al -3.178651e+00 3.605178e+00 2.403779e+00 -8.327765e-04 1.024504e-04 -4.925866e-05
Al -3.185463e+00 3.614701e+00 7.494016e+00 2.047834e-05 -1.903211e-04 2.599659e-04
Ga -3.172048e+00 3.613836e+00 -2.674863e+00 5.676537e-05 -1.594595e-04 -3.625119e-04
Ga -2.582248e-02 -1.859140e+00 2.402204e+00 -3.432714e-04 1.412764e-04 2.074269e-04
Ga -5.970411e-03 -1.865173e+00 7.500891e+00 -9.845277e-05 -2.749190e-04 3.360748e-04
Al -2.477967e-02 -1.848167e+00 -2.678065e+00 1.171390e-04 6.091353e-05 -6.084510e-05
Al -2.972618e-02 1.786356e+00 4.933218e+00 1.437687e-04 -1.414152e-03 9.712246e-04
Al -1.549898e-02 1.794184e+00 -5.234562e+00 8.458247e-04 3.992332e-04 3.933536e-04
Al -3.107547e-02 1.779443e+00 -1.550820e-01 -4.931858e-05 2.525678e-04 3.636406e-04
Ga 3.145090e+00 -3.701150e+00 4.959181e+00 -4.767520e-04 1.292798e-04 4.055156e-04
Al 3.161497e+00 -3.691958e+00 -5.283385e+00 -1.322722e-04 -3.855819e-04 -3.581650e-04
Al 3.148096e+00 -3.704821e+00 -1.207452e-01 2.065622e-04 5.959586e-05 2.283949e-05
Ga 1.569440e+00 -9.445194e-01 4.952989e+00 -6.217462e-04 3.815821e-04 4.339965e-04
Al 1.572526e+00 -9.464643e-01 -5.253146e+00 -2.871185e-04 2.593281e-04 3.965789e-05
Al 1.559335e+00 -9.418472e-01 -1.434877e-01 -9.479507e-05 1.313120e-04 -7.861905e-06
Ga 3.145382e+00 1.781061e+00 4.949078e+00 1.365435e-04 -1.001140e-04 4.546089e-05
Ga 3.125254e+00 1.770300e+00 -5.253795e+00 3.044643e-05 -1.343694e-04 4.298172e-05
Al 3.128760e+00 1.783402e+00 -1.355723e-01 2.855581e-04 -3.144987e-05 8.132576e-05
Ga 6.306160e+00 -3.688450e+00 4.933614e+00 3.968281e-04 1.541466e-04 3.806196e-04
Al 6.284945e+00 -3.698156e+00 -5.231011e+00 -6.099746e-05 -1.943635e-04 -8.865542e-05
Ga 6.300564e+00 -3.700312e+00 -1.415429e-01 -1.310449e-04 2.855438e-06 -5.765394e-04
Al 4.733105e+00 -9.432706e-01 4.934043e+00 1.186794e-03 8.948240e-04 4.887379e-04
Al 4.718784e+00 -9.650056e-01 -5.254492e+00 -1.673202e-04 1.296768e-04 1.547623e-04
Ga 4.729573e+00 -9.541856e-01 -1.251253e-01 -1.709822e-04 1.096502e-04 1.224305e-03
Al -3.191355e+00 1.785544e+00 4.933883e+00 8.403056e-05 -1.870916e-04 -2.132690e-06
Ga -3.184107e+00 1.786409e+00 -5.261724e+00 -1.271803e-04 3.811223e-05 3.567903e-04
Al -3.171467e+00 1.785626e+00 -1.152444e-01 -1.404824e-04 -9.704301e-04 -2.824047e-04
Al -1.721115e-02 -3.700460e+00 4.938718e+00 -1.098838e-04 -1.902291e-04 -7.094680e-05
Ga -1.232254e-02 -3.687178e+00 -5.227988e+00 7.956314e-05 -8.873730e-05 1.625898e-04
Ga -1.816101e-02 -3.694905e+00 -1.452424e-01 -1.292876e-04 1.968148e-04 1.521411e-05
Al -1.614174e+00 -9.375512e-01 4.934585e+00 -2.617144e-04 2.219780e-04 -3.616364e-05
Ga -1.602931e+00 -9.496064e-01 -5.221611e+00 -5.269660e-05 -4.081073e-05 2.321403e-04
Al -1.601869e+00 -9.338561e-01 -1.563155e-01 -1.836387e-04 1.310489e-04 1.828014e-04
N 1.518292e+00 8.994732e-01 4.284987e+00 -1.909975e-04 1.213989e-04 -4.962407e-04
N 1.507396e+00 8.511209e-01 -5.882701e+00 2.897555e-04 9.713434e-05 -3.373994e-05
N 1.555679e+00 8.736466e-01 -7.562105e-01 3.173886e-04 -5.368074e-05 1.860271e-04
N -2.922851e-02 3.564366e+00 4.296598e+00 -1.453987e-04 9.465938e-04 -1.350187e-03
N -1.661577e-02 3.602398e+00 -5.866563e+00 -3.244518e-05 1.471689e-04 2.195719e-04
N -6.802837e-02 3.590126e+00 -7.791229e-01 -1.843227e-04 1.897085e-05 3.624104e-05
N 3.188093e+00 -1.847502e+00 4.306063e+00 -1.548345e-03 -8.248946e-04 -9.749266e-04
N 3.146981e+00 -1.862818e+00 -5.864069e+00 -1.176497e-04 -4.547712e-05 1.256556e-04
N 3.104914e+00 -1.897005e+00 -7.241193e-01 -2.106223e-04 2.726758e-05 -3.136523e-04
N -4.734472e+00 8.568518e-01 4.315313e+00 2.827647e-04 -4.878554e-05 -6.759424e-05
N -4.772158e+00 8.225943e-01 -5.909374e+00 2.212659e-04 -1.453287e-04 -3.605353e-04
N -4.770483e+00 9.224981e-01 -6.985853e-01 1.846811e-04 1.739827e-04 1.558811e-05
N -6.315950e+00 3.632567e+00 4.312156e+00 -4.159634e-04 3.546049e-04 -1.254074e-03
N -6.394905e+00 3.642038e+00 -5.835776e+00 -1.800096e-04 2.988479e-05 -2.074086e-05
N -6.361499e+00 3.566729e+00 -7.870928e-01 -1.663032e-04 5.524926e-05 2.279264e-04
N -3.186696e+00 -1.815619e+00 4.324436e+00 7.184606e-05 -1.437330e-04 -2.393876e-04
N -3.224922e+00 -1.890586e+00 -5.826679e+00 -4.611437e-05 -2.472407e-05 -2.494295e-05
N -3.150033e+00 -1.846564e+00 -7.936364e-01 -9.393153e-05 -1.330379e-05 -6.616470e-05
N -1.607022e+00 8.819171e-01 4.331846e+00 4.533279e-04 -1.392216e-04 5.893904e-05
N -1.556976e+00 8.989915e-01 -5.861131e+00 -7.225154e-04 -5.382920e-04 -4.885917e-04
N -1.608042e+00 8.805901e-01 -7.526895e-01 1.684019e-04 -1.916971e-04 1.513804e-04
N -3.223101e+00 3.592987e+00 4.320314e+00 4.063276e-04 1.800955e-05 -3.035816e-04
N -3.155098e+00 3.636907e+00 -5.910628e+00 2.524184e-04 3.020789e-04 1.158734e-04
N -3.140419e+00 3.587695e+00 -7.067562e-01 -5.014117e-05 5.112213e-04 2.203452e-05
N -6.049907e-02 -1.883166e+00 4.377081e+00 3.257224e-04 -1.280756e-04 -2.419448e-04
N 1.680789e-02 -1.842202e+00 -5.849296e+00 4.244117e-05 -1.281139e-04 -2.119442e-04
N -1.749126e-02 -1.814336e+00 -7.599711e-01 -2.312010e-05 -2.315493e-05 1.559585e-04
N -2.880974e-02 1.787582e+00 1.770663e+00 1.229732e-04 -1.852557e-04 -5.207368e-04
N 2.454499e-02 1.816604e+00 6.859220e+00 -7.903462e-05 -6.334119e-04 -9.966639e-04
N -2.231349e-02 1.784288e+00 -3.303400e+00 3.777991e-05 3.434546e-06 2.620044e-04
N 3.146893e+00 -3.693990e+00 1.799818e+00 -2.387788e-04 6.548671e-05 9.124262e-05
N 3.151386e+00 -3.692292e+00 6.952604e+00 -8.683140e-05 2.056288e-04 1.178228e-04
N 3.189746e+00 -3.724011e+00 -3.367453e+00 -9.670710e-04 6.681841e-04 -6.566880e-04
N 1.602567e+00 -9.289529e-01 1.772713e+00 -2.631193e-04 2.168284e-04 5.370755e-05
N 1.613573e+00 -9.242050e-01 6.927846e+00 5.220745e-05 -1.329008e-04 2.227957e-04
N 1.524497e+00 -9.276298e-01 -3.327247e+00 -2.975771e-04 1.999083e-04 -8.577641e-05
N 3.138799e+00 1.792760e+00 1.789042e+00 2.635078e-04 -1.800378e-04 -1.103047e-04
N 3.137433e+00 1.739204e+00 6.929277e+00 -3.150181e-05 -1.638760e-04 1.585149e-05
N 3.098646e+00 1.802001e+00 -3.275477e+00 -4.855501e-05 -4.582547e-05 3.141884e-06
N 6.302396e+00 -3.692567e+00 1.846481e+00 1.159851e-03 1.401827e-03 -3.492646e-04
N 6.264027e+00 -3.717757e+00 6.903229e+00 -2.984447e-05 -3.786008e-05 1.526964e-05
N 6.301377e+00 -3.697094e+00 -3.304562e+00 2.711651e-04 1.123840e-06 2.546358e-04
N 4.729070e+00 -9.527781e-01 1.851304e+00 1.517741e-04 6.128686e-04 -1.064599e-03
N 4.683485e+00 -9.318991e-01 6.859887e+00 -1.704536e-04 -7.722536e-05 -2.021483e-04
N 4.766530e+00 -9.737545e-01 -3.340301e+00 -5.916351e-04 2.652523e-04 -1.768046e-04
N -3.183591e+00 1.788696e+00 1.803372e+00 8.390769e-05 -2.322179e-04 2.068583e-05
N -3.234112e+00 1.812448e+00 6.862645e+00 -1.003558e-04 4.907885e-05 -4.298237e-04
N -3.148109e+00 1.761313e+00 -3.292792e+00 -3.275505e-05 5.157680e-08 -1.788199e-04
N -2.446453e-02 -3.739534e+00 1.826333e+00 3.928638e-04 1.068953e-04 -1.769974e-04
N 1.737041e-02 -3.717866e+00 6.852988e+00 1.723974e-04 -1.610114e-05 -4.015912e-04
N -5.732343e-02 -3.669321e+00 -3.248532e+00 8.368340e-05 1.122507e-04 4.421625e-04
N -1.648628e+00 -9.252486e-01 1.768458e+00 -4.524027e-04 2.152004e-04 -3.588178e-04
N -1.608944e+00 -9.507897e-01 6.842563e+00 -3.412582e-04 2.252684e-04 -4.638587e-04
N -1.602198e+00 -9.483633e-01 -3.242743e+00 -1.795170e-04 -4.249537e-05 -2.024642e-06
