108
Energy=-711316.987804 Lattice="9.429291 0.000000 0.000000 -4.729910 8.155502 0.000000 -0.011589 0.015610 15.150229" Stress="-0.000004 -0.000002 -0.000001 -0.000002 -0.000015 0.000001 -0.000001 0.000001 0.000004" Properties=species:S:1:pos:R:3:forces:R:3
Al 1.529262 0.873275 2.367176 0.001636 -0.000961 0.000386
Al 1.545932 0.878826 7.412209 -0.000908 0.015080 0.004806
Al 1.551880 0.862236 -2.657416 0.001372 0.001153 -0.000081
Al -0.030982 3.586873 2.363419 0.001399 -0.001617 0.002065
Al -0.026046 3.582874 7.430610 0.001887 -0.001490 -0.000254
Al -0.022472 3.565859 -2.678007 0.000380 0.000610 0.000206
Al 3.124992 -1.828309 2.371974 -0.000308 -0.005531 -0.002211
Al 3.137524 -1.844257 7.431832 -0.005219 0.005748 -0.002226
Al 3.135926 -1.861892 -2.661801 0.001616 -0.001480 -0.000831
Al -4.760625 0.864010 2.384354 0.000826 0.001049 -0.000992
Al -4.750057 0.874537 7.421812 0.000237 0.000964 -0.000644
Al -4.743443 0.865199 -2.679046 0.001498 0.000639 -0.000478
Al -6.328799 3.590457 2.374127 -0.004717 -0.000517 0.002591
Al -6.325725 3.582987 7.410177 0.000909 0.001066 -0.000180
Al -6.311924 3.565209 -2.660654 -0.000075 0.000311 -0.001730
Al -3.169820 -1.844000 2.376194 0.000994 -0.000660 -0.001442
Al -3.173015 -1.840608 7.419868 0.001328 -0.001795 0.000303
Ga -3.150004 -1.856804 -2.663290 0.000191 -0.000762 -0.000528
Al -1.612974 0.876913 2.373515 0.001049 0.000013 -0.000123
Al -1.613439 0.884902 7.419208 0.003142 -0.000292 0.000170
Al -1.590420 0.869689 -2.674564 0.000423 -0.000110 0.000220
Ga -3.217128 3.599159 2.392117 0.004747 -0.000234 -0.003614
Al -3.172940 3.584894 7.429823 -0.001957 -0.000340 -0.001469
Al -3.161765 3.579754 -2.661291 0.000736 -0.001149 -0.001996
Al -0.030047 -1.833327 2.375052 0.000006 0.007263 0.003811
Ga -0.029697 -1.825139 7.410312 0.001970 -0.001579 -0.000820
Al -0.006956 -1.846749 -2.645464 -0.000555 -0.001643 -0.002041
Al -0.029772 1.769333 4.889430 -0.000903 0.000453 0.002030
Al -0.020760 1.764835 -5.201235 -0.000419 0.000190 0.000416
Al -0.024691 1.762267 -0.156085 0.000061 0.000991 0.001828
Ga 3.126303 -3.653202 4.916928 0.000557 -0.000466 -0.002148
Al 3.153126 -3.685879 -5.199453 -0.000987 0.001407 -0.000312
Al 3.146827 -3.672920 -0.157565 -0.002299 0.000562 0.003196
Al 1.554799 -0.927543 4.887404 -0.004198 0.002129 0.002394
Ga 1.577442 -0.946965 -5.176901 -0.001409 0.001684 -0.001231
Al 1.567969 -0.957579 -0.148774 -0.001866 0.001602 -0.000283
Al 3.107753 1.778260 4.893224 -0.001239 0.000861 -0.000018
Al 3.119256 1.766080 -5.204752 0.000189 -0.000290 0.000937
Al 3.125299 1.763530 -0.145584 -0.001653 -0.000059 -0.000426
Al 6.271020 -3.660243 4.894014 0.000366 0.000625 -0.000323
Al 6.273475 -3.679242 -5.208753 0.000472 0.001308 -0.000500
Al 6.278079 -3.678614 -0.133989 -0.000820 0.000729 -0.001013
Al 4.694363 -0.931390 4.899979 0.000640 -0.000836 0.000223
Al 4.712440 -0.950855 -5.206962 -0.000515 0.000494 -0.000106
Al 4.704029 -0.947738 -0.136521 -0.001543 0.000772 -0.000789
Al -3.184715 1.763793 4.907884 -0.001243 0.003793 0.000965
Al -3.159716 1.760481 -5.203382 -0.001744 0.000213 0.000474
Al -3.166277 1.760738 -0.164113 -0.001863 0.001383 0.002426
Al -0.027741 -3.659024 4.894803 -0.011708 0.007485 0.004888
Ga -0.013992 -3.678414 -5.182777 -0.000636 -0.000187 -0.000682
Al -0.017183 -3.666918 -0.160399 -0.000816 0.002116 0.003722
Al -1.603452 -0.931055 4.885067 0.000556 -0.001169 -0.000774
Al -1.595105 -0.933855 -5.195972 -0.002227 -0.000402 0.000364
Al -1.576374 -0.943685 -0.129647 -0.001830 0.000544 -0.000094
N 1.533967 0.874670 4.286786 0.001940 0.001033 -0.001825
N 1.549922 0.901176 -5.820047 0.000968 0.001777 0.000115
N 1.549516 0.860295 -0.739186 0.001244 0.000390 -0.000785
N -0.003755 3.568898 4.279708 0.001501 -0.000668 -0.000789
N -0.018540 3.569808 -5.802288 0.000167 0.000002 0.000343
N -0.020066 3.575047 -0.755845 0.000881 0.000130 -0.000384
N 3.121865 -1.799829 4.279758 0.000487 0.001131 0.000881
N 3.172007 -1.880899 -5.812388 0.001537 -0.002064 -0.000050
N 3.140326 -1.859591 -0.750913 0.000639 -0.000329 0.002268
N -4.753986 0.871317 4.299601 0.001456 0.000830 0.000064
N -4.738986 0.861077 -5.807200 0.001276 0.000503 0.000663
N -4.739612 0.857393 -0.761507 0.000538 0.000618 0.000643
N -6.322334 3.590763 4.292273 -0.000943 -0.000646 0.000348
N -6.343046 3.555456 -5.825042 -0.001753 -0.000411 -0.001018
N -6.315869 3.573775 -0.751400 0.000618 0.000168 0.002680
N -3.171211 -1.844089 4.291351 -0.000508 -0.000715 0.000801
N -3.152254 -1.857046 -5.802923 0.000564 -0.000932 0.000095
N -3.151092 -1.856547 -0.693338 0.000231 -0.000571 0.002519
N -1.613903 0.881444 4.291923 0.000622 0.001331 -0.000558
N -1.595405 0.866128 -5.807068 0.001146 -0.000018 -0.000106
N -1.596122 0.862643 -0.754590 0.000735 -0.000561 -0.000324
N -3.246082 3.596821 4.355207 0.012353 -0.013593 -0.004637
N -3.132681 3.561375 -5.810225 0.002226 -0.001750 0.000101
N -3.163924 3.583519 -0.747644 -0.001029 -0.000698 0.002571
N -0.023731 -1.838049 4.296778 0.000650 0.000419 0.002481
N -0.051463 -1.826541 -5.783395 0.000934 -0.001295 0.000810
N -0.015327 -1.847228 -0.739828 0.000449 -0.001382 0.001382
N -0.036622 1.771904 1.768143 -0.001208 0.000838 -0.000902
N -0.030353 1.771901 6.813463 -0.002307 0.003505 0.000384
N -0.016436 1.757028 -3.274489 -0.000259 0.000923 -0.000532
N 3.152051 -3.656587 1.770669 -0.000358 0.007249 -0.002896
N 3.133350 -3.661337 6.878057 -0.001784 0.002723 0.002380
N 3.140113 -3.677189 -3.275657 -0.000526 0.001320 0.000842
N 1.548972 -0.945135 1.770627 -0.000034 0.000920 0.000092
N 1.573438 -0.852951 6.815928 0.009993 -0.028138 -0.007644
N 1.569746 -0.955039 -3.211086 -0.001019 0.000598 0.002641
N 3.106304 1.774255 1.774926 0.001318 0.001432 0.000159
N 3.112393 1.778890 6.809644 0.001202 0.000377 0.000083
N 3.120630 1.764069 -3.278405 -0.000648 -0.000036 -0.000103
N 6.265289 -3.660227 1.777406 -0.001014 -0.000571 0.000136
N 6.266347 -3.657196 6.816439 -0.000660 0.000797 0.000506
N 6.280986 -3.715108 -3.293934 0.000009 -0.001739 -0.000231
N 4.691386 -0.931591 1.777416 -0.000426 -0.002684 -0.000106
N 4.696472 -0.937828 6.820018 -0.001870 0.000084 -0.000397
N 4.672463 -0.932051 -3.293247 -0.002887 0.000508 -0.000809
N -3.196401 1.739577 1.760093 0.001795 -0.000942 -0.002125
N -3.176543 1.778346 6.824098 -0.001208 -0.000157 0.000251
N -3.163375 1.767216 -3.278423 -0.000890 0.000295 0.001026
N -0.091091 -3.598344 1.786227 0.005220 -0.011944 -0.013857
N -0.014629 -3.692838 6.806104 -0.001112 -0.000853 0.001664
N -0.008670 -3.670007 -3.214816 -0.000505 0.000579 0.004278
N -1.596431 -0.931508 1.784711 -0.000901 0.000489 0.000405
N -1.636331 -0.910834 6.795850 -0.004642 0.001508 -0.001204
N -1.541952 -0.925987 -3.284920 0.000267 0.000559 -0.000392
