108
Energy=-2725439.042559 Lattice="9.681167 0.000000 0.000000 -4.840294 8.382541 0.000000 0.000992 -0.001177 15.720124" Stress="-0.000000 0.000000 -0.000000 0.000000 -0.000000 0.000000 0.000000 -0.000000 -0.000000" Properties=species:S:1:pos:R:3:forces:R:3
Al 1.590712 0.882595 2.458924 -0.000000 0.000008 0.000014
Al 1.585031 0.894027 7.723472 -0.000003 0.000010 -0.000005
Ga 1.583183 0.889767 -2.766695 0.000004 -0.000003 0.000005
Ga -0.018308 3.675770 2.475280 0.000005 0.000004 -0.000012
Ga -0.018199 3.669402 7.722360 -0.000003 -0.000002 0.000003
Ga -0.022061 3.674075 -2.778211 0.000004 -0.000001 0.000004
Ga 3.190476 -1.890203 2.463558 -0.000007 0.000011 -0.000004
Ga 3.198869 -1.894297 7.711147 0.000003 -0.000001 -0.000001
Ga 3.196064 -1.897858 -2.754467 0.000002 -0.000001 -0.000001
Ga -4.873874 0.893378 2.476048 0.000005 0.000002 -0.000001
Ga -4.875300 0.890417 7.711034 -0.000005 0.000001 -0.000007
Ga -4.866295 0.893148 -2.766079 0.000004 -0.000007 -0.000006
Ga -6.482622 3.674848 2.475432 0.000010 0.000006 -0.000003
Ga -6.480700 3.675398 7.710852 -0.000005 0.000001 -0.000003
Ga -6.477796 3.682789 -2.765744 0.000007 -0.000006 0.000004
Ga -3.249378 -1.903389 2.472106 -0.000010 0.000004 0.000000
Ga -3.250569 -1.902011 7.717256 -0.000005 -0.000003 0.000006
Ga -3.250383 -1.903108 -2.766528 0.000004 -0.000000 -0.000004
Ga -1.626074 0.892501 2.475618 -0.000013 -0.000002 0.000003
Ga -1.619264 0.893527 7.722144 0.000003 -0.000004 0.000001
Ga -1.626145 0.897305 -2.778310 0.000006 -0.000002 -0.000007
Ga -3.248823 3.684723 2.474163 0.000009 0.000009 0.000002
Ga -3.249972 3.686404 7.717073 -0.000005 -0.000003 -0.000006
Ga -3.250267 3.685305 -2.765009 0.000007 -0.000006 -0.000003
Ga -0.010164 -1.888587 2.463351 0.000000 0.000013 -0.000004
Ga -0.017419 -1.895073 7.710980 -0.000011 0.000001 -0.000004
Ga -0.015518 -1.898140 -2.754240 0.000010 0.000001 0.000000
Ga -0.008527 1.813645 5.090868 0.000004 0.000006 -0.000002
Al -0.014826 1.818376 -5.398554 -0.000006 0.000006 -0.000001
Ga -0.013437 1.811973 -0.135778 0.000002 -0.000003 -0.000002
Ga 3.204774 -3.765682 5.094089 0.000001 0.000005 0.000001
Ga 3.208908 -3.771073 -5.384464 -0.000003 -0.000002 -0.000006
Ga 3.201143 -3.758547 -0.149083 -0.000002 0.000021 -0.000003
Ga 1.590562 -0.956063 5.096414 -0.000001 0.000004 0.000011
Ga 1.584940 -0.955395 -5.399015 -0.000004 0.000003 -0.000001
Al 1.590093 -0.963621 -0.138803 0.000008 0.000008 -0.000008
Ga 3.188267 1.812688 5.093605 0.000005 0.000002 -0.000004
Ga 3.185729 1.818945 -5.396977 0.000001 -0.000001 -0.000006
Ga 3.193192 1.811335 -0.137913 0.000017 0.000010 -0.000010
Ga 6.429489 -3.766022 5.098402 0.000000 0.000004 -0.000012
Ga 6.425772 -3.773594 -5.388159 0.000004 -0.000001 -0.000006
Ga 6.429852 -3.767709 -0.147241 -0.000003 -0.000003 0.000000
Ga 4.816555 -0.972577 5.090719 0.000006 0.000012 -0.000006
Ga 4.814370 -0.971144 -5.382310 -0.000000 0.000002 -0.000005
Ga 4.807721 -0.971054 -0.144948 0.000016 0.000009 -0.000007
Ga -3.248420 1.822040 5.098682 0.000001 0.000010 -0.000006
Ga -3.241152 1.822267 -5.389683 -0.000001 -0.000001 -0.000003
Ga -3.248246 1.822097 -0.147198 0.000017 0.000015 -0.000009
Ga -0.022399 -3.764840 5.088915 0.000003 0.000000 -0.000003
Ga -0.024269 -3.763175 -5.382734 0.000004 0.000003 0.000005
Ga -0.018919 -3.757459 -0.144503 0.000008 0.000018 -0.000005
Ga -1.635489 -0.970825 5.094146 0.000001 0.000010 -0.000012
Ga -1.630454 -0.963390 -5.384421 0.000004 0.000006 -0.000004
Ga -1.626218 -0.969454 -0.149219 -0.000003 0.000009 -0.000003
N 1.590586 0.886226 4.382623 0.000000 -0.000012 -0.000003
N 1.545939 0.917058 -6.068228 0.000002 -0.000003 0.000005
N 1.587561 0.842705 -0.778441 -0.000010 0.000009 0.000001
N -0.022452 3.681884 4.457654 -0.000004 -0.000010 0.000004
N -0.023941 3.634591 -6.007726 0.000002 -0.000000 0.000000
N -0.023790 3.677741 -0.790794 -0.000006 -0.000004 -0.000005
N 3.197308 -1.900173 4.450605 -0.000002 -0.000003 -0.000007
N 3.201750 -1.902211 -6.027597 -0.000004 0.000000 0.000005
N 3.157021 -1.875396 -0.763078 -0.000013 -0.000002 0.000003
N -4.866189 0.894190 4.459907 0.000001 -0.000012 0.000005
N -4.866140 0.892859 -6.026204 -0.000001 -0.000005 0.000006
N -4.866145 0.893710 -0.783817 -0.000020 -0.000012 0.000004
N -6.478567 3.681232 4.459418 -0.000003 -0.000007 0.000007
N -6.476464 3.685685 -6.028141 0.000001 -0.000003 0.000002
N -6.475469 3.681432 -0.781657 -0.000006 0.000004 -0.000003
N -3.249154 -1.903570 4.453159 -0.000000 -0.000010 0.000012
N -3.249987 -1.901262 -6.021242 -0.000002 0.000001 0.000003
N -3.250230 -1.901469 -0.784970 -0.000008 -0.000009 -0.000004
N -1.633632 0.893234 4.457754 0.000000 -0.000010 0.000006
N -1.591267 0.916765 -6.008246 0.000001 0.000001 0.000001
N -1.630381 0.895701 -0.792832 -0.000011 -0.000005 0.000001
N -3.248612 3.684368 4.454888 0.000000 -0.000005 0.000001
N -3.250583 3.687783 -6.023593 0.000002 0.000002 0.000002
N -3.250051 3.685731 -0.785646 -0.000010 -0.000007 0.000001
N -0.017141 -1.898266 4.450268 0.000003 0.000000 0.000000
N -0.023333 -1.902273 -6.029745 0.000002 -0.000003 -0.000002
N 0.024286 -1.875878 -0.763135 -0.000006 0.000001 0.000003
N 0.020946 1.797049 1.851125 -0.000003 -0.000013 0.000003
N 0.024917 1.794813 7.080884 -0.000000 -0.000002 0.000001
N -0.016252 1.819271 -3.470851 -0.000004 -0.000004 0.000002
N 3.206213 -3.764974 1.834076 0.000010 -0.000007 0.000009
N 3.207806 -3.766775 7.078392 -0.000001 -0.000002 -0.000002
N 3.204604 -3.762356 -3.400431 0.000003 -0.000002 0.000003
N 1.590539 -0.920200 1.790635 0.000000 -0.000014 -0.000007
N 1.590611 -0.914952 7.089694 0.000003 0.000001 0.000003
N 1.590088 -0.967942 -3.417909 0.000002 0.000002 0.000000
N 3.159822 1.796521 1.850279 -0.000021 -0.000013 0.000007
N 3.153733 1.793050 7.088396 -0.000002 -0.000002 0.000008
N 3.197795 1.819633 -3.411428 0.000002 0.000001 -0.000002
N 6.430430 -3.767347 1.832914 0.000003 0.000000 0.000009
N 6.428306 -3.766839 7.079879 0.000004 -0.000000 -0.000001
N 6.430879 -3.766753 -3.406552 -0.000001 -0.000009 0.000005
N 4.816732 -0.970822 1.835351 0.000004 -0.000006 0.000010
N 4.817456 -0.972709 7.070876 0.000004 0.000001 -0.000000
N 4.813628 -0.972626 -3.399443 0.000005 0.000008 0.000010
N -3.249381 1.820192 1.835109 -0.000005 -0.000008 0.000004
N -3.247111 1.819399 7.082195 0.000000 -0.000001 0.000004
N -3.249838 1.821951 -3.407820 -0.000002 0.000004 0.000006
N -0.024885 -3.764727 1.837987 -0.000012 -0.000011 0.000008
N -0.023715 -3.765355 7.071206 0.000006 -0.000001 0.000002
N -0.024151 -3.762170 -3.399458 -0.000004 0.000005 0.000000
N -1.635803 -0.970219 1.831737 0.000010 -0.000005 0.000002
N -1.636676 -0.969700 7.076232 0.000000 0.000001 -0.000001
N -1.632949 -0.972663 -3.400705 -0.000004 -0.000001 0.000010
