108
Energy=-1581051.232068 Lattice="9.534480 0.000000 0.000000 -4.772917 8.258103 0.000000 0.002773 0.001542 15.383908" Stress="-0.000002 -0.000002 0.000000 -0.000002 0.000002 0.000000 0.000000 0.000000 -0.000014" Properties=species:S:1:pos:R:3:forces:R:3
Al 1.557098 0.872916 2.405708 0.000098 -0.000951 -0.001076
Al 1.550927 0.869970 7.541870 0.000107 -0.000069 0.000020
Al 1.551032 0.870698 -2.704358 -0.000029 0.000194 0.000125
Al -0.040324 3.623479 2.396175 -0.000579 -0.000632 -0.000790
Al -0.032239 3.613035 7.538891 0.000018 0.000052 0.000112
Al -0.037443 3.620524 -2.691749 0.000384 -0.000317 0.001003
Al 3.147549 -1.881510 2.376577 -0.000594 0.000079 -0.000713
Al 3.142360 -1.875809 7.549859 -0.000117 0.000157 -0.000042
Ga 3.145123 -1.877096 -2.685732 -0.000181 0.000030 0.000418
Ga -4.793106 0.878564 2.398510 0.000114 -0.000107 -0.000056
Ga -4.782225 0.885184 7.545926 0.000068 0.000081 0.000038
Al -4.781398 0.880987 -2.691070 0.000028 -0.000328 0.000045
Ga -6.394608 3.619140 2.380801 0.000228 0.000009 -0.000018
Ga -6.384691 3.625634 7.559316 -0.000069 0.000031 0.000014
Ga -6.388049 3.626293 -2.683261 -0.000064 0.000062 0.000132
Ga -3.203420 -1.869392 2.382714 0.000103 0.000241 -0.000089
Ga -3.204212 -1.877606 7.540599 -0.000074 -0.000038 0.000101
Al -3.198336 -1.865719 -2.668336 0.000666 -0.000678 0.000112
Al -1.600874 0.886294 2.422281 -0.000198 0.000153 -0.000172
Ga -1.601017 0.905734 7.541993 0.000053 -0.000092 0.000354
Al -1.610501 0.884590 -2.721206 0.000022 -0.000025 -0.000011
Al -3.174272 3.630014 2.406000 0.000045 0.000122 -0.000026
Al -3.186772 3.623654 7.545289 -0.000013 -0.000025 0.000104
Al -3.190855 3.621292 -2.700189 0.000084 -0.000011 0.000422
Ga -0.007518 -1.848936 2.409665 -0.000092 0.000074 -0.000162
Ga 0.004628 -1.861919 7.532836 0.000069 -0.000028 -0.000027
Al -0.018189 -1.853496 -2.689761 0.000320 -0.000589 -0.000177
Al -0.025355 1.779736 4.951280 0.000051 0.000689 -0.000639
Al -0.021700 1.790518 -5.257090 -0.000413 -0.000294 -0.000006
Ga -0.017651 1.791142 -0.147201 0.000168 0.000084 -0.000009
Ga 3.156713 -3.713278 4.974911 -0.000047 -0.000004 0.000039
Ga 3.154688 -3.725912 -5.283537 -0.000016 -0.000047 0.000037
Al 3.166949 -3.705802 -0.137670 0.000036 0.001304 -0.000057
Al 1.569776 -0.943141 4.963177 0.000221 0.000193 0.000459
Al 1.561065 -0.944694 -5.264082 -0.000247 0.000517 0.000207
Al 1.573849 -0.947377 -0.147469 -0.000231 -0.000306 -0.000111
Ga 3.137290 1.778441 4.981823 -0.000013 -0.000038 0.000098
Ga 3.138814 1.771534 -5.257064 0.000063 -0.000031 -0.000017
Al 3.140219 1.773858 -0.162149 0.000540 -0.000070 -0.000106
Ga 6.325147 -3.714512 4.970212 -0.000040 -0.000066 0.000017
Ga 6.314856 -3.719174 -5.243154 0.000029 0.000034 0.000149
Al 6.316502 -3.699929 -0.158412 0.000076 -0.000209 -0.000458
Ga 4.737363 -0.958457 4.968886 -0.000048 -0.000046 0.000045
Ga 4.738291 -0.952604 -5.246882 -0.000078 0.000102 0.000208
Al 4.740172 -0.960639 -0.162734 -0.000159 -0.000267 0.000655
Al -3.178583 1.796212 4.954224 -0.000044 0.000037 0.000087
Al -3.194783 1.801981 -5.240889 -0.000019 -0.000009 0.000063
Ga -3.196169 1.790745 -0.155640 0.000004 -0.000123 0.000107
Ga -0.003179 -3.707720 4.968531 -0.000021 -0.000157 0.000092
Ga 0.000947 -3.709606 -5.247049 -0.000055 -0.000056 0.000166
Ga -0.010478 -3.695339 -0.157123 0.000083 -0.000099 0.000086
Al -1.600321 -0.931533 4.965500 -0.000077 -0.000058 0.000112
Ga -1.601820 -0.943682 -5.235499 -0.000027 -0.000060 0.000149
Al -1.611001 -0.950915 -0.175784 -0.000158 0.000026 0.000817
N 1.525162 0.850312 4.321188 -0.000208 0.000261 0.000951
N 1.510692 0.850519 -5.911713 0.000165 -0.000279 0.000115
N 1.595942 0.849955 -0.792535 0.000266 0.000150 -0.000047
N -0.031339 3.584452 4.309160 0.000341 -0.000794 0.000900
N -0.025031 3.570629 -5.927168 -0.000025 0.000152 -0.000083
N -0.033262 3.671921 -0.773727 -0.000219 -0.000179 -0.000825
N 3.112003 -1.855786 4.299177 -0.000084 0.000001 0.000378
N 3.108905 -1.849189 -5.909848 0.000204 -0.000202 -0.000046
N 3.149300 -1.877147 -0.705818 0.000033 -0.000675 0.000265
N -4.751044 0.903134 4.371449 0.000071 0.000058 -0.000003
N -4.743684 0.903910 -5.861457 0.000115 -0.000077 -0.000172
N -4.826503 0.857550 -0.774527 -0.000479 0.000301 0.000084
N -6.381837 3.625870 4.349202 -0.000095 0.000031 -0.000047
N -6.382848 3.629555 -5.854476 -0.000012 0.000035 -0.000150
N -6.425373 3.606803 -0.709990 0.000010 -0.000115 0.000183
N -3.154586 -1.848864 4.360364 -0.000073 0.000033 0.000061
N -3.195909 -1.873859 -5.877041 -0.000014 0.000014 -0.000162
N -3.199526 -1.871198 -0.748951 0.000037 -0.000067 0.000044
N -1.608605 0.877500 4.350260 0.000070 0.000100 -0.000026
N -1.614688 0.928523 -5.844385 0.000211 0.000148 -0.000074
N -1.608381 0.840597 -0.815697 -0.000060 0.000045 -0.000088
N -3.193903 3.586392 4.313263 0.000083 -0.000018 0.000061
N -3.207066 3.572725 -5.922905 0.000163 0.000003 -0.000030
N -3.153871 3.653830 -0.794253 0.000012 -0.000211 -0.000329
N -0.017674 -1.821106 4.392461 -0.000178 -0.000026 -0.000032
N 0.016881 -1.849631 -5.872125 -0.000002 0.000069 -0.000030
N -0.015217 -1.818272 -0.775409 0.000471 0.000088 0.000251
N -0.023961 1.788849 1.837355 0.000018 0.001237 0.000577
N 0.022344 1.816683 6.881512 -0.000064 0.000036 0.000012
N -0.018658 1.800203 -3.323357 -0.000058 0.000056 0.000010
N 3.161932 -3.714057 1.788443 -0.000501 0.000345 -0.000440
N 3.162068 -3.707881 6.976712 -0.000090 0.000007 -0.000117
N 3.160340 -3.756663 -3.303332 -0.000356 0.000087 -0.000143
N 1.605113 -0.926583 1.764185 0.000581 -0.000090 0.000411
N 1.619787 -0.927587 6.889385 -0.000232 0.000042 -0.000352
N 1.527212 -0.931094 -3.343122 0.000067 -0.000351 -0.000451
N 3.108035 1.761098 1.749776 -0.000149 0.000091 -0.000210
N 3.108957 1.767145 6.954926 -0.000024 -0.000024 -0.000048
N 3.150244 1.740798 -3.279240 -0.000032 0.000046 -0.000018
N 6.283078 -3.731469 1.750476 0.000487 -0.000017 0.000135
N 6.291966 -3.736971 6.940615 -0.000007 0.000011 -0.000093
N 6.285219 -3.684212 -3.265304 0.000209 0.000518 -0.000077
N 4.702965 -0.977807 1.750790 0.000219 0.000126 -0.000594
N 4.699196 -0.982125 6.943105 -0.000112 -0.000034 -0.000098
N 4.783527 -0.938052 -3.265915 -0.000202 0.000567 -0.000254
N -3.153316 1.817275 1.820709 0.000020 -0.000057 -0.000065
N -3.194121 1.845184 6.870724 0.000052 0.000016 -0.000076
N -3.205189 1.799652 -3.313159 0.000107 -0.000086 -0.000034
N 0.029309 -3.726107 1.815341 -0.000023 -0.000006 -0.000120
N 0.027320 -3.734782 6.946088 0.000004 0.000020 -0.000101
N 0.024438 -3.682980 -3.263209 0.000090 0.000271 0.000003
N -1.606985 -0.898984 1.745482 -0.000068 -0.000401 -0.000646
N -1.606956 -0.945174 6.877274 -0.000132 0.000036 -0.000095
N -1.612562 -0.960317 -3.253609 -0.000579 0.000264 -0.000094
