108
Energy=-1626826.627350 Lattice="9.552882 0.000000 0.000000 -4.799522 8.264342 0.000000 -0.089293 0.008490 15.396921" Stress="0.000008 -0.000006 -0.000021 -0.000006 0.000001 0.000002 -0.000021 0.000002 0.000005" Properties=species:S:1:pos:R:3:forces:R:3
Al 1.556291 0.864261 2.431852 0.001024 0.003019 0.001499
Al 1.506723 0.875783 7.536284 0.001921 0.000884 0.000789
Al 1.588311 0.858705 -2.725471 0.002120 0.002909 0.002600
Al -0.052376 3.653019 2.416497 0.004994 0.001879 0.002503
Al -0.063201 3.629529 7.503166 0.000447 0.000262 0.002144
Ga -0.003180 3.623189 -2.684681 0.001224 -0.001186 0.001224
Al 3.163325 -1.865253 2.394447 0.000945 0.002566 0.003530
Ga 3.124097 -1.870600 7.532708 -0.000472 -0.000843 0.002239
Ga 3.202561 -1.860220 -2.704000 0.000366 -0.000070 0.003268
Al -4.827972 0.866891 2.395221 0.000736 0.000925 0.001625
Ga -4.872059 0.876609 7.565041 0.000865 0.000121 0.001042
Al -4.781872 0.858155 -2.713636 -0.001234 0.001901 0.001670
Ga -6.446588 3.647183 2.439502 -0.000248 -0.001106 -0.000203
Al -6.465229 3.642765 7.530511 0.000375 0.000703 -0.000102
Ga -6.394126 3.620464 -2.709498 0.000242 -0.001572 -0.000386
Al -3.216212 -1.857939 2.390072 -0.005516 -0.006436 -0.000571
Al -3.246040 -1.885729 7.539418 0.000629 -0.001271 0.002187
Al -3.181442 -1.860477 -2.700197 -0.000340 -0.001212 0.003565
Ga -1.644212 0.880011 2.403912 0.002813 0.001062 0.002502
Ga -1.653503 0.881422 7.537295 0.002245 0.000216 -0.000476
Al -1.610716 0.866252 -2.684516 0.002553 0.001478 0.000895
Ga -3.223870 3.644160 2.421406 0.000583 -0.001119 0.001602
Ga -3.270705 3.649570 7.529680 0.001330 0.000694 0.000663
Ga -3.191319 3.618574 -2.679628 0.000051 -0.000153 0.000009
Ga -0.023307 -1.852258 2.414418 0.001364 0.000042 0.002370
Al -0.064122 -1.864865 7.533775 0.002111 -0.001709 0.001223
Ga 0.001806 -1.844028 -2.698555 0.002006 -0.001433 0.000987
Al -0.051874 1.797814 4.962727 0.001261 0.004111 0.000226
Ga 0.026017 1.776252 -5.279701 0.000101 0.002351 0.002501
Ga -0.016547 1.782872 -0.130324 -0.000344 0.001065 -0.000460
Al 3.141274 -3.708238 4.961540 0.002982 0.000570 0.000658
Ga 3.217628 -3.710845 -5.288317 0.000577 0.000458 0.001593
Al 3.195740 -3.706109 -0.115979 -0.001987 0.001176 -0.001782
Al 1.538043 -0.961088 4.970534 0.002652 0.001425 0.002426
Al 1.624648 -0.952466 -5.298851 -0.001966 -0.000758 0.002285
Al 1.597586 -0.955556 -0.135112 -0.000504 -0.000419 -0.000236
Ga 3.099687 1.802179 4.977872 0.000819 -0.000029 0.000975
Al 3.180356 1.770112 -5.289713 -0.000705 0.002744 0.001662
Ga 3.160896 1.772996 -0.142601 0.000382 0.000831 0.003044
Al 6.306471 -3.698174 4.981210 -0.000329 -0.003936 0.000847
Ga 6.385189 -3.712399 -5.308492 0.000889 -0.000309 0.002728
Al 6.350386 -3.692931 -0.137679 0.001040 0.000624 0.001744
Ga 4.727716 -0.975920 4.945622 -0.001670 0.001292 0.002537
Al 4.789991 -0.956370 -5.274064 0.000289 -0.002470 0.002489
Al 4.777791 -0.963579 -0.136870 -0.001064 -0.000022 -0.000736
Ga -3.248795 1.809499 4.969722 -0.001409 -0.000537 0.001783
Ga -3.194395 1.783039 -5.256722 -0.000739 0.000854 0.001550
Al -3.209889 1.780615 -0.150757 -0.001607 0.000834 -0.000379
Al -0.044530 -3.690468 5.000584 -0.001163 -0.001814 -0.000748
Ga 0.018884 -3.708521 -5.296133 -0.002163 0.000417 0.002023
Ga -0.001717 -3.701125 -0.146684 -0.000601 -0.000760 0.003279
Ga -1.633765 -0.976931 4.984152 -0.002459 0.001721 0.001680
Ga -1.577831 -0.960399 -5.284723 -0.001057 -0.002719 0.002520
Al -1.616392 -0.954888 -0.149664 -0.001678 -0.001300 -0.001694
N 1.491468 0.849532 4.348796 -0.000511 -0.001400 -0.000765
N 1.633646 0.844566 -5.925721 0.001577 0.000507 -0.002929
N 1.574467 0.825562 -0.800156 -0.000109 -0.000590 -0.002921
N -0.068632 3.638619 4.356203 0.001081 -0.000010 0.000431
N 0.001730 3.617842 -5.962051 -0.000367 -0.000939 -0.004632
N -0.022923 3.670051 -0.708198 -0.000647 0.001057 -0.000553
N 3.095599 -1.894401 4.338196 -0.001988 -0.000631 -0.003622
N 3.206337 -1.837890 -5.870909 0.000929 0.001730 -0.000630
N 3.181292 -1.874863 -0.701608 0.000285 -0.000508 -0.000802
N -4.843525 0.879798 4.310832 0.000484 0.000726 -0.003060
N -4.812067 0.846574 -5.852197 -0.000426 0.000650 -0.000208
N -4.766454 0.848253 -0.775585 0.002258 -0.000388 -0.002908
N -6.443043 3.693320 4.418035 0.000653 0.000814 0.000638
N -6.369724 3.584687 -5.935151 0.000110 -0.002823 -0.001881
N -6.435837 3.646815 -0.737395 -0.002314 0.001355 0.000548
N -3.228174 -1.919784 4.300233 0.001300 0.000046 0.002131
N -3.205532 -1.855542 -5.935383 -0.001824 0.001821 -0.002161
N -3.195583 -1.874398 -0.755325 0.000338 -0.000177 -0.003219
N -1.621215 0.898442 4.382709 0.001941 -0.000964 -0.000913
N -1.589106 0.881981 -5.893600 0.000902 0.000431 -0.001924
N -1.652505 0.858214 -0.755941 0.000928 -0.000755 -0.002006
N -3.253056 3.686029 4.402840 -0.001337 0.001485 -0.000017
N -3.184559 3.630570 -5.896890 0.000655 -0.001637 -0.001988
N -3.167368 3.614210 -0.705093 0.002451 -0.001073 0.000650
N -0.008618 -1.885174 4.396804 0.001038 -0.002494 -0.001468
N 0.057275 -1.848838 -5.932386 0.001921 0.000522 -0.002544
N -0.001464 -1.819528 -0.717860 -0.000654 0.001420 -0.000120
N 0.010968 1.823098 1.856500 -0.002491 -0.000324 -0.003025
N -0.023644 1.815858 6.891325 -0.001326 0.000415 0.000234
N -0.003538 1.742261 -3.285773 -0.001758 -0.000515 0.000532
N 3.198037 -3.676122 1.799867 0.001334 -0.002871 -0.000045
N 3.171413 -3.731105 6.886438 0.000655 -0.000092 -0.002391
N 3.205618 -3.720622 -3.315872 -0.001262 0.001581 -0.002171
N 1.606228 -0.923135 1.781393 0.000664 -0.001484 0.001050
N 1.498966 -0.935888 6.903029 -0.002040 0.000913 -0.001180
N 1.607811 -0.920498 -3.368358 -0.001468 -0.000609 -0.004308
N 3.135987 1.759026 1.853344 -0.000214 -0.000832 -0.002686
N 3.064830 1.816464 6.960770 -0.000390 0.000611 -0.000275
N 3.175080 1.746620 -3.347508 0.000703 -0.001723 -0.001518
N 6.304300 -3.675369 1.779836 -0.002463 -0.000443 0.001155
N 6.308442 -3.705017 6.921925 0.000336 0.001490 -0.001956
N 6.376944 -3.667668 -3.320305 -0.000349 0.002629 -0.001644
N 4.754234 -0.949401 1.792939 -0.001196 -0.000831 0.000694
N 4.756841 -0.975471 6.929285 0.000909 -0.000780 -0.002688
N 4.828965 -0.941429 -3.335718 0.000198 -0.000368 -0.003348
N -3.265552 1.781712 1.768416 -0.001850 -0.000389 -0.000902
N -3.267258 1.794642 6.934279 -0.000887 -0.000215 -0.001180
N -3.188724 1.748807 -3.276277 -0.001160 -0.001110 0.000189
N -0.027989 -3.704413 1.826857 -0.001314 -0.000414 -0.004307
N -0.095169 -3.682113 6.922044 -0.002862 0.000862 -0.000542
N 0.012211 -3.707149 -3.316047 -0.000045 0.000327 -0.000766
N -1.661414 -0.978765 1.765663 0.001717 0.001927 -0.001262
N -1.655439 -1.001725 6.963826 -0.001744 -0.001534 -0.000388
N -1.623362 -0.935209 -3.290655 -0.003057 -0.000351 -0.001315
