108
Energy=-2771212.529061 Lattice="9.583732 0.000000 0.000000 -4.802311 8.284639 0.000000 0.083530 -0.087135 15.481865" Stress="-0.000266 0.000021 0.000017 0.000021 -0.000248 -0.000018 0.000017 -0.000018 -0.000259" Properties=species:S:1:pos:R:3:forces:R:3
Al 1.617163 0.849397 2.458700 -0.001336 -0.006858 -0.001230
Ga 1.619183 0.851508 7.595044 -0.000637 -0.010035 -0.001155
Ga 1.538219 0.934262 -2.762125 -0.000106 -0.009838 -0.002358
Ga 0.032477 3.595163 2.472572 -0.001251 0.000167 -0.004286
Al 0.034493 3.595541 7.596879 -0.001598 -0.000998 0.001092
Ga -0.050580 3.684038 -2.758842 -0.000638 -0.000429 0.002038
Ga 3.244514 -1.939743 2.462468 -0.002040 0.000941 -0.002879
Ga 3.246283 -1.944805 7.595529 -0.001847 0.000573 0.000096
Ga 3.158910 -1.854957 -2.752724 -0.000959 0.000426 0.000480
Ga -4.788566 0.847358 2.462760 0.000281 -0.008118 -0.003887
Ga -4.786399 0.850982 7.597969 0.000717 -0.008970 -0.000646
Ga -4.870230 0.940272 -2.751002 0.001038 -0.009384 -0.000572
Ga -6.375657 3.590711 2.463085 -0.000163 0.000535 -0.001908
Ga -6.381396 3.597380 7.599695 0.000546 0.000092 0.001224
Ga -6.462821 3.687067 -2.758606 -0.000369 0.000141 0.001384
Ga -3.158193 -1.942771 2.463905 -0.000282 0.001751 -0.002135
Ga -3.164709 -1.945301 7.600772 0.000400 0.001780 0.000823
Ga -3.247515 -1.853743 -2.758695 0.000227 0.000523 0.001017
Ga -1.608960 0.852864 2.472004 0.009569 -0.005032 -0.006295
Ga -1.609014 0.857078 7.598141 0.009898 -0.005512 -0.002843
Ga -1.695627 0.940695 -2.753674 0.009643 -0.005454 -0.002171
Ga -3.197131 3.596615 2.466123 0.008183 0.004331 -0.003654
Ga -3.196512 3.598705 7.599112 0.008267 0.004326 -0.000902
Ga -3.283785 3.687883 -2.751595 0.008605 0.003759 -0.000525
Ga 0.016704 -1.935496 2.462394 0.008161 0.005017 -0.004095
Ga 0.013520 -1.937003 7.596400 0.008555 0.005097 -0.000967
Ga -0.071730 -1.847970 -2.751708 0.008674 0.004837 -0.000851
Ga 0.036543 1.763181 5.030020 -0.007582 -0.006300 -0.000951
Ga -0.047210 1.854287 -5.325811 -0.008725 -0.004476 -0.001236
Ga -0.034301 1.833952 -0.206393 -0.011037 -0.002357 0.024340
Ga 3.249954 -3.776606 5.038115 -0.009054 -0.003344 -0.000442
Ga 3.168950 -3.687934 -5.323685 -0.007946 -0.004487 -0.000679
Ga 3.161311 -3.687323 -0.175330 -0.004794 -0.007014 0.015303
Ga 1.658804 -1.028511 5.026928 -0.009428 0.006398 -0.002779
Ga 1.573870 -0.942489 -5.319364 -0.009311 0.005455 -0.002671
Ga 1.572928 -0.938738 -0.177108 -0.006915 0.001653 0.014583
Ga 3.208555 1.761692 5.025559 -0.000779 -0.001886 0.000908
Ga 3.123556 1.854296 -5.321426 0.000541 -0.001169 0.000269
Ga 3.121827 1.853125 -0.183904 0.003253 -0.003359 0.018668
Ga 6.421090 -3.774636 5.035267 0.000831 0.000222 0.001268
Al 6.336346 -3.686408 -5.327183 -0.000323 -0.000345 0.001235
Ga 6.336228 -3.682323 -0.179156 0.001884 -0.002838 0.018161
Ga 4.834424 -1.028282 5.032711 -0.000795 0.009192 -0.000816
Ga 4.750151 -0.943168 -5.317759 -0.000475 0.009443 -0.001014
Ga 4.745885 -0.936813 -0.180853 0.001863 0.006137 0.016194
Ga -3.197330 1.765699 5.031525 0.000958 -0.000873 0.000323
Ga -3.281232 1.854160 -5.320550 0.001138 -0.000799 0.000491
Ga -3.281187 1.857757 -0.178932 0.004299 -0.003637 0.016790
Ga 0.016431 -3.771184 5.030854 0.000910 0.000632 0.000548
Ga -0.072140 -3.681470 -5.319733 0.001170 -0.000062 0.000513
Ga -0.072067 -3.679274 -0.183499 0.003923 -0.002386 0.017929
Ga -1.572798 -1.025705 5.033526 0.000175 0.009829 -0.001287
Ga -1.658437 -0.940479 -5.320004 -0.000282 0.010044 -0.001410
Ga -1.661802 -0.935638 -0.179639 0.002571 0.006960 0.015547
N 1.620810 0.848653 4.394595 -0.000268 -0.009198 -0.012496
N 1.536943 0.935741 -5.937055 0.000093 -0.009861 0.001027
N 1.542970 0.931165 -0.817116 0.001774 -0.010375 0.004496
N 0.031940 3.596624 4.418928 -0.001216 0.000506 -0.000646
N -0.036794 3.691453 -5.950296 0.010036 0.006319 -0.010235
N -0.050161 3.681749 -0.799981 -0.000910 -0.001576 -0.001144
N 3.245652 -1.943477 4.414881 -0.001316 0.000404 -0.001191
N 3.160291 -1.854194 -5.936187 -0.001343 0.000890 -0.001493
N 3.157070 -1.853495 -0.800126 -0.000270 -0.000210 0.000260
N -4.785536 0.849171 4.413606 0.000809 -0.009081 0.001238
N -4.870397 0.938295 -5.934709 0.000469 -0.009558 0.001386
N -4.871536 0.942320 -0.799862 0.001653 -0.009899 0.002710
N -6.375077 3.596099 4.415444 -0.000430 0.000943 -0.000734
N -6.474696 3.693818 -5.929190 -0.011032 0.006718 0.003661
N -6.463413 3.687997 -0.804266 0.000825 -0.000926 0.000487
N -3.161199 -1.941465 4.416171 -0.000632 0.000950 -0.001111
N -3.246992 -1.870193 -5.928430 -0.000336 -0.011596 0.003640
N -3.250178 -1.850864 -0.804859 0.000451 0.000214 0.000060
N -1.610890 0.852566 4.420577 0.009316 -0.005410 0.003580
N -1.694350 0.941326 -5.935545 0.009734 -0.005822 0.003605
N -1.694189 0.939480 -0.801844 0.010084 -0.005307 0.004120
N -3.197557 3.599058 4.417455 0.008545 0.004528 0.001204
N -3.283631 3.687788 -5.934316 0.008302 0.004614 0.001577
N -3.284974 3.690209 -0.800442 0.009024 0.003363 0.002490
N 0.013764 -1.937682 4.413286 0.007919 0.004714 0.000959
N -0.070522 -1.849280 -5.935868 0.008365 0.004849 0.000688
N -0.073381 -1.845812 -0.800739 0.009291 0.004151 0.002641
N 0.036847 1.764191 1.875019 0.004271 -0.013002 -0.018789
N 0.036338 1.779608 6.986161 -0.008524 0.008237 0.005097
N -0.049419 1.849995 -3.373513 -0.008470 -0.004978 0.001081
N 3.249314 -3.775942 1.845054 -0.011884 -0.000509 -0.013734
N 3.263371 -3.784989 6.990612 0.002448 -0.010519 0.005727
N 3.163294 -3.688020 -3.371397 -0.008677 -0.004171 0.000896
N 1.659647 -1.008404 1.849318 -0.012634 0.019019 -0.008426
N 1.658030 -1.028570 6.977905 -0.009070 0.005373 0.003049
N 1.573292 -0.942831 -3.371650 -0.009501 0.005240 0.003387
N 3.193716 1.750989 1.849181 -0.013313 -0.004109 -0.012729
N 3.208693 1.763690 6.979743 0.000970 -0.000704 -0.001611
N 3.126236 1.852377 -3.372057 0.000696 -0.000919 -0.000553
N 6.423712 -3.776296 1.844366 -0.002361 0.003045 -0.016228
N 6.406781 -3.782182 6.987617 -0.010871 -0.006509 0.003557
N 6.336570 -3.685216 -3.393172 0.000358 -0.000232 -0.014924
N 4.837306 -1.031174 1.842712 -0.003844 0.012280 -0.014406
N 4.834163 -1.027402 6.983106 -0.000496 0.009455 0.000814
N 4.748025 -0.938731 -3.368293 -0.000951 0.009640 0.001401
N -3.195616 1.762255 1.844105 -0.002322 0.002080 -0.016227
N -3.197342 1.766125 6.981960 0.000962 -0.000756 -0.001617
N -3.281603 1.854651 -3.368935 0.001248 -0.000723 -0.001271
N 0.018580 -3.774287 1.843856 -0.002533 0.003284 -0.016457
N 0.014545 -3.771516 6.982676 0.000820 -0.000609 -0.000873
N -0.069349 -3.681696 -3.368785 0.001249 -0.000160 -0.000824
N -1.570291 -1.026008 1.841296 -0.003384 0.012347 -0.013869
N -1.574168 -1.025685 6.983838 -0.000695 0.009639 0.001148
N -1.657795 -0.936884 -3.370339 -0.000033 0.009616 0.001025
