108
Energy=-848643.539715 Lattice="9.448098 0.000000 0.000000 -4.727389 8.177459 0.000000 -0.012877 -0.007867 15.195808" Stress="0.000007 -0.000001 -0.000003 -0.000001 0.000002 -0.000002 -0.000003 -0.000002 0.000011" Properties=species:S:1:pos:R:3:forces:R:3
Al 1.550237 0.868928 2.422738 -0.000343 -0.000214 0.000351
Al 1.550495 0.873042 7.446520 -0.000034 0.000075 0.000005
Al 1.553150 0.872799 -2.719669 0.000092 -0.000005 -0.000505
Al -0.009809 3.597622 2.419345 0.000037 0.000031 0.000019
Al -0.030775 3.590206 7.445363 -0.000039 -0.000015 -0.000028
Al -0.020019 3.590898 -2.715395 -0.000010 -0.000056 -0.000069
Al 3.135116 -1.846122 2.414697 0.000041 -0.000051 -0.000011
Al 3.130099 -1.861069 7.447570 0.000101 -0.000038 0.000043
Al 3.129022 -1.849816 -2.710821 -0.000043 -0.000024 -0.000117
Al -4.746312 0.860177 2.402934 -0.000315 -0.000284 0.000237
Al -4.759715 0.863535 7.435501 0.000083 0.000023 -0.000159
Al -4.752279 0.869431 -2.689672 0.000058 0.000207 -0.000008
Al -6.338155 3.598067 2.391147 -0.000501 -0.000337 0.000241
Al -6.340275 3.578767 7.462169 -0.000008 -0.000032 -0.000077
Al -6.319169 3.594038 -2.700904 0.000068 0.000005 0.000002
Al -3.173980 -1.859388 2.381006 -0.000095 -0.000054 -0.000051
Al -3.184407 -1.859238 7.446758 -0.000006 0.000048 -0.000001
Ga -3.172562 -1.853734 -2.679280 -0.000024 -0.000005 -0.000040
Al -1.602201 0.860581 2.400240 0.000181 -0.000286 0.000305
Al -1.603701 0.868560 7.437800 0.000022 0.000030 -0.000059
Al -1.587952 0.875170 -2.684859 0.000164 -0.000359 -0.000351
Ga -3.175276 3.585993 2.390590 -0.000002 0.000038 -0.000067
Al -3.168578 3.585704 7.453328 0.000203 -0.000139 0.000023
Al -3.175558 3.601667 -2.685929 0.000005 -0.000121 -0.000026
Al -0.032471 -1.848788 2.393005 0.000044 -0.000006 0.000157
Ga -0.029179 -1.850499 7.467616 -0.000068 0.000010 -0.000073
Al -0.015681 -1.855189 -2.703484 0.000061 -0.000104 -0.000232
Al -0.029047 1.775270 4.922723 0.000042 -0.000007 -0.000017
Al -0.013250 1.779606 -5.228945 -0.000020 -0.000007 -0.000038
Ga -0.028902 1.781145 -0.139310 0.000004 0.000135 0.000079
Al 3.138715 -3.671895 4.934697 0.000211 0.000047 0.000081
Al 3.137178 -3.664375 -5.221551 -0.000038 0.000049 -0.000035
Ga 3.139857 -3.667909 -0.156125 -0.000031 -0.000026 -0.000042
Al 1.556491 -0.941841 4.919229 -0.000092 0.000011 -0.000162
Al 1.564073 -0.942548 -5.213372 0.000254 0.000100 0.000143
Ga 1.551604 -0.954584 -0.148001 -0.000065 -0.000014 0.000039
Al 3.117296 1.771213 4.921185 -0.000010 -0.000217 0.000145
Al 3.123765 1.779803 -5.221209 0.000044 -0.000034 -0.000072
Ga 3.138664 1.784852 -0.145631 -0.000009 -0.000007 0.000008
Al 6.267026 -3.673249 4.928148 0.000032 -0.000008 0.000044
Al 6.282019 -3.673116 -5.236019 -0.000063 0.000027 -0.000107
Al 6.286472 -3.666195 -0.140580 -0.000650 -0.000193 0.000124
Al 4.701754 -0.952511 4.921877 -0.000070 0.000029 0.000000
Al 4.700453 -0.949624 -5.237987 0.000023 0.000000 -0.000247
Al 4.712378 -0.943886 -0.132382 -0.000307 0.000203 0.000415
Al -3.173349 1.761196 4.939514 0.000027 -0.000369 0.000226
Ga -3.168152 1.777856 -5.218138 0.000083 -0.000050 -0.000022
Al -3.177242 1.763602 -0.162904 0.000180 0.000139 -0.000247
Ga -0.033689 -3.677599 4.932561 -0.000104 0.000097 -0.000011
Al -0.020869 -3.672142 -5.212095 0.000090 -0.000016 -0.000000
Al -0.036082 -3.668044 -0.158523 0.000118 0.000061 -0.000310
Al -1.612339 -0.942933 4.909063 -0.000045 -0.000031 0.000225
Al -1.592646 -0.945535 -5.215163 -0.000095 0.000238 0.000057
Al -1.600709 -0.949901 -0.139028 -0.000280 -0.000108 0.000022
N 1.546182 0.869271 4.333149 0.000062 -0.000043 -0.000001
N 1.556986 0.871649 -5.824069 0.000058 0.000029 -0.000016
N 1.552142 0.872364 -0.816801 0.000054 -0.000016 0.000541
N -0.024816 3.595129 4.335414 0.000061 0.000042 0.000029
N -0.022175 3.597263 -5.828827 -0.000021 0.000000 0.000028
N 0.023856 3.618326 -0.804888 0.000135 0.000111 0.000210
N 3.127580 -1.858253 4.329778 0.000009 0.000005 -0.000011
N 3.130118 -1.855231 -5.828565 0.000001 0.000049 0.000028
N 3.175171 -1.825868 -0.800817 -0.000192 -0.000093 0.000013
N -4.748141 0.866929 4.327242 0.000116 0.000018 0.000022
N -4.785660 0.850916 -5.850299 -0.000028 0.000041 0.000224
N -4.711533 0.839635 -0.775342 0.000037 0.000162 -0.000036
N -6.372863 3.571157 4.302115 -0.000030 0.000360 -0.000353
N -6.319017 3.594127 -5.818851 -0.000004 0.000052 0.000073
N -6.327537 3.642768 -0.780929 0.000251 -0.000005 -0.000162
N -3.177479 -1.862189 4.307556 0.000036 0.000026 -0.000009
N -3.164761 -1.851816 -5.827161 0.000019 -0.000008 0.000048
N -3.173166 -1.854044 -0.693213 0.000636 -0.000201 -0.000138
N -1.606375 0.869705 4.319671 0.000142 -0.000071 0.000059
N -1.551883 0.848096 -5.849034 0.000031 -0.000190 0.000383
N -1.631028 0.843855 -0.771209 -0.000061 0.000067 0.000371
N -3.135242 3.565254 4.361745 -0.000187 0.000302 -0.000408
N -3.166284 3.645151 -5.832281 0.000080 -0.000073 0.000084
N -3.214808 3.576870 -0.762162 0.000100 -0.000298 -0.000060
N -0.027605 -1.811567 4.307272 -0.000019 -0.000037 -0.000135
N -0.015221 -1.850115 -5.757036 -0.000403 -0.000277 -0.000162
N -0.063868 -1.874804 -0.780926 0.000042 -0.000083 0.000244
N -0.024086 1.778206 1.847610 0.000034 0.000198 -0.000121
N -0.027598 1.773706 6.843788 0.000014 0.000091 -0.000038
N -0.025242 1.778478 -3.309007 -0.000046 -0.000026 -0.000046
N 3.175213 -3.648616 1.820217 -0.000180 0.000126 -0.000062
N 3.126296 -3.675917 6.851360 0.000017 0.000125 0.000019
N 3.128833 -3.673005 -3.296762 -0.000041 0.000081 0.000023
N 1.553313 -0.947420 1.839123 0.000245 -0.000257 -0.000160
N 1.588971 -0.928570 6.832171 -0.000108 0.000091 0.000053
N 1.557471 -0.947169 -3.297860 -0.000098 0.000074 0.000036
N 3.122660 1.773028 1.839385 0.000938 0.000346 -0.000135
N 3.118127 1.776636 6.840424 -0.000007 -0.000033 -0.000001
N 3.132826 1.780978 -3.300149 0.000028 0.000039 0.000045
N 6.272955 -3.678636 1.781899 0.000044 0.000023 0.000052
N 6.273156 -3.676723 6.851647 0.000028 0.000007 0.000025
N 6.282234 -3.713926 -3.326465 0.000061 0.000004 0.000067
N 4.696285 -0.946289 1.791917 -0.000019 0.000010 0.000086
N 4.697767 -0.954618 6.841453 -0.000081 -0.000016 -0.000045
N 4.668508 -0.921088 -3.328791 -0.000024 -0.000194 0.000191
N -3.173947 1.722790 1.758110 -0.000455 0.000353 -0.000510
N -3.179176 1.771223 6.856519 0.000002 -0.000005 0.000010
N -3.169578 1.778681 -3.240503 -0.000174 0.000222 0.000110
N -0.066166 -3.651401 1.764977 0.000145 0.000456 0.000184
N -0.031639 -3.724053 6.895928 -0.000150 0.000133 -0.000104
N -0.018520 -3.675519 -3.293857 -0.000002 -0.000057 0.000025
N -1.596832 -0.945811 1.785354 0.000042 -0.000118 0.000012
N -1.645391 -0.930834 6.822073 -0.000033 -0.000082 -0.000348
N -1.560054 -0.920098 -3.306818 -0.000013 0.000151 -0.000042
