108
Energy=-1.397949e+06 Lattice="9.511202e+00 0.000000e+00 0.000000e+00 -4.762094e+00 8.234732e+00 0.000000e+00 6.964699e-03 -4.341536e-03 1.535154e+01" Stress="1.856018e-05 -5.886135e-04 3.289406e-04 -6.046612e-04 -4.106733e-04 -9.193483e-05 3.487923e-04 -8.830290e-05 5.588123e-04" Properties=species:S:1:pos:R:3:forces:R:3 Config_type=AlGaN_super3_21_0_12.xyz
Al 1.564341e+00 8.896123e-01 2.420415e+00 -7.540085e-04 -4.857277e-04 -3.305310e-04
Al 1.572840e+00 8.713103e-01 7.500108e+00 -1.735721e-04 2.175313e-04 5.412462e-04
Al 1.554917e+00 8.767435e-01 -2.698897e+00 5.324936e-04 4.445437e-04 2.326607e-04
Al -1.937455e-02 3.611056e+00 2.414240e+00 -1.018527e-03 -2.824685e-04 -2.107022e-06
Al -2.431954e-02 3.618835e+00 7.490468e+00 -2.667639e-04 1.003453e-04 1.437678e-04
Al -2.745434e-02 3.611557e+00 -2.679387e+00 -2.509767e-04 9.762516e-05 6.469947e-04
Al 3.163303e+00 -1.859449e+00 2.424377e+00 -4.156667e-03 -4.171496e-03 -4.286362e-04
Ga 3.140098e+00 -1.879634e+00 7.521521e+00 -3.169015e-05 1.475506e-04 9.852898e-04
Ga 3.141104e+00 -1.878031e+00 -2.712778e+00 1.434801e-04 -6.322974e-05 5.828233e-05
Al -4.795163e+00 8.725008e-01 2.407448e+00 5.995317e-04 2.314604e-03 -3.479553e-03
Al -4.785366e+00 8.859131e-01 7.525549e+00 -1.110890e-04 4.557879e-04 1.804079e-05
Ga -4.795415e+00 8.850537e-01 -2.681233e+00 6.006318e-04 1.166381e-04 3.530432e-05
Al -6.377054e+00 3.599889e+00 2.407142e+00 -9.675961e-04 2.833662e-04 1.199842e-03
Ga -6.366671e+00 3.607886e+00 7.520279e+00 1.388829e-04 -1.273715e-04 9.750508e-04
Ga -6.371050e+00 3.614264e+00 -2.701562e+00 9.211666e-05 9.935246e-05 -4.982406e-04
Ga -3.199989e+00 -1.881098e+00 2.418348e+00 8.383244e-04 -2.011093e-04 1.664601e-04
Al -3.177854e+00 -1.877415e+00 7.491866e+00 -1.974237e-05 2.001172e-04 3.041362e-04
Ga -3.193338e+00 -1.880736e+00 -2.669576e+00 -1.670216e-04 2.364406e-04 3.979736e-04
Al -1.597173e+00 8.878494e-01 2.418358e+00 -9.028624e-05 3.524507e-04 7.207047e-04
Ga -1.601512e+00 8.770980e-01 7.515306e+00 2.317969e-04 -3.029415e-04 2.576629e-04
Ga -1.605477e+00 8.925152e-01 -2.697015e+00 6.380628e-04 -9.580420e-05 1.006227e-04
Ga -3.188153e+00 3.619076e+00 2.395496e+00 3.903295e-04 4.487617e-05 5.097293e-04
Al -3.184023e+00 3.623580e+00 7.534904e+00 5.156354e-05 -1.248166e-04 7.638078e-04
Ga -3.196349e+00 3.630667e+00 -2.697308e+00 1.129603e-04 -3.940359e-04 6.881353e-04
Ga -1.419376e-02 -1.863368e+00 2.430721e+00 7.393977e-04 -2.915238e-04 8.805250e-04
Al -1.055170e-02 -1.859972e+00 7.515633e+00 4.971324e-04 -6.985722e-04 4.115809e-04
Al -9.716291e-03 -1.869280e+00 -2.712761e+00 1.273361e-04 -3.689537e-04 3.648777e-04
Al -8.359916e-03 1.794652e+00 4.952153e+00 -1.999968e-04 -1.977222e-04 3.705148e-04
Ga -9.868663e-03 1.799500e+00 -5.274131e+00 -4.181745e-04 2.037814e-04 8.546793e-04
Al -1.947998e-02 1.807458e+00 -1.336331e-01 8.153435e-05 -1.036476e-04 6.154786e-04
Al 3.166533e+00 -3.699912e+00 4.960715e+00 -5.505771e-04 -5.521676e-04 2.377651e-04
Al 3.139388e+00 -3.714741e+00 -5.277926e+00 1.993027e-04 4.421708e-04 4.341313e-04
Al 3.166802e+00 -3.709224e+00 -1.336843e-01 7.730963e-05 5.477802e-04 1.173925e-03
Al 1.567217e+00 -9.377709e-01 4.962099e+00 -4.395483e-04 -4.415666e-04 3.734921e-04
Al 1.557426e+00 -9.522195e-01 -5.271474e+00 -3.314727e-04 1.823303e-04 3.226016e-04
Ga 1.575754e+00 -9.527175e-01 -1.447717e-01 -4.450487e-04 5.628329e-04 6.689090e-04
Al 3.124922e+00 1.789021e+00 4.946188e+00 2.248829e-03 -1.083482e-03 6.784574e-04
Al 3.144957e+00 1.778517e+00 -5.276134e+00 -3.318437e-04 8.970951e-04 -1.140632e-04
Al 3.141198e+00 1.796682e+00 -1.165866e-01 -3.952733e-04 -7.536252e-04 -1.041832e-03
Al 6.314078e+00 -3.712510e+00 4.959290e+00 3.209087e-04 -1.450108e-03 3.709465e-04
Ga 6.309090e+00 -3.707065e+00 -5.277779e+00 1.724459e-05 1.643813e-04 1.025332e-03
Al 6.309888e+00 -3.722166e+00 -1.281089e-01 2.933228e-04 6.344156e-05 4.627798e-05
Ga 4.732183e+00 -9.556642e-01 4.970456e+00 -5.356660e-04 1.030001e-03 6.998662e-04
Ga 4.728652e+00 -9.389856e-01 -5.293141e+00 -6.865325e-05 -3.705962e-04 8.262291e-05
Al 4.725864e+00 -9.525984e-01 -1.072376e-01 -3.682290e-04 -4.482121e-04 -1.478310e-03
Ga -3.189516e+00 1.789771e+00 4.963808e+00 -7.877272e-04 -2.778866e-04 2.758479e-04
Al -3.218727e+00 1.814945e+00 -5.289475e+00 3.963002e-04 1.776709e-04 2.857182e-05
Al -3.203582e+00 1.794129e+00 -1.105213e-01 6.213549e-04 -2.138988e-04 -4.797905e-04
Ga -2.474710e-02 -3.693924e+00 4.981354e+00 2.824767e-04 -5.870623e-04 9.773570e-04
Al -2.675862e-03 -3.696411e+00 -5.290599e+00 -2.015075e-05 4.391474e-04 -2.979936e-04
Al -2.636006e-02 -3.711125e+00 -1.391306e-01 -1.529399e-04 4.249990e-04 1.929755e-04
Al -1.591553e+00 -9.512735e-01 4.973392e+00 -1.420208e-04 7.093148e-05 8.618578e-04
Ga -1.595068e+00 -9.630101e-01 -5.271648e+00 -4.358758e-04 -7.573156e-05 6.309559e-04
Ga -1.607089e+00 -9.526635e-01 -1.379316e-01 -9.013126e-05 2.924847e-04 -8.565841e-04
N 1.559925e+00 8.779515e-01 4.342972e+00 1.021870e-04 3.247366e-04 -2.267419e-04
N 1.600747e+00 8.499891e-01 -5.921438e+00 2.650593e-04 4.791978e-05 -7.388550e-04
N 1.561730e+00 9.247026e-01 -7.737336e-01 4.057815e-04 3.871328e-04 2.970985e-04
N -2.582928e-02 3.620807e+00 4.342062e+00 2.806623e-04 -3.759285e-04 1.121409e-04
N -7.108851e-02 3.643225e+00 -5.949097e+00 7.308847e-05 -1.309481e-04 -2.154203e-04
N -2.829822e-02 3.617172e+00 -7.538855e-01 2.839121e-05 -6.369939e-05 6.814998e-05
N 3.112030e+00 -1.892888e+00 4.347529e+00 7.273294e-05 1.474175e-04 -5.181765e-04
N 3.100425e+00 -1.897511e+00 -5.846380e+00 2.623233e-05 6.466590e-06 -2.456978e-04
N 3.192252e+00 -1.898346e+00 -7.317303e-01 3.468338e-04 -3.356783e-05 -2.824107e-04
N -4.819795e+00 8.986936e-01 4.302435e+00 -1.082806e-03 6.224707e-04 3.446121e-03
N -4.789888e+00 9.324709e-01 -5.912655e+00 1.885923e-04 -1.709034e-04 -1.357491e-04
N -4.784766e+00 8.779148e-01 -6.911429e-01 -1.782261e-04 2.175817e-04 6.591085e-04
N -6.406314e+00 3.598090e+00 4.336390e+00 -1.238532e-04 -2.199888e-04 -4.213819e-04
N -6.330326e+00 3.594632e+00 -5.848999e+00 -8.229920e-05 -4.164207e-04 -1.491440e-04
N -6.367159e+00 3.614849e+00 -7.126982e-01 -2.650350e-04 1.119088e-05 6.343388e-04
N -3.145847e+00 -1.897881e+00 4.395618e+00 -3.630064e-04 1.115607e-03 -9.047844e-04
N -3.187867e+00 -1.872071e+00 -5.951953e+00 2.355959e-04 1.226665e-04 -2.414800e-04
N -3.239313e+00 -1.898727e+00 -6.924096e-01 2.045128e-04 8.905687e-05 3.889590e-04
N -1.564657e+00 8.536400e-01 4.345124e+00 5.468830e-04 8.303030e-04 -9.068479e-05
N -1.652162e+00 9.036597e-01 -5.862751e+00 5.880715e-04 -1.207891e-04 -4.173974e-04
N -1.614542e+00 9.345560e-01 -7.168764e-01 2.832967e-04 -4.885422e-04 -5.837941e-04
N -3.156299e+00 3.647889e+00 4.359831e+00 2.151580e-04 1.974213e-04 -3.007827e-04
N -3.193578e+00 3.628272e+00 -5.889646e+00 -3.004966e-04 -4.863689e-04 -5.257902e-04
N -3.195316e+00 3.620874e+00 -6.968244e-01 -2.490163e-04 -2.917348e-04 -4.026240e-04
N -1.542876e-02 -1.824058e+00 4.397592e+00 3.969019e-04 3.229890e-05 -7.166436e-04
N 2.201068e-02 -1.884090e+00 -5.913508e+00 1.495808e-04 -1.317334e-04 -4.114315e-04
N -1.653067e-02 -1.919347e+00 -7.956898e-01 1.877975e-04 -3.967907e-04 -3.035277e-04
N -1.929682e-02 1.791743e+00 1.803247e+00 6.617665e-05 1.478681e-04 -8.076229e-05
N 2.617023e-02 1.811804e+00 6.878951e+00 1.276606e-04 -3.589392e-04 -1.223580e-03
N 2.119901e-02 1.817608e+00 -3.288628e+00 -3.410118e-04 3.786399e-04 -1.008981e-03
N 3.201957e+00 -3.676127e+00 1.786908e+00 7.604128e-04 1.858963e-03 -4.095765e-04
N 3.152415e+00 -3.750519e+00 6.878788e+00 3.156009e-04 7.085893e-04 -6.825190e-04
N 3.195230e+00 -3.735944e+00 -3.356212e+00 1.979293e-04 3.391843e-04 -4.723993e-04
N 1.606305e+00 -9.263058e-01 1.832259e+00 1.056869e-03 -6.638695e-06 1.902796e-03
N 1.531220e+00 -9.290010e-01 6.879911e+00 8.804702e-05 -8.636620e-05 -5.240258e-04
N 1.522249e+00 -9.251977e-01 -3.337033e+00 -3.449835e-04 8.924245e-05 -5.465643e-04
N 3.138023e+00 1.786846e+00 1.804657e+00 6.825416e-04 1.409675e-04 -4.474578e-04
N 3.150294e+00 1.741031e+00 6.868602e+00 -1.721263e-04 -1.212924e-04 -6.814571e-04
N 3.100734e+00 1.761734e+00 -3.358848e+00 -4.686737e-05 -1.307248e-04 8.873665e-05
N 6.318363e+00 -3.756693e+00 1.791258e+00 3.517837e-04 2.629454e-04 -5.363291e-04
N 6.286968e+00 -3.685789e+00 6.878177e+00 -1.066255e-04 -9.876809e-05 -5.240168e-04
N 6.273052e+00 -3.723761e+00 -3.300503e+00 6.081153e-05 -2.173237e-04 -6.038863e-04
N 4.691359e+00 -9.340864e-01 1.808756e+00 1.523777e-03 3.571595e-04 -1.400462e-03
N 4.774409e+00 -9.263997e-01 6.948766e+00 -4.737329e-04 -5.770635e-04 -3.167390e-04
N 4.740933e+00 -9.486550e-01 -3.325291e+00 -4.720850e-04 -3.671553e-04 -4.994771e-04
N -3.194473e+00 1.738139e+00 1.803391e+00 -1.620829e-04 -2.818354e-04 -4.962818e-04
N -3.234550e+00 1.815829e+00 6.940197e+00 -5.858844e-05 -9.973004e-05 -4.004644e-04
N -3.208117e+00 1.796426e+00 -3.374587e+00 -2.338661e-04 -1.315608e-05 -2.002747e-05
N -6.791094e-02 -3.720150e+00 1.776409e+00 4.293930e-04 3.480576e-04 -8.550651e-04
N 2.514580e-02 -3.679559e+00 6.956450e+00 -2.344417e-04 3.901552e-04 -5.315477e-04
N -2.014333e-02 -3.652431e+00 -3.366875e+00 1.713931e-04 -2.075385e-04 1.925418e-04
N -1.603257e+00 -9.083582e-01 1.824274e+00 -5.336398e-04 -8.497758e-05 7.325301e-04
N -1.594919e+00 -9.987557e-01 6.890252e+00 -5.488531e-04 3.615879e-04 -3.373744e-04
N -1.569979e+00 -9.775130e-01 -3.290591e+00 -6.074667e-04 -3.225078e-06 -4.086290e-04
