108
Energy=-2816981.657296 Lattice="9.476278 0.000000 0.000000 -4.738139 8.206697 0.000000 0.000000 0.000000 15.313968" Stress="-0.000578 0.000040 0.000000 0.000040 -0.000532 -0.000001 0.000000 -0.000001 -0.000550" Properties=species:S:1:pos:R:3:forces:R:3
Al 1.564294 0.903146 2.504900 -0.001299 -0.014789 -0.012603
Ga 1.564294 0.903146 7.521855 -0.002178 -0.018772 -0.006234
Ga 1.564294 0.903146 -2.775158 -0.002190 -0.018792 -0.006079
Ga 0.000000 3.612582 2.504900 -0.003046 -0.001760 -0.012726
Ga 0.000000 3.612582 7.521855 -0.003150 -0.001419 -0.002660
Ga 0.000000 3.612582 -2.775158 -0.002998 -0.001209 -0.002762
Ga 3.173845 -1.884678 2.504900 -0.003532 0.001842 -0.013977
Ga 3.173845 -1.884678 7.521855 -0.003370 0.002013 -0.003762
Ga 3.173845 -1.884678 -2.775158 -0.003092 0.002112 -0.003857
Ga -4.783396 0.903146 2.504900 0.000403 -0.017226 -0.014254
Ga -4.783396 0.903146 7.521855 0.000755 -0.017388 -0.004937
Ga -4.783396 0.903146 -2.775158 0.000878 -0.017577 -0.004952
Ga -6.347690 3.612582 2.504900 -0.000271 -0.000285 -0.011411
Ga -6.347690 3.612582 7.521855 -0.000247 0.000114 -0.001519
Ga -6.347690 3.612582 -2.775158 -0.000408 0.000369 -0.001672
Ga -3.173845 -1.884678 2.504900 -0.000411 0.003271 -0.012708
Ga -3.173845 -1.884678 7.521855 -0.000374 0.003490 -0.002760
Al -3.173845 -1.884678 -2.775158 -0.000364 0.003467 -0.003141
Ga -1.654808 0.903146 2.504900 0.016691 -0.009345 -0.017182
Ga -1.654808 0.903146 7.521855 0.016545 -0.009542 -0.008415
Ga -1.654808 0.903146 -2.775158 0.016376 -0.009762 -0.008250
Ga -3.219102 3.612582 2.504900 0.015410 0.008009 -0.014330
Ga -3.219102 3.612582 7.521855 0.015437 0.008018 -0.004935
Ga -3.219102 3.612582 -2.775158 0.015426 0.007955 -0.004886
Ga -0.045257 -1.884678 2.504900 0.015314 0.011132 -0.015518
Ga -0.045257 -1.884678 7.521855 0.015157 0.011350 -0.006048
Ga -0.045257 -1.884678 -2.775158 0.014845 0.011451 -0.006076
Ga 0.000000 1.806291 5.013378 -0.015128 -0.011378 -0.007000
Ga 0.000000 1.806291 -5.283635 -0.015185 -0.011341 -0.006058
Ga 0.000000 1.806291 -0.266680 -0.015126 -0.011382 0.045417
Ga 3.173845 -3.690969 5.013378 -0.015472 -0.008104 -0.005379
Ga 3.173845 -3.690969 -5.283635 -0.015422 -0.008008 -0.004754
Ga 3.173845 -3.690969 -0.266680 -0.015456 -0.007948 0.046448
Ga 1.609551 -0.981532 5.013378 -0.016563 0.009529 -0.009215
Ga 1.609551 -0.981532 -5.283635 -0.016533 0.009531 -0.008377
Ga 1.609551 -0.981532 -0.266680 -0.016489 0.009508 0.042799
Ga 3.128588 1.806291 5.013378 0.000287 -0.003506 -0.003603
Ga 3.128588 1.806291 -5.283635 0.000361 -0.003512 -0.002666
Ga 3.128588 1.806291 -0.266680 0.000341 -0.003688 0.048944
Ga 6.302433 -3.690969 5.013378 0.000230 -0.000118 -0.002066
Ga 6.302433 -3.690969 -5.283635 0.000203 -0.000277 -0.001137
Ga 6.302433 -3.690969 -0.266680 0.000169 -0.000041 0.049705
Ga 4.738139 -0.981532 5.013378 -0.000685 0.017421 -0.005436
Ga 4.738139 -0.981532 -5.283635 -0.000904 0.017453 -0.004486
Ga 4.738139 -0.981532 -0.266680 -0.000769 0.017254 0.046029
Ga -3.219102 1.806291 5.013378 0.003408 -0.002006 -0.004241
Ga -3.219102 1.806291 -5.283635 0.003413 -0.002031 -0.003577
Ga -3.219102 1.806291 -0.266680 0.003577 -0.001978 0.047782
Ga -0.045257 -3.690969 5.013378 0.003180 0.001354 -0.003132
Ga -0.045257 -3.690969 -5.283635 0.003170 0.001436 -0.002483
Ga -0.045257 -3.690969 -0.266680 0.003417 0.001474 0.048891
Ga -1.609551 -0.981532 5.013378 0.002112 0.018842 -0.006569
Ga -1.609551 -0.981532 -5.283635 0.002304 0.018886 -0.005623
Ga -1.609551 -0.981532 -0.266680 0.002201 0.018766 0.044926
N 1.564294 0.903146 4.418497 -0.001355 -0.017739 -0.016869
N 1.564294 0.903146 -5.878516 -0.001369 -0.017949 0.005732
N 1.564294 0.903146 -0.861561 -0.001249 -0.017696 0.009245
N 0.000000 3.612582 4.418497 -0.002516 0.000202 0.002538
N 0.000000 3.612582 -5.878516 -0.002317 0.000157 0.001891
N 0.000000 3.612582 -0.861561 -0.002325 -0.000070 0.006002
N 3.173845 -1.884678 4.418497 -0.002961 0.001655 0.001996
N 3.173845 -1.884678 -5.878516 -0.002849 0.001725 0.001472
N 3.173845 -1.884678 -0.861561 -0.002998 0.001674 0.005535
N -4.783396 0.903146 4.418497 0.000520 -0.017763 0.006820
N -4.783396 0.903146 -5.878516 0.000405 -0.017832 0.006105
N -4.783396 0.903146 -0.861561 0.000277 -0.017417 0.009854
N -6.347690 3.612582 4.418497 -0.000528 0.000516 0.002946
N -6.347690 3.612582 -5.878516 -0.000672 0.000465 0.002217
N -6.347690 3.612582 -0.861561 -0.000560 0.000206 0.006431
N -3.173845 -1.884678 4.418497 -0.001247 0.002106 0.002351
N -3.173845 -1.884678 -5.878516 -0.001221 0.002062 0.001983
N -3.173845 -1.884678 -0.861561 -0.001202 0.001837 -0.017683
N -1.654808 0.903146 4.418497 0.016576 -0.009599 0.010684
N -1.654808 0.903146 -5.878516 0.016616 -0.009682 0.010045
N -1.654808 0.903146 -0.861561 0.016632 -0.009414 0.013335
N -3.219102 3.612582 4.418497 0.015599 0.008596 0.006696
N -3.219102 3.612582 -5.878516 0.015577 0.008598 0.005952
N -3.219102 3.612582 -0.861561 0.015378 0.008450 0.009590
N -0.045257 -1.884678 4.418497 0.014877 0.010120 0.006362
N -0.045257 -1.884678 -5.878516 0.014791 0.010184 0.005740
N -0.045257 -1.884678 -0.861561 0.014878 0.009965 0.009456
N 0.000000 1.806291 1.910020 0.003627 -0.021169 -0.032355
N 0.000000 1.806291 6.926975 -0.014847 -0.010199 0.005809
N 0.000000 1.806291 -3.370038 -0.015073 -0.010078 0.005685
N 3.173845 -3.690969 1.910020 -0.015578 -0.008458 -0.039168
N 3.173845 -3.690969 6.926975 -0.015555 -0.008557 0.006121
N 3.173845 -3.690969 -3.370038 -0.015751 -0.008709 0.005885
N 1.609551 -0.981532 1.910020 -0.017232 0.027566 -0.029313
N 1.609551 -0.981532 6.926975 -0.016642 0.009661 0.010002
N 1.609551 -0.981532 -3.370038 -0.016686 0.009354 0.010054
N 3.128588 1.806291 1.910020 -0.017782 -0.012968 -0.036433
N 3.128588 1.806291 6.926975 0.001175 -0.002089 0.001927
N 3.128588 1.806291 -3.370038 0.001403 -0.001931 0.001790
N 6.302433 -3.690969 1.910020 0.000591 -0.000107 -0.043693
N 6.302433 -3.690969 6.926975 0.000594 -0.000394 0.002335
N 6.302433 -3.690969 -3.370038 0.000644 0.021495 0.009846
N 4.738139 -0.981532 1.910020 -0.000339 0.017919 -0.039527
N 4.738139 -0.981532 6.926975 -0.000402 0.017742 0.006226
N 4.738139 -0.981532 -3.370038 0.018472 0.006954 0.013723
N -3.219102 1.806291 1.910020 0.003143 -0.002059 -0.044440
N -3.219102 1.806291 6.926975 0.002951 -0.001732 0.001568
N -3.219102 1.806291 -3.370038 0.002923 -0.001528 0.001147
N -0.045257 -3.690969 1.910020 0.002362 0.000229 -0.043847
N -0.045257 -3.690969 6.926975 0.002369 -0.000042 0.001941
N -0.045257 -3.690969 -3.370038 0.002563 -0.000198 0.001614
N -1.609551 -0.981532 1.910020 0.001319 0.018226 -0.040060
N -1.609551 -0.981532 6.926975 0.001404 0.017953 0.005928
N -1.609551 -0.981532 -3.370038 -0.017363 0.006897 0.013320
