108
Energy=-2176132.848913 Lattice="9.607720 0.000000 0.000000 -4.803220 8.320265 0.000000 0.001486 -0.000203 15.572361" Stress="0.000000 -0.000000 -0.000000 0.000000 0.000000 -0.000000 0.000000 0.000000 -0.000000" Properties=species:S:1:pos:R:3:forces:R:3
Al 1.567748 0.890183 2.434503 -0.000010 0.000004 -0.000001
Al 1.574934 0.891898 7.650725 -0.000010 0.000001 -0.000011
Ga 1.568587 0.873334 -2.745890 -0.000004 0.000005 0.000005
Al -0.017049 3.640617 2.460759 -0.000004 -0.000001 0.000008
Ga -0.001927 3.641887 7.641882 -0.000007 0.000002 -0.000007
Al -0.018417 3.652719 -2.757905 -0.000007 0.000001 0.000002
Ga 3.177696 -1.881216 2.440819 0.000005 0.000010 -0.000003
Ga 3.175984 -1.875904 7.648075 -0.000004 0.000008 -0.000003
Ga 3.162434 -1.882315 -2.740401 -0.000016 0.000007 0.000000
Ga -4.837799 0.879780 2.465501 0.000001 0.000001 0.000003
Ga -4.835360 0.888307 7.645237 0.000001 0.000004 0.000002
Al -4.815007 0.890175 -2.759883 -0.000010 -0.000001 -0.000008
Ga -6.430172 3.654096 2.430888 -0.000002 -0.000001 -0.000001
Al -6.438224 3.651861 7.659792 -0.000005 0.000005 -0.000000
Ga -6.434591 3.660673 -2.741702 0.000001 0.000008 -0.000000
Ga -3.234255 -1.891287 2.449408 -0.000012 0.000004 0.000003
Ga -3.219877 -1.898176 7.668043 0.000000 -0.000000 0.000007
Ga -3.214266 -1.891024 -2.770335 -0.000003 0.000009 0.000004
Ga -1.601976 0.896856 2.451653 -0.000007 0.000001 0.000004
Ga -1.609504 0.886594 7.660379 -0.000002 -0.000002 -0.000000
Al -1.628445 0.881519 -2.768864 -0.000007 0.000005 0.000004
Ga -3.225991 3.664446 2.427954 -0.000001 -0.000008 0.000000
Ga -3.231094 3.651486 7.670658 -0.000003 -0.000001 0.000013
Ga -3.224354 3.644067 -2.745994 -0.000006 -0.000002 0.000009
Ga -0.012929 -1.886267 2.430072 -0.000004 -0.000001 -0.000011
Ga -0.020086 -1.880988 7.666582 -0.000012 -0.000003 -0.000005
Al -0.019265 -1.872865 -2.750558 0.000004 0.000002 -0.000012
Al -0.009364 1.807008 5.039781 0.000002 -0.000005 -0.000009
Ga -0.026462 1.801035 -5.321209 0.000005 0.000002 -0.000004
Ga -0.021197 1.809355 -0.164547 0.000002 -0.000010 -0.000007
Ga 3.191596 -3.740807 5.036579 0.000007 0.000003 0.000010
Ga 3.184882 -3.738490 -5.321415 0.000005 0.000001 0.000012
Ga 3.181008 -3.736822 -0.153169 0.000003 -0.000006 0.000010
Ga 1.581436 -0.943152 5.042816 0.000000 -0.000003 -0.000004
Al 1.562149 -0.957644 -5.335357 0.000004 -0.000001 -0.000014
Al 1.565675 -0.969761 -0.149521 0.000002 -0.000004 -0.000003
Ga 3.160079 1.801748 5.057492 0.000003 -0.000001 0.000008
Ga 3.174131 1.809707 -5.345693 0.000006 -0.000002 -0.000004
Ga 3.182574 1.801145 -0.153937 0.000006 -0.000003 0.000012
Ga 6.374447 -3.740020 5.044042 0.000005 -0.000006 0.000002
Al 6.387875 -3.739284 -5.335273 -0.000003 -0.000004 0.000004
Ga 6.377838 -3.743116 -0.144159 -0.000000 -0.000005 0.000003
Al 4.781197 -0.966617 5.058012 0.000003 0.000003 -0.000001
Ga 4.786416 -0.960948 -5.320768 0.000007 -0.000001 0.000011
Ga 4.772921 -0.954900 -0.172688 0.000001 -0.000003 0.000008
Ga -3.218215 1.803574 5.046123 0.000012 0.000007 0.000001
Al -3.221711 1.793457 -5.313562 0.000004 -0.000010 -0.000002
Ga -3.230163 1.805400 -0.168173 0.000006 -0.000004 0.000003
Ga -0.025738 -3.739079 5.070896 0.000004 -0.000002 -0.000005
Ga -0.036361 -3.725327 -5.327972 0.000001 -0.000003 -0.000006
Al -0.017882 -3.718711 -0.178576 0.000004 -0.000004 0.000012
Ga -1.628543 -0.956804 5.049776 0.000004 -0.000001 -0.000000
Al -1.616576 -0.961196 -5.312834 0.000008 -0.000001 0.000003
Ga -1.603830 -0.966883 -0.178830 0.000011 -0.000006 0.000012
N 1.536288 0.909310 4.361784 -0.000000 0.000001 0.000002
N 1.570451 0.839542 -5.996593 -0.000005 -0.000005 0.000011
N 1.577798 0.831757 -0.769110 0.000001 0.000001 -0.000002
N -0.020087 3.605021 4.385782 -0.000006 -0.000001 -0.000009
N 0.019925 3.676208 -5.952099 0.000001 -0.000009 -0.000001
N -0.018229 3.659256 -0.844911 -0.000001 0.000003 -0.000014
N 3.218814 -1.860752 4.429421 -0.000002 -0.000004 0.000001
N 3.136386 -1.861834 -5.940599 -0.000004 -0.000009 -0.000002
N 3.129251 -1.863952 -0.760220 0.000007 0.000005 0.000005
N -4.832399 0.837610 4.449521 0.000002 -0.000010 0.000002
N -4.784871 0.907286 -5.950491 -0.000003 -0.000003 -0.000002
N -4.827568 0.890309 -0.849201 0.000002 -0.000003 0.000007
N -6.422670 3.657318 4.408083 0.000002 0.000000 -0.000004
N -6.470611 3.682066 -5.992244 0.000000 -0.000002 0.000004
N -6.390782 3.682231 -0.759813 -0.000003 -0.000000 -0.000007
N -3.268240 -1.863564 4.432903 0.000002 -0.000000 0.000002
N -3.181020 -1.911198 -5.909532 -0.000004 -0.000001 -0.000008
N -3.221891 -1.893495 -0.795589 -0.000003 0.000002 -0.000000
N -1.576095 0.910908 4.431897 -0.000001 -0.000011 0.000004
N -1.664348 0.859842 -5.920434 -0.000004 -0.000001 -0.000000
N -1.624190 0.886350 -0.849367 -0.000003 0.000004 -0.000008
N -3.230768 3.662110 4.407225 -0.000007 -0.000010 0.000000
N -3.227165 3.606069 -5.919734 0.000003 0.000003 -0.000004
N -3.263000 3.679018 -0.766387 0.000002 0.000000 -0.000003
N -0.019726 -1.892018 4.409992 0.000006 0.000000 0.000006
N -0.026744 -1.836853 -5.926171 0.000006 0.000005 0.000009
N 0.025289 -1.905653 -0.815832 -0.000005 0.000010 0.000007
N 0.018838 1.837521 1.826265 0.000003 -0.000000 0.000009
N 0.022555 1.780991 6.974003 0.000002 0.000004 0.000011
N -0.062448 1.831324 -3.340095 0.000001 -0.000004 0.000001
N 3.230502 -3.763176 1.835305 -0.000006 0.000004 -0.000004
N 3.182017 -3.741220 7.020350 -0.000000 0.000002 -0.000006
N 3.219898 -3.759382 -3.346407 0.000005 -0.000002 -0.000002
N 1.576367 -0.914292 1.777099 -0.000004 -0.000005 -0.000004
N 1.576805 -0.910186 7.025006 0.000006 0.000005 0.000008
N 1.534424 -0.984751 -3.419838 0.000006 -0.000002 0.000004
N 3.141082 1.780324 1.829542 -0.000001 -0.000001 -0.000007
N 3.131792 1.833135 7.056471 0.000002 -0.000002 0.000002
N 3.214876 1.786370 -3.362906 -0.000001 -0.000002 0.000004
N 6.334376 -3.762655 1.837392 0.000003 -0.000001 -0.000004
N 6.425751 -3.759715 7.024677 -0.000000 0.000003 0.000002
N 6.342899 -3.768328 -3.417201 0.000003 -0.000000 -0.000001
N 4.780999 -0.958923 1.798064 -0.000002 -0.000002 -0.000009
N 4.787193 -0.968689 6.978064 0.000000 0.000003 -0.000004
N 4.776094 -0.919535 -3.348574 0.000003 0.000005 -0.000002
N -3.226953 1.800709 1.811944 -0.000001 0.000006 -0.000008
N -3.219628 1.807652 7.015575 -0.000002 0.000001 -0.000011
N -3.225219 1.759292 -3.390383 0.000004 0.000006 0.000001
N -0.024360 -3.731579 1.740739 0.000005 0.000015 -0.000010
N -0.064828 -3.760797 7.056930 0.000005 0.000006 0.000001
N -0.026889 -3.687194 -3.351187 -0.000003 0.000006 -0.000005
N -1.623927 -0.960228 1.803452 0.000004 0.000002 -0.000008
N -1.624244 -0.964498 7.021766 0.000000 0.000011 -0.000003
N -1.576241 -0.941020 -3.385915 -0.000005 -0.000008 -0.000002
