108
Energy=-894419.015336 Lattice="9.450263 0.000000 0.000000 -4.728524 8.181888 0.000000 -0.004128 -0.002502 15.204175" Stress="0.000002 -0.000001 -0.000001 -0.000001 -0.000001 -0.000001 -0.000001 -0.000001 0.000004" Properties=species:S:1:pos:R:3:forces:R:3
Al 1.562031 0.882905 2.382744 0.000016 0.000151 -0.000013
Al 1.564716 0.871202 7.453322 0.000043 0.000061 -0.000100
Al 1.552140 0.883004 -2.676103 -0.000079 -0.000112 0.000021
Al -0.018541 3.603407 2.372378 0.000155 -0.000055 0.000138
Al -0.026325 3.606761 7.452682 0.000016 0.000022 -0.000030
Al -0.033094 3.586887 -2.670865 -0.000095 -0.000038 0.000073
Al 3.148076 -1.857938 2.403735 -0.000101 0.000036 -0.000095
Al 3.136335 -1.859399 7.447813 0.000116 0.000035 -0.000026
Al 3.137825 -1.857690 -2.697423 0.000068 0.000133 -0.000059
Al -4.754700 0.863946 2.382110 0.000026 0.000090 0.000031
Al -4.755242 0.866047 7.437405 0.000133 0.000067 0.000003
Al -4.748227 0.871661 -2.670986 0.000016 -0.000000 0.000062
Al -6.338964 3.586256 2.388004 0.000100 0.000000 0.000044
Al -6.330392 3.588158 7.427395 -0.000018 0.000069 -0.000034
Al -6.318456 3.584515 -2.657598 0.000141 0.000067 0.000022
Al -3.183559 -1.859695 2.378851 -0.000018 -0.000073 0.000093
Al -3.190032 -1.862514 7.439512 0.000038 -0.000002 0.000041
Ga -3.186347 -1.849706 -2.658779 -0.000031 0.000082 0.000033
Al -1.605586 0.871384 2.377437 0.000106 -0.000089 0.000051
Ga -1.612511 0.877238 7.469799 0.000134 -0.000044 0.000011
Al -1.596161 0.887772 -2.685195 0.000006 -0.000042 0.000027
Ga -3.164693 3.589261 2.384884 0.000051 0.000058 0.000029
Al -3.176152 3.592761 7.451317 0.000034 0.000049 0.000045
Al -3.168939 3.591848 -2.681954 0.000114 -0.000037 -0.000055
Ga -0.030011 -1.853568 2.402507 0.000024 -0.000082 -0.000030
Ga -0.019106 -1.865247 7.455411 0.000089 0.000031 0.000000
Ga -0.016486 -1.860142 -2.686937 0.000087 -0.000040 -0.000060
Ga -0.022113 1.781302 4.907668 -0.000060 0.000020 0.000025
Al -0.028458 1.777021 -5.207543 0.000122 0.000120 0.000030
Al -0.029665 1.785741 -0.145106 -0.000068 0.000088 -0.000079
Al 3.129314 -3.667604 4.931605 -0.000058 0.000018 0.000031
Al 3.121296 -3.675567 -5.221965 0.000014 0.000024 -0.000035
Al 3.137446 -3.676960 -0.162121 0.000047 0.000027 -0.000112
Al 1.567946 -0.950535 4.917789 0.000087 0.000158 0.000049
Al 1.561691 -0.948146 -5.214861 0.000095 -0.000224 0.000186
Ga 1.568571 -0.945544 -0.144040 -0.000182 0.000058 -0.000001
Al 3.134583 1.776807 4.916171 -0.000052 -0.000026 -0.000054
Ga 3.135748 1.772990 -5.212692 0.000068 0.000027 0.000064
Al 3.133197 1.786835 -0.148908 0.000037 -0.000028 -0.000055
Al 6.278790 -3.668172 4.911006 0.000015 -0.000010 -0.000036
Ga 6.277610 -3.671496 -5.219585 -0.000014 0.000067 0.000035
Al 6.280556 -3.683056 -0.137929 -0.000043 -0.000076 0.000018
Al 4.703286 -0.949596 4.911211 -0.000062 0.000010 -0.000053
Al 4.702101 -0.942895 -5.233580 -0.000004 -0.000085 0.000092
Al 4.703472 -0.944872 -0.128705 -0.000069 0.000044 0.000044
Al -3.187335 1.775203 4.916436 -0.000030 0.000112 0.000040
Al -3.172272 1.783951 -5.203003 0.000037 0.000095 0.000028
Al -3.173072 1.775000 -0.163199 -0.000036 -0.000008 -0.000086
Al -0.025472 -3.685684 4.927790 0.000008 -0.000007 -0.000008
Al -0.008303 -3.683056 -5.218972 0.000308 0.000352 0.000153
Al -0.026712 -3.690831 -0.149155 0.000017 -0.000074 0.000081
Al -1.614301 -0.953917 4.909046 0.000024 -0.000044 0.000046
Al -1.601535 -0.939891 -5.212929 0.000346 -0.000098 -0.000012
Al -1.608145 -0.935667 -0.133471 -0.000022 -0.000115 -0.000097
N 1.595563 0.849509 4.291404 -0.000033 -0.000065 0.000064
N 1.513983 0.848147 -5.836332 -0.000047 0.000219 0.000015
N 1.549283 0.921465 -0.763454 0.000039 -0.000080 0.000119
N -0.029269 3.649015 4.288172 0.000191 -0.000006 -0.000117
N -0.065814 3.575219 -5.838204 -0.000070 0.000081 0.000093
N -0.023736 3.594683 -0.749960 0.000024 -0.000056 0.000043
N 3.132468 -1.863517 4.319901 -0.000005 -0.000012 -0.000075
N 3.130248 -1.858459 -5.830476 0.000067 -0.000036 0.000010
N 3.177908 -1.878610 -0.784275 -0.000150 -0.000129 -0.000221
N -4.751241 0.868486 4.306037 0.000105 0.000008 -0.000022
N -4.701991 0.851165 -5.850696 -0.000113 0.000014 -0.000024
N -4.748688 0.864625 -0.749999 0.000031 -0.000014 0.000082
N -6.328110 3.594539 4.313467 0.000010 0.000025 0.000005
N -6.282911 3.619406 -5.870457 -0.000173 -0.000126 -0.000163
N -6.324312 3.597618 -0.745947 -0.000043 0.000030 0.000044
N -3.177587 -1.860362 4.301214 0.000002 0.000070 0.000022
N -3.172105 -1.810112 -5.848175 0.000018 -0.000038 -0.000133
N -3.175808 -1.855799 -0.683418 0.000159 0.000032 -0.000099
N -1.643771 0.848925 4.291491 0.000127 0.000026 -0.000204
N -1.600910 0.875465 -5.761103 -0.000154 -0.000056 -0.000028
N -1.594989 0.872730 -0.760617 0.000110 -0.000141 0.000054
N -3.170677 3.598034 4.361908 -0.000060 -0.000053 -0.000005
N -3.171269 3.594558 -5.825864 0.000052 -0.000110 0.000010
N -3.172002 3.599258 -0.756468 0.000042 -0.000091 0.000021
N -0.022312 -1.859496 4.380436 -0.000119 0.000038 -0.000043
N -0.019121 -1.857019 -5.762314 -0.000361 -0.000143 0.000009
N -0.062676 -1.878750 -0.712378 -0.000063 -0.000009 -0.000069
N -0.025077 1.778571 1.783400 -0.000072 0.000020 0.000064
N 0.014922 1.800686 6.877504 -0.000046 0.000034 -0.000016
N -0.019748 1.782603 -3.285774 -0.000036 0.000048 0.000037
N 3.170341 -3.648078 1.751676 -0.000271 0.000219 0.000182
N 3.127298 -3.676567 6.852377 -0.000052 0.000093 0.000000
N 3.130403 -3.677596 -3.293105 -0.000020 0.000041 0.000042
N 1.600221 -0.927241 1.825145 0.000132 -0.000223 0.000009
N 1.597088 -0.925477 6.832767 -0.000125 0.000002 -0.000064
N 1.599083 -0.918766 -3.298337 -0.000017 -0.000052 0.000044
N 3.129778 1.780340 1.773576 0.000035 -0.000043 -0.000007
N 3.124675 1.773865 6.838510 -0.000028 -0.000044 -0.000050
N 3.130679 1.779265 -3.233581 0.000017 0.000131 -0.000105
N 6.281700 -3.679478 1.781921 0.000019 0.000004 0.000014
N 6.273103 -3.676454 6.838261 -0.000007 -0.000001 0.000001
N 6.280595 -3.723240 -3.243819 0.000076 -0.000006 -0.000095
N 4.697586 -0.947017 1.789043 -0.000048 0.000016 0.000051
N 4.699256 -0.949921 6.834299 -0.000090 -0.000012 -0.000030
N 4.665941 -0.918959 -3.318708 -0.000046 -0.000135 -0.000047
N -3.177613 1.731027 1.750904 -0.000031 -0.000036 0.000037
N -3.217092 1.800209 6.826197 -0.000046 -0.000107 -0.000057
N -3.177945 1.781155 -3.277923 -0.000016 -0.000065 0.000063
N -0.062155 -3.703426 1.755694 -0.000144 -0.000074 -0.000002
N -0.021555 -3.726140 6.832732 -0.000031 -0.000030 0.000048
N -0.020945 -3.731338 -3.302869 -0.000298 -0.000030 -0.000006
N -1.639111 -0.923620 1.773903 0.000032 0.000157 0.000060
N -1.642332 -0.968986 6.815065 -0.000130 -0.000018 -0.000065
N -1.604412 -0.901197 -3.311063 -0.000039 -0.000024 -0.000011
