108
Energy=-665539.260596 Lattice="9.472151 0.000000 0.000000 -4.735748 8.204465 0.000000 0.023220 -0.002435 15.201504" Stress="0.000061 0.000033 0.000006 0.000033 0.000084 -0.000001 0.000006 -0.000001 0.000084" Properties=species:S:1:pos:R:3:forces:R:3
Al 1.572856 0.897365 2.437770 -0.001504 -0.011495 -0.008218
Al 1.576326 0.899497 7.458217 -0.001172 -0.012846 -0.005025
Al 1.557324 0.893479 -2.731670 -0.000735 -0.008232 0.002631
Al 0.007687 3.610788 2.438453 -0.001896 -0.001883 -0.006924
Al 0.011755 3.610169 7.457362 -0.002789 -0.000942 -0.002488
Al -0.010172 3.613452 -2.726675 -0.001886 -0.001235 -0.001129
Al 3.180719 -1.882700 2.425834 -0.002256 0.001197 -0.006078
Al 3.183699 -1.880903 7.456549 -0.002329 0.000615 -0.004238
Al 3.159336 -1.879508 -2.718802 0.005582 -0.002595 0.005156
Al -4.767572 0.899353 2.426858 0.000966 -0.011464 -0.005851
Al -4.765993 0.899663 7.458634 0.001761 -0.011845 -0.002413
Al -4.787895 0.900638 -2.721672 0.001277 -0.011988 -0.000577
Al -6.332582 3.610778 2.426191 -0.000157 0.000068 -0.005088
Al -6.329995 3.610764 7.459307 -0.000538 0.000079 -0.000246
Al -6.353303 3.609194 -2.722133 -0.001025 0.000161 0.001840
Al -3.160565 -1.881070 2.425636 0.000178 0.002328 -0.005562
Al -3.159889 -1.880907 7.458027 -0.000612 0.002284 -0.001518
Al -3.183465 -1.878957 -2.722205 -0.000658 0.001730 0.001064
Al -1.640169 0.899810 2.440741 0.013433 -0.007145 -0.008696
Al -1.637269 0.900790 7.457599 0.012389 -0.006886 -0.004736
Al -1.660234 0.900495 -2.726523 0.012478 -0.007071 -0.003932
Al -3.202544 3.611633 2.428627 0.010351 0.004691 -0.005320
Al -3.201643 3.611170 7.457057 0.011695 0.004496 -0.002932
Al -3.223086 3.611201 -2.719416 0.011184 0.004531 -0.000753
Al -0.030963 -1.880839 2.428211 0.009657 0.006714 -0.006623
Ga -0.030425 -1.881463 7.461130 0.013426 0.009311 -0.005257
Ga -0.064897 -1.890318 -2.689628 0.013036 0.009235 -0.002376
Al 0.008432 1.801006 4.948348 -0.010837 -0.006952 -0.005685
Al -0.010394 1.804172 -5.236539 -0.012292 -0.006490 -0.002933
Al -0.006669 1.802474 -0.238958 -0.010704 -0.006858 0.026070
Al 3.180309 -3.689885 4.946696 -0.011216 -0.004459 -0.003166
Ga 3.159437 -3.687015 -5.233846 -0.013537 -0.007874 -0.002365
Al 3.162449 -3.691342 -0.200821 -0.009916 -0.003771 0.019099
Al 1.617794 -0.979793 4.946395 -0.012877 0.006873 -0.005442
Al 1.594154 -0.973391 -5.234759 -0.012267 0.005891 0.007825
Al 1.594231 -0.976424 -0.198268 -0.014892 0.003835 0.014598
Ga 3.141441 1.802049 4.946148 0.000165 -0.002591 -0.001998
Al 3.119838 1.805714 -5.234874 0.001397 -0.001684 -0.000965
Al 3.117891 1.802550 -0.203893 0.001011 -0.001884 0.019896
Ga 6.312113 -3.688106 4.945985 -0.000154 0.000157 -0.000925
Al 6.291204 -3.687349 -5.234923 0.000304 0.000437 -0.000059
Al 6.290656 -3.690111 -0.202597 0.002162 0.001054 0.020563
Al 4.748014 -0.977859 4.944388 -0.001706 0.011606 -0.003277
Al 4.726330 -0.974674 -5.233602 0.000027 0.012151 -0.001499
Al 4.727137 -0.977314 -0.197405 -0.000521 0.010745 0.017529
Al -3.201967 1.803272 4.946455 0.002633 -0.000997 -0.003460
Al -3.223803 1.805484 -5.234807 0.002840 -0.001501 -0.002245
Al -3.219506 1.804282 -0.201818 0.002591 -0.001753 0.019008
Al -0.029577 -3.688369 4.945646 0.002588 0.001433 -0.003498
Al -0.052831 -3.684754 -5.232206 0.002282 -0.001169 0.000460
Al -0.050669 -3.690714 -0.195633 -0.000282 -0.010137 0.023836
Al -1.595479 -0.976579 4.946131 0.001317 0.012761 -0.004689
Al -1.612386 -0.977476 -5.233575 -0.002178 0.014190 -0.001496
Al -1.612728 -0.975095 -0.199986 -0.010244 0.014606 0.022956
N 1.572427 0.895229 4.352242 -0.017498 -0.022526 -0.002879
N 1.553568 0.902394 -5.829732 -0.000349 -0.014429 0.005796
N 1.556237 0.897544 -0.816377 -0.001947 -0.012056 0.008494
N 0.006408 3.610434 4.352604 -0.018859 -0.010313 -0.004955
N -0.008042 3.611321 -5.830814 0.015502 -0.010101 -0.005917
N -0.008819 3.612715 -0.812843 -0.002136 -0.000311 0.003437
N 3.182002 -1.882190 4.347994 -0.002023 0.001407 0.000315
N 3.159907 -1.874855 -5.830448 -0.004003 0.022003 -0.004516
N 3.160069 -1.881547 -0.798363 -0.002148 -0.000519 0.004072
N -4.764001 0.896823 4.347291 0.018571 -0.022134 -0.003888
N -4.788271 0.901835 -5.828751 0.000427 -0.012420 0.003493
N -4.787297 0.900713 -0.800780 0.001452 -0.011990 0.003863
N -6.328581 3.611958 4.342771 0.017133 0.010421 -0.012111
N -6.352156 3.614524 -5.828251 -0.000436 -0.000279 0.001203
N -6.352308 3.610998 -0.801463 -0.001120 -0.003131 0.001813
N -3.160501 -1.877336 4.346472 -0.000674 0.021633 -0.006540
N -3.180560 -1.879183 -5.828834 -0.001200 0.001489 0.000985
N -3.179880 -1.880761 -0.800644 -0.003721 0.002428 0.001338
N -1.639817 0.899357 4.355005 0.012151 -0.007319 0.006815
N -1.658202 0.901999 -5.829333 0.012822 -0.007269 0.005935
N -1.657107 0.900767 -0.811958 0.013465 -0.007383 0.007198
N -3.202072 3.611917 4.349310 0.010945 0.004733 0.003570
N -3.227447 3.613188 -5.830054 -0.003435 -0.002434 -0.002431
N -3.221681 3.612042 -0.799813 0.011368 0.005745 0.003713
N -0.030440 -1.880584 4.349577 0.010280 0.006393 0.002515
N -0.055886 -1.881439 -5.817553 0.014576 0.008497 0.023515
N -0.138977 -1.936158 -0.764721 0.035757 0.022454 0.014940
N 0.005320 1.801556 1.863925 -0.010684 -0.006761 -0.024590
N 0.010977 1.802004 6.863201 -0.010023 -0.006757 0.003775
N -0.009893 1.802520 -3.322579 -0.010209 -0.007006 0.003479
N 3.180733 -3.692223 1.829183 -0.011794 -0.004619 -0.015711
N 3.181877 -3.690005 6.862884 -0.011061 -0.004858 0.003381
N 3.159208 -3.687833 -3.313924 -0.011636 -0.005178 0.024090
N 1.615331 -0.978355 1.828392 -0.013132 0.007178 -0.013750
N 1.621499 -0.977106 6.862489 0.001566 0.015369 0.000820
N 1.615128 -0.974724 -3.201569 -0.010267 0.014320 -0.031870
N 3.137231 1.802702 1.829748 0.000288 -0.002527 -0.019177
N 3.141656 1.803594 6.867006 0.000654 -0.001555 0.022879
N 3.120227 1.803102 -3.320259 0.000758 -0.001634 -0.000204
N 6.309377 -3.691573 1.829621 -0.001082 0.000337 -0.018593
N 6.313276 -3.689300 6.866466 0.000754 -0.000202 0.023011
N 6.290434 -3.687576 -3.319696 0.000673 -0.000152 0.000846
N 4.746730 -0.978199 1.824377 -0.002167 0.012307 -0.014522
N 4.748539 -0.977638 6.861781 -0.001116 0.012329 0.003446
N 4.725203 -0.975834 -3.317188 -0.001251 0.012029 0.002184
N -3.201161 1.803599 1.830073 0.001317 -0.001420 -0.019134
N -3.201674 1.803901 6.862642 0.001824 -0.001305 0.000553
N -3.223314 1.804632 -3.318885 0.002092 -0.000932 0.000205
N -0.031413 -3.689276 1.826287 0.002055 -0.000752 -0.016408
N -0.030084 -3.692611 6.861508 0.001501 -0.019551 -0.006258
N -0.052999 -3.693469 -3.314860 0.002966 -0.018971 -0.007685
N -1.594530 -0.975860 1.829213 -0.001141 0.013476 -0.014730
N -1.597684 -0.975880 6.861895 -0.016277 0.022140 -0.003553
N -1.619457 -0.976019 -3.316791 -0.015055 0.022675 -0.005100
