108
Energy=-1.169072e+06 Lattice="9.482591e+00 0.000000e+00 0.000000e+00 -4.745917e+00 8.214010e+00 0.000000e+00 -8.019045e-04 3.123245e-03 1.527959e+01" Stress="1.914078e-04 -3.054449e-04 2.550065e-05 -3.154596e-04 6.154864e-04 1.977816e-04 3.221601e-05 1.982726e-04 -2.044289e-04" Properties=species:S:1:pos:R:3:forces:R:3 Config_type=AlGaN_super3_16_0_25.xyz
Al 1.553733e+00 8.731545e-01 2.410528e+00 1.256147e-04 -4.163447e-04 -4.850711e-04
Al 1.562020e+00 8.679423e-01 7.482668e+00 -9.334908e-04 8.374084e-06 3.555768e-04
Al 1.542700e+00 8.824776e-01 -2.706429e+00 -4.331006e-04 -4.777562e-05 7.879331e-04
Al -2.337359e-02 3.614721e+00 2.377857e+00 2.798038e-05 3.651908e-05 4.880354e-05
Al -2.445270e-02 3.609781e+00 7.486272e+00 -1.643401e-04 -3.364006e-05 -4.329130e-04
Al -1.483691e-02 3.595341e+00 -2.672824e+00 1.136113e-04 -1.168383e-04 1.271901e-04
Al 3.137972e+00 -1.870340e+00 2.399988e+00 -9.296773e-05 -8.575489e-05 -1.515689e-04
Al 3.132168e+00 -1.861846e+00 7.467882e+00 -1.436292e-04 2.589293e-04 2.713033e-04
Al 3.141217e+00 -1.861940e+00 -2.671580e+00 2.001726e-05 -1.971999e-04 -1.254713e-04
Al -4.762626e+00 8.741097e-01 2.380477e+00 2.005006e-04 -5.596674e-05 6.079032e-04
Al -4.783253e+00 8.701006e-01 7.496877e+00 4.999286e-04 -1.016215e-05 2.460032e-04
Ga -4.780260e+00 8.635003e-01 -2.678225e+00 1.609539e-04 -3.842726e-05 3.956659e-05
Al -6.349516e+00 3.618081e+00 2.407735e+00 8.947024e-05 -2.012906e-05 1.199129e-04
Ga -6.350864e+00 3.604323e+00 7.483172e+00 2.248655e-04 1.457131e-04 2.120731e-05
Al -6.354543e+00 3.616016e+00 -2.699379e+00 -5.457888e-04 -2.815424e-04 3.111871e-04
Al -3.184545e+00 -1.873844e+00 2.383884e+00 -3.609947e-04 -2.444555e-04 2.949406e-04
Ga -3.184865e+00 -1.863892e+00 7.511908e+00 2.665102e-05 1.178575e-04 2.228750e-04
Ga -3.186071e+00 -1.874766e+00 -2.700553e+00 1.289685e-04 1.994870e-04 1.807622e-05
Al -1.600312e+00 8.814751e-01 2.376135e+00 -1.788617e-05 2.381009e-04 8.203771e-04
Al -1.588662e+00 8.733335e-01 7.507448e+00 1.713589e-04 9.564052e-05 1.708880e-05
Al -1.577367e+00 8.767854e-01 -2.687638e+00 2.052121e-05 -5.784368e-05 6.082109e-05
Al -3.183872e+00 3.618079e+00 2.380445e+00 4.716767e-05 -2.010946e-04 -1.484352e-04
Ga -3.180694e+00 3.626877e+00 7.482309e+00 1.677087e-04 -5.135404e-06 -2.927680e-05
Ga -3.191574e+00 3.624292e+00 -2.663857e+00 6.182044e-06 -6.293849e-05 -1.228478e-04
Al -1.615941e-02 -1.868877e+00 2.405261e+00 5.357490e-04 -2.211538e-04 2.855394e-04
Al -1.109998e-02 -1.853158e+00 7.486397e+00 1.231653e-04 -5.404018e-04 -3.034218e-04
Al -2.026756e-02 -1.864674e+00 -2.694144e+00 -8.594385e-04 -3.522054e-05 -1.272466e-04
Ga -1.124472e-02 1.798083e+00 4.941372e+00 -2.168186e-04 2.550235e-04 3.755975e-04
Al -1.286949e-02 1.790217e+00 -5.247437e+00 -9.597864e-05 -5.457285e-04 3.245999e-05
Al -2.788858e-02 1.800310e+00 -1.402968e-01 -4.295582e-04 5.160733e-05 6.257848e-05
Al 3.142967e+00 -3.684080e+00 4.920009e+00 -8.060393e-05 1.855115e-04 2.489272e-04
Ga 3.162458e+00 -3.685270e+00 -5.227572e+00 -2.282541e-04 2.307382e-04 3.303761e-04
Al 3.151735e+00 -3.694137e+00 -1.371114e-01 2.026173e-04 3.111684e-04 -3.737740e-05
Al 1.563369e+00 -9.612359e-01 4.938307e+00 -2.536815e-04 1.578349e-04 2.693485e-04
Ga 1.557269e+00 -9.484181e-01 -5.240886e+00 -5.344707e-05 9.533766e-06 1.784662e-04
Ga 1.563028e+00 -9.567954e-01 -1.453594e-01 -1.407441e-04 1.262721e-04 1.749014e-04
Al 3.133204e+00 1.788978e+00 4.922136e+00 3.300329e-04 6.025672e-05 4.144842e-04
Al 3.128514e+00 1.791527e+00 -5.237172e+00 -9.367229e-06 -2.292118e-04 2.641543e-04
Ga 3.129134e+00 1.801724e+00 -1.301197e-01 8.196296e-05 2.375267e-05 -6.157459e-04
Al 6.300078e+00 -3.698756e+00 4.919362e+00 -4.557963e-05 -2.399622e-04 2.107388e-04
Al 6.302050e+00 -3.704945e+00 -5.226188e+00 2.801141e-04 1.045438e-03 -2.680523e-04
Al 6.296097e+00 -3.698858e+00 -1.391125e-01 4.577471e-05 -2.058147e-04 -9.144637e-05
Ga 4.708144e+00 -9.574578e-01 4.930711e+00 -2.142862e-04 2.556014e-04 2.202067e-05
Al 4.712885e+00 -9.527863e-01 -5.253998e+00 -1.665085e-04 2.091620e-04 1.340645e-04
Al 4.718706e+00 -9.650357e-01 -1.144994e-01 -6.189432e-04 -1.963181e-05 -1.034015e-04
Ga -3.193502e+00 1.797141e+00 4.936546e+00 -8.188492e-05 8.294721e-05 2.236102e-04
Ga -3.187343e+00 1.771032e+00 -5.244055e+00 8.162997e-05 -9.324937e-05 1.450518e-04
Al -3.174754e+00 1.791754e+00 -1.280256e-01 -3.666898e-04 -2.403040e-04 1.503109e-04
Al -1.987443e-02 -3.685695e+00 4.913279e+00 -9.235076e-05 8.021604e-05 4.329593e-04
Al -4.586739e-02 -3.681259e+00 -5.230971e+00 5.106368e-04 2.032728e-04 3.478504e-04
Al -2.885347e-02 -3.693057e+00 -1.269993e-01 1.094639e-04 -6.551671e-04 6.453192e-05
Ga -1.588771e+00 -9.638910e-01 4.932259e+00 -3.637486e-04 1.262089e-04 2.378256e-04
Al -1.593598e+00 -9.540629e-01 -5.237229e+00 -4.016697e-04 1.646338e-04 6.370944e-04
Ga -1.604266e+00 -9.503048e-01 -1.361343e-01 -2.858323e-04 1.384440e-04 9.588737e-05
N 1.593198e+00 8.467860e-01 4.322495e+00 -4.628992e-05 -1.546891e-04 9.848626e-05
N 1.560222e+00 9.180575e-01 -5.872607e+00 1.511812e-04 6.497958e-05 -7.100837e-05
N 1.511411e+00 9.012204e-01 -7.921056e-01 4.614623e-04 -1.061520e-04 -3.686719e-04
N -2.634473e-02 3.657839e+00 4.293326e+00 3.155031e-04 -1.874082e-04 -1.560851e-04
N 1.768161e-02 3.588987e+00 -5.876300e+00 5.180151e-05 1.606533e-04 -6.715853e-05
N -2.146970e-02 3.607933e+00 -7.460483e-01 -2.495619e-05 4.916656e-05 -1.845051e-04
N 3.097491e+00 -1.889326e+00 4.310815e+00 -8.378913e-06 8.689589e-06 7.707071e-05
N 3.172251e+00 -1.847182e+00 -5.902426e+00 1.549601e-04 -7.116813e-05 -3.974688e-04
N 3.184662e+00 -1.886851e+00 -7.589832e-01 2.857280e-04 -7.257312e-05 1.419072e-04
N -4.803226e+00 8.959789e-01 4.286587e+00 1.566688e-04 -5.789009e-05 -4.295088e-04
N -4.815404e+00 8.527190e-01 -5.864923e+00 2.356454e-06 1.212037e-04 -8.461867e-05
N -4.728052e+00 8.450487e-01 -7.003805e-01 1.118784e-04 2.173256e-04 2.504635e-04
N -6.347489e+00 3.612302e+00 4.329987e+00 -1.065050e-04 4.018004e-05 7.538172e-05
N -6.347860e+00 3.610189e+00 -5.809587e+00 -3.423554e-04 -2.340465e-04 -1.593173e-04
N -6.347583e+00 3.661407e+00 -7.781437e-01 3.154200e-04 5.239856e-05 3.462778e-04
N -3.182253e+00 -1.912616e+00 4.293481e+00 1.267518e-04 1.404704e-04 -2.226249e-04
N -3.180845e+00 -1.869648e+00 -5.780199e+00 4.076451e-04 -8.515399e-04 3.666847e-05
N -3.226360e+00 -1.889981e+00 -7.183575e-01 2.639645e-04 -3.865556e-07 -1.269448e-04
N -1.602035e+00 8.800737e-01 4.277267e+00 3.561104e-04 -2.886650e-04 -6.177384e-04
N -1.556946e+00 8.489936e-01 -5.860966e+00 1.159684e-04 1.515902e-05 9.136713e-05
N -1.601300e+00 9.223963e-01 -7.657746e-01 7.861505e-04 -8.400862e-05 1.817009e-04
N -3.182882e+00 3.658671e+00 4.303261e+00 -6.161452e-05 4.614277e-05 2.558442e-04
N -3.227321e+00 3.643806e+00 -5.824623e+00 -2.292138e-05 -2.062186e-04 -1.187083e-04
N -3.189617e+00 3.614929e+00 -6.801360e-01 -4.965719e-04 4.738704e-04 1.233315e-05
N 2.440676e-02 -1.886460e+00 4.311877e+00 1.267400e-04 -8.248952e-05 -3.722855e-04
N -6.001807e-02 -1.889836e+00 -5.873347e+00 2.248150e-04 -2.074878e-04 -1.043617e-06
N -2.425421e-02 -1.916157e+00 -7.861880e-01 2.519202e-04 2.258451e-04 -7.714421e-05
N -1.609177e-02 1.786991e+00 1.782521e+00 -1.220697e-04 -1.295374e-05 -1.039681e-04
N -2.170316e-02 1.788687e+00 6.923944e+00 1.887979e-04 -2.070534e-04 -1.408032e-05
N -2.483863e-02 1.791204e+00 -3.317066e+00 -6.729588e-05 2.047138e-04 -3.384333e-04
N 3.144769e+00 -3.687128e+00 1.782130e+00 -6.387459e-07 1.064354e-04 -1.838582e-04
N 3.186859e+00 -3.667816e+00 6.844722e+00 -4.662361e-05 -1.662526e-04 -1.313682e-04
N 3.186824e+00 -3.668597e+00 -3.249750e+00 1.723574e-05 2.878088e-04 -3.956809e-07
N 1.559104e+00 -9.510956e-01 1.833114e+00 2.064604e-05 5.739727e-04 -3.522811e-05
N 1.557651e+00 -9.506139e-01 6.872153e+00 -2.223423e-04 1.989535e-04 -1.193304e-04
N 1.561016e+00 -9.533762e-01 -3.249278e+00 5.426706e-04 -1.619255e-04 -1.701589e-04
N 3.131041e+00 1.792374e+00 1.843309e+00 -4.893969e-04 1.138114e-04 1.447733e-04
N 3.137055e+00 1.739685e+00 6.846952e+00 1.095499e-05 3.301743e-04 -8.415881e-04
N 3.095222e+00 1.808356e+00 -3.314323e+00 3.347653e-04 2.970021e-04 -3.272147e-04
N 6.305984e+00 -3.696294e+00 1.780381e+00 -1.313010e-05 -1.347841e-04 -8.302808e-05
N 6.260758e+00 -3.709789e+00 6.834288e+00 -6.189243e-05 -6.891693e-05 -4.213199e-04
N 6.294310e+00 -3.744837e+00 -3.314281e+00 -3.040306e-04 -9.349581e-05 8.878566e-05
N 4.715912e+00 -9.563085e-01 1.800912e+00 -6.045178e-05 -3.053990e-05 -4.357451e-05
N 4.683261e+00 -9.273796e-01 6.904990e+00 1.193468e-04 -7.996032e-05 -1.785737e-04
N 4.671942e+00 -9.758158e-01 -3.346166e+00 -2.939823e-04 -4.554904e-05 -1.076877e-04
N -3.181873e+00 1.789006e+00 1.788827e+00 6.845238e-05 -1.417283e-04 -9.799802e-05
N -3.184334e+00 1.738311e+00 6.922042e+00 -2.410748e-04 -3.049954e-04 -3.843445e-05
N -3.145927e+00 1.761480e+00 -3.274642e+00 7.863720e-05 2.286898e-05 7.551901e-05
N -2.882738e-02 -3.687715e+00 1.794681e+00 1.202012e-05 -8.057797e-05 -3.043503e-04
N -2.476883e-02 -3.639178e+00 6.826766e+00 5.071438e-07 1.610957e-04 -4.061809e-04
N -6.391280e-02 -3.665227e+00 -3.316564e+00 3.309682e-04 1.832663e-04 -4.760779e-04
N -1.596881e+00 -9.532973e-01 1.841889e+00 -6.564531e-05 2.547930e-04 -3.956778e-04
N -1.562956e+00 -9.269075e-01 6.910221e+00 -9.904940e-05 9.717376e-05 -2.403234e-05
N -1.558835e+00 -9.243280e-01 -3.312052e+00 1.701249e-04 -2.318487e-04 -2.464561e-04
