108
Energy=-2359233.590840 Lattice="9.585201 0.000000 0.000000 -4.808181 8.292002 0.000000 -0.053026 0.110764 15.436732" Stress="-0.000143 0.000010 -0.000011 0.000010 -0.000136 0.000022 -0.000011 0.000023 -0.000169" Properties=species:S:1:pos:R:3:forces:R:3
Al 1.544446 0.951545 2.437522 0.000657 -0.007990 0.001118
Al 1.541387 0.964173 7.555326 -0.000187 -0.006856 -0.000435
Ga 1.595432 0.843480 -2.735185 0.000150 -0.006834 -0.001034
Al -0.038424 3.696958 2.447083 -0.001100 0.000378 -0.000735
Al -0.039780 3.702517 7.558497 -0.000947 -0.001187 0.000178
Ga 0.000992 3.596019 -2.734621 -0.001187 -0.000034 0.001303
Ga 3.174495 -1.826619 2.452607 -0.001160 -0.001615 -0.002767
Ga 3.175628 -1.831352 7.558006 -0.001610 0.000362 -0.000356
Ga 3.213066 -1.945253 -2.729235 0.000443 0.000010 0.002186
Al -4.866627 0.952051 2.461833 0.001795 -0.005380 -0.002952
Ga -4.865655 0.956006 7.564213 0.000001 -0.007901 -0.001144
Ga -4.808046 0.852550 -2.732385 0.000996 -0.007528 -0.000957
Ga -6.458139 3.698380 2.449806 0.000800 -0.000434 -0.002608
Al -6.463011 3.708527 7.566645 -0.000083 -0.000109 -0.000212
Ga -6.400266 3.599008 -2.727980 0.000204 0.000389 0.002492
Ga -3.244374 -1.831404 2.434345 0.000729 -0.002164 0.001672
Al -3.241558 -1.834953 7.558974 -0.000544 0.000593 0.000373
Ga -3.186184 -1.943893 -2.736925 -0.000133 0.001753 0.000012
Ga -1.678685 0.970880 2.454158 0.007823 -0.004804 -0.004380
Ga -1.677814 0.963044 7.564862 0.009298 -0.004202 -0.002881
Ga -1.630298 0.855387 -2.732087 0.007506 -0.004503 -0.002636
Ga -3.274760 3.711055 2.449867 0.008388 0.003130 -0.002789
Ga -3.275241 3.710577 7.569779 0.007215 0.004174 -0.001151
Al -3.219112 3.601034 -2.736317 0.005506 0.002421 -0.000011
Ga -0.055440 -1.823558 2.443332 0.007839 0.003478 -0.001965
Ga -0.065818 -1.826962 7.570409 0.008252 0.004029 -0.001758
Ga -0.000770 -1.937878 -2.732258 0.005765 0.003375 -0.000640
Al -0.039734 1.872137 4.998836 -0.005214 -0.003202 0.001031
Ga 0.010676 1.759973 -5.316335 -0.006261 -0.003598 0.000295
Ga 0.016893 1.759556 -0.157459 -0.009836 0.001334 0.009968
Ga 3.181950 -3.672360 5.006891 -0.006968 -0.002777 -0.001001
Ga 3.223316 -3.782328 -5.304436 -0.005379 -0.002857 0.000249
Ga 3.220770 -3.778290 -0.160472 -0.007806 0.001271 0.010577
Ga 1.580899 -0.907917 5.005967 -0.007710 0.004141 -0.002192
Ga 1.632515 -1.025136 -5.311583 -0.007765 0.005205 -0.001800
Al 1.619117 -1.001394 -0.175482 -0.005349 0.000830 0.015148
Ga 3.126221 1.866499 5.003541 0.000542 -0.002363 0.000905
Ga 3.182569 1.762356 -5.316187 -0.000523 -0.000794 0.001654
Ga 3.180427 1.756025 -0.152458 0.000289 0.004288 0.012643
Ga 6.342398 -3.667789 5.011000 -0.000314 0.000807 0.001837
Ga 6.400898 -3.777117 -5.324028 0.000036 -0.000067 0.001922
Al 6.388328 -3.760821 -0.178397 0.001490 -0.002663 0.017164
Al 4.760675 -0.914046 5.005527 -0.000956 0.006399 0.000576
Ga 4.811610 -1.027801 -5.307399 -0.000192 0.007143 0.000154
Ga 4.809221 -1.028695 -0.159159 -0.004350 0.011113 0.010209
Ga -3.269452 1.871397 5.002734 -0.000287 -0.001210 0.000006
Ga -3.217727 1.767769 -5.299680 0.000645 -0.001524 0.000743
Ga -3.216581 1.764411 -0.169464 -0.001738 0.003059 0.014398
Ga -0.058257 -3.663525 5.013969 0.001349 0.000743 0.000978
Ga -0.002371 -3.776501 -5.301962 -0.000520 0.000345 0.001737
Ga 0.004216 -3.770234 -0.167903 -0.002005 0.002688 0.010367
Ga -1.651302 -0.909350 5.011294 -0.000489 0.007532 -0.001093
Ga -1.597440 -1.023214 -5.308667 -0.000983 0.007653 -0.000559
Ga -1.593307 -1.029735 -0.164795 -0.001643 0.011686 0.009531
N 1.522559 0.965802 4.372152 -0.008931 -0.002334 -0.007284
N 1.594375 0.845708 -5.951944 0.000369 -0.007977 -0.010758
N 1.594949 0.825565 -0.779750 0.000245 -0.014810 0.005140
N -0.044171 3.682460 4.378502 -0.000929 -0.010742 -0.008976
N 0.002863 3.593545 -5.947835 -0.001500 0.000540 -0.012411
N 0.019362 3.608562 -0.774418 0.008146 0.005576 0.002271
N 3.187961 -1.820613 4.407253 0.007985 0.004963 0.003392
N 3.221073 -1.944050 -5.922385 -0.001140 0.000097 -0.001215
N 3.195166 -1.926661 -0.763305 -0.011223 0.006770 0.001259
N -4.862761 0.932202 4.386912 0.000801 -0.016158 -0.006710
N -4.808070 0.845913 -5.918994 0.001155 -0.007438 0.000938
N -4.809513 0.845782 -0.779878 -0.000176 -0.006218 0.000777
N -6.455680 3.708624 4.399284 0.000126 0.000088 -0.000377
N -6.399818 3.598102 -5.943388 0.000555 0.000525 -0.012168
N -6.421688 3.610330 -0.761004 -0.010589 0.006280 0.001778
N -3.257274 -1.820366 4.396409 -0.008882 0.005306 0.003136
N -3.186928 -1.939810 -5.948524 -0.000180 0.001133 -0.012621
N -3.188202 -1.959963 -0.782195 -0.000464 -0.007828 0.005359
N -1.658530 0.974674 4.406403 0.016376 -0.000497 0.005919
N -1.629260 0.851991 -5.919705 0.007470 -0.004681 0.002484
N -1.626350 0.848436 -0.779947 0.008132 -0.003365 0.003462
N -3.275138 3.713582 4.398587 0.007407 0.003446 0.001477
N -3.221523 3.601151 -5.917479 0.006942 0.003470 0.001136
N -3.219594 3.598381 -0.810189 0.006381 0.004471 -0.008478
N -0.059916 -1.826335 4.397501 0.007041 0.003532 0.000474
N -0.006817 -1.938231 -5.915638 0.007102 0.003378 0.001203
N 0.015080 -1.920560 -0.773257 0.014841 0.008727 0.003384
N -0.023969 1.883893 1.842106 0.004304 -0.004325 -0.001604
N -0.023080 1.881045 6.937419 0.001610 0.002010 -0.003449
N 0.009929 1.759614 -3.356093 -0.006841 -0.003432 -0.000031
N 3.196727 -3.678648 1.845852 0.003019 -0.012735 -0.005269
N 3.192182 -3.682039 6.960104 0.001975 -0.008836 0.005222
N 3.202896 -3.791767 -3.341243 -0.014891 -0.007344 0.003301
N 1.587545 -0.909946 1.831371 -0.008949 0.015330 -0.019986
N 1.579095 -0.891395 6.959405 -0.008152 0.013096 0.006969
N 1.631944 -1.025884 -3.355815 -0.008077 0.004838 0.001701
N 3.136928 1.846410 1.859763 0.001373 -0.015620 -0.005247
N 3.114307 1.881897 6.964816 -0.008029 0.005492 0.006763
N 3.184275 1.762999 -3.353824 0.000140 -0.000287 -0.002109
N 6.336793 -3.692998 1.830998 -0.009545 -0.002602 -0.022895
N 6.347355 -3.666498 6.974658 0.000681 -0.000021 0.010877
N 6.401141 -3.777674 -3.361059 0.000366 -0.000781 -0.001912
N 4.755003 -0.883239 1.836747 0.002502 0.011547 -0.006028
N 4.777952 -0.924666 6.934903 0.008849 0.002714 -0.007057
N 4.809471 -1.027154 -3.350071 -0.001352 0.007798 0.000847
N -3.295172 1.866144 1.849585 -0.005973 -0.009849 -0.010078
N -3.271843 1.874729 6.953003 0.000728 -0.000688 -0.001236
N -3.217248 1.787299 -3.341783 0.000661 0.010134 0.002357
N -0.058188 -3.663458 1.826705 0.002615 -0.003708 -0.010314
N -0.075085 -3.674392 6.966835 -0.008892 -0.005766 0.003356
N 0.015824 -3.785577 -3.338754 0.009577 -0.005249 0.002447
N -1.647100 -0.906001 1.826522 0.000482 0.003723 -0.008224
N -1.667859 -0.923569 6.963868 -0.009802 0.002684 0.004635
N -1.595154 -1.023574 -3.351631 0.000079 0.007889 0.001008
