108
Energy=-1.626827e+06 Lattice="9.539798e+00 0.000000e+00 0.000000e+00 -4.773490e+00 8.257197e+00 0.000000e+00 3.181746e-03 1.188745e-02 1.542045e+01" Stress="1.545492e-04 -1.974548e-04 1.039053e-04 -1.984912e-04 -2.883589e-04 4.265399e-04 1.082553e-04 4.372187e-04 1.782269e-04" Properties=species:S:1:pos:R:3:forces:R:3 Config_type=AlGaN_super3_26_2_33.xyz
Al 1.569137e+00 8.718044e-01 2.440107e+00 -1.326159e-05 2.404183e-05 -7.890509e-05
Al 1.565562e+00 9.060993e-01 7.526745e+00 2.490138e-05 -1.895078e-05 7.459661e-06
Al 1.547399e+00 8.718290e-01 -2.701923e+00 5.255108e-05 7.611556e-06 9.280523e-06
Al -2.608280e-02 3.634997e+00 2.426344e+00 7.823606e-06 5.026698e-06 -3.061538e-05
Al -1.424676e-02 3.611960e+00 7.549103e+00 -6.517051e-06 6.037177e-06 4.118140e-05
Al -3.778795e-02 3.612380e+00 -2.701937e+00 -5.262381e-07 2.588308e-05 -1.027442e-05
Al 3.153294e+00 -1.871538e+00 2.393720e+00 3.198992e-05 2.331842e-05 -1.267796e-05
Ga 3.165436e+00 -1.858014e+00 7.570535e+00 -2.544261e-05 -4.781345e-06 1.329324e-05
Ga 3.145823e+00 -1.879929e+00 -2.692180e+00 -3.540416e-06 4.063907e-06 3.227571e-05
Al -4.801046e+00 8.733305e-01 2.452061e+00 4.082236e-05 1.339198e-05 -9.222837e-06
Al -4.794780e+00 8.936531e-01 7.542706e+00 2.365365e-05 -2.212844e-05 1.773802e-05
Ga -4.792103e+00 8.777188e-01 -2.723107e+00 3.953835e-05 6.415345e-06 -1.642599e-05
Ga -6.381731e+00 3.631717e+00 2.436080e+00 7.204915e-06 3.908543e-05 4.257156e-06
Al -6.377834e+00 3.623376e+00 7.543308e+00 -6.193740e-06 -7.214430e-07 1.171611e-05
Ga -6.377753e+00 3.629883e+00 -2.708269e+00 2.288691e-05 3.172166e-05 -1.568009e-05
Al -3.195201e+00 -1.867425e+00 2.427486e+00 -4.597224e-06 9.833874e-06 -5.733996e-05
Ga -3.191863e+00 -1.857120e+00 7.567522e+00 -3.946820e-06 1.902524e-05 -2.711323e-05
Ga -3.190174e+00 -1.865333e+00 -2.723904e+00 -2.226111e-05 -1.944613e-05 5.699604e-05
Ga -1.605604e+00 8.668099e-01 2.442495e+00 5.438879e-05 2.684812e-05 -2.465449e-06
Al -1.603934e+00 8.861470e-01 7.526422e+00 -8.869218e-06 -1.339412e-05 2.344243e-06
Al -1.598534e+00 8.718655e-01 -2.710852e+00 -5.178735e-06 6.205389e-06 -9.622249e-07
Ga -3.203648e+00 3.643384e+00 2.430781e+00 4.407365e-05 -1.173255e-07 -1.590313e-05
Ga -3.214751e+00 3.624380e+00 7.548329e+00 1.944372e-05 -3.742738e-05 1.642049e-05
Al -3.201362e+00 3.636154e+00 -2.706427e+00 -2.335896e-05 2.308803e-05 2.682800e-05
Al -2.340567e-02 -1.867881e+00 2.408902e+00 -7.098652e-05 9.729534e-05 -3.546882e-05
Ga -3.508478e-02 -1.866201e+00 7.563938e+00 1.338185e-06 -6.820196e-05 -1.155400e-05
Al -2.508360e-02 -1.867552e+00 -2.708543e+00 1.031275e-04 -3.034668e-04 1.963081e-05
Al -2.190819e-02 1.795770e+00 4.991172e+00 -4.093541e-05 -7.755225e-05 -6.610564e-05
Ga -2.917108e-02 1.779456e+00 -5.285545e+00 -6.911824e-05 7.479986e-05 8.104505e-05
Ga -2.419324e-02 1.785785e+00 -1.453796e-01 1.410955e-05 7.169669e-05 -5.863012e-06
Ga 3.158449e+00 -3.718068e+00 4.984801e+00 -2.098653e-05 6.129597e-05 1.797615e-05
Ga 3.158752e+00 -3.716189e+00 -5.273178e+00 -3.652194e-05 3.647501e-05 1.327656e-05
Al 3.147490e+00 -3.710673e+00 -1.419677e-01 2.730570e-05 -1.444907e-05 -3.832450e-06
Ga 1.551351e+00 -9.490355e-01 4.968257e+00 -2.782686e-05 4.580624e-05 -6.478230e-06
Ga 1.555118e+00 -9.583234e-01 -5.276452e+00 -6.825622e-05 4.841295e-05 1.519048e-05
Al 1.546411e+00 -9.671781e-01 -1.339746e-01 7.835660e-06 6.100378e-05 5.362420e-06
Al 3.163344e+00 1.801089e+00 4.997582e+00 -1.313071e-04 -3.348216e-05 -2.644537e-05
Ga 3.158009e+00 1.789570e+00 -5.315008e+00 6.885745e-06 3.590525e-07 4.233386e-06
Ga 3.149057e+00 1.783236e+00 -1.228402e-01 1.226277e-05 -6.369152e-06 1.543927e-05
Ga 6.347719e+00 -3.712915e+00 4.993319e+00 6.023368e-05 3.743305e-05 4.942190e-05
Ga 6.345130e+00 -3.709169e+00 -5.300076e+00 1.587669e-06 -2.949999e-05 -3.369657e-05
Ga 6.332289e+00 -3.703884e+00 -1.274145e-01 6.587175e-06 8.088659e-05 -1.096729e-05
Ga 4.756433e+00 -9.381415e-01 4.965074e+00 -2.638864e-05 -8.209525e-06 -9.817663e-06
Al 4.755900e+00 -9.519974e-01 -5.297397e+00 -3.612716e-05 -3.247007e-05 -3.776670e-05
Ga 4.747519e+00 -9.633400e-01 -1.018849e-01 2.665329e-05 1.813056e-05 -2.756076e-05
Al -3.207642e+00 1.791833e+00 5.000166e+00 3.994321e-05 9.496528e-07 -9.303924e-06
Ga -3.199485e+00 1.779334e+00 -5.294509e+00 2.335992e-05 -3.349158e-05 1.082214e-06
Ga -3.195503e+00 1.802153e+00 -1.492346e-01 -5.520693e-06 4.644110e-05 6.789729e-07
Al -2.907431e-02 -3.703747e+00 4.985893e+00 -4.609532e-06 2.819258e-05 -1.319663e-05
Al -2.851429e-02 -3.705131e+00 -5.274730e+00 8.273723e-06 -1.852698e-05 5.069404e-05
Al -6.187758e-03 -3.684912e+00 -1.524590e-01 1.641832e-04 1.330417e-05 -4.764490e-05
Al -1.602726e+00 -9.497889e-01 4.978976e+00 -3.465009e-05 -1.576602e-04 -1.105855e-04
Al -1.609110e+00 -9.554318e-01 -5.281936e+00 -2.732193e-05 -2.375681e-05 -2.154173e-05
Al -1.591935e+00 -9.665290e-01 -1.421664e-01 -2.148986e-04 -1.800539e-04 -1.910119e-04
N 1.568263e+00 9.319946e-01 4.361789e+00 1.089675e-04 7.440676e-05 9.132711e-05
N 1.559742e+00 8.743318e-01 -5.982254e+00 1.070560e-04 -3.652480e-05 -5.421719e-05
N 1.566552e+00 8.253167e-01 -7.895750e-01 -2.838376e-06 -2.096979e-05 1.269429e-05
N -2.415413e-02 3.584976e+00 4.336470e+00 -3.222367e-05 -4.119952e-07 -1.668080e-07
N -2.743135e-02 3.617880e+00 -5.963294e+00 -1.874683e-05 -2.880215e-05 -4.413460e-06
N -6.781042e-02 3.651524e+00 -7.890549e-01 4.032155e-05 -3.373091e-05 1.403067e-05
N 3.152777e+00 -1.874772e+00 4.304095e+00 1.132088e-05 -3.433408e-05 -1.559905e-05
N 3.194164e+00 -1.854476e+00 -5.877707e+00 -7.115103e-06 -6.140039e-06 1.025002e-05
N 3.115871e+00 -1.893189e+00 -7.039375e-01 4.410407e-05 -4.643471e-05 2.705610e-06
N -4.793446e+00 9.373098e-01 4.363511e+00 2.606501e-05 -3.964146e-05 -1.239189e-05
N -4.791155e+00 8.313500e-01 -5.958106e+00 4.103390e-05 1.476676e-05 3.534752e-05
N -4.794964e+00 8.705990e-01 -7.634010e-01 2.739598e-05 1.821774e-05 -1.429514e-05
N -6.340796e+00 3.608080e+00 4.408820e+00 -5.442146e-06 -2.729488e-05 2.011680e-05
N -6.335861e+00 3.652038e+00 -5.952073e+00 -1.122909e-05 -1.047132e-05 -1.780664e-05
N -6.341662e+00 3.651822e+00 -7.308570e-01 -3.214711e-05 -2.673013e-05 1.486167e-06
N -3.152728e+00 -1.848844e+00 4.339353e+00 4.217022e-05 3.343842e-05 -4.382318e-05
N -3.195166e+00 -1.825750e+00 -5.869944e+00 3.210633e-05 6.841693e-06 2.134304e-05
N -3.161982e+00 -1.845945e+00 -7.467356e-01 1.835570e-04 1.218620e-04 5.845531e-05
N -1.611046e+00 8.829557e-01 4.428070e+00 7.106607e-06 4.939540e-05 3.733262e-05
N -1.610000e+00 8.248795e-01 -5.965793e+00 5.652900e-05 -4.864515e-05 8.223194e-07
N -1.611636e+00 8.229047e-01 -7.936295e-01 2.512760e-05 9.251403e-05 -2.169207e-05
N -3.248463e+00 3.610153e+00 4.411372e+00 2.425859e-05 -9.527451e-05 6.213861e-06
N -3.251427e+00 3.650976e+00 -5.894396e+00 1.885938e-05 -7.793103e-05 -1.949291e-05
N -3.206565e+00 3.679744e+00 -7.797201e-01 -1.155080e-04 3.253001e-05 2.307696e-05
N -6.592038e-02 -1.897486e+00 4.333745e+00 -7.459105e-05 1.729015e-06 6.131000e-05
N -6.851520e-02 -1.902970e+00 -5.875523e+00 2.493842e-05 -5.486225e-05 -6.743504e-07
N -2.447366e-02 -1.872330e+00 -7.735738e-01 1.644317e-05 2.889936e-05 1.706536e-05
N 1.990274e-02 1.817037e+00 1.835495e+00 -1.255591e-05 3.414240e-05 4.976838e-05
N -2.156116e-02 1.802631e+00 6.918789e+00 -1.422872e-05 1.762639e-06 7.121556e-06
N -2.396637e-02 1.791601e+00 -3.288282e+00 -3.314949e-05 6.319662e-06 -3.023290e-06
N 3.199847e+00 -3.693647e+00 1.782336e+00 -2.225313e-05 2.750709e-05 6.435268e-06
N 3.203596e+00 -3.725085e+00 6.956321e+00 -1.297007e-05 1.145942e-05 -2.159991e-05
N 3.160324e+00 -3.759139e+00 -3.294512e+00 1.321496e-05 4.323344e-05 -4.423306e-06
N 1.557981e+00 -9.499850e-01 1.804560e+00 -4.819908e-05 1.527462e-05 -1.177471e-05
N 1.565388e+00 -9.075297e-01 6.944832e+00 -6.664905e-05 1.240612e-05 -7.857322e-07
N 1.524017e+00 -9.337779e-01 -3.295502e+00 -2.198922e-05 3.079252e-05 -1.642238e-05
N 3.154598e+00 1.744376e+00 1.850920e+00 -1.538705e-06 -1.145273e-05 -8.966714e-06
N 3.160749e+00 1.800422e+00 6.930978e+00 -1.158478e-05 -5.425848e-06 -5.421381e-06
N 3.106791e+00 1.768533e+00 -3.335015e+00 -2.117528e-05 -2.288771e-05 1.545675e-05
N 6.297627e+00 -3.684511e+00 1.851690e+00 2.279805e-05 -1.571976e-05 -2.937646e-06
N 6.340547e+00 -3.747034e+00 6.978903e+00 -1.102343e-05 -2.525893e-05 -9.632215e-06
N 6.294188e+00 -3.740346e+00 -3.319578e+00 9.950960e-06 -3.871446e-07 -1.635559e-05
N 4.753088e+00 -9.519125e-01 1.879309e+00 -5.996854e-05 -6.201059e-06 1.291449e-05
N 4.751520e+00 -9.049263e-01 6.936709e+00 -3.489568e-05 -3.305930e-05 1.898839e-06
N 4.741697e+00 -9.611164e-01 -3.389146e+00 -4.310699e-05 5.322520e-06 -1.455903e-05
N -3.241078e+00 1.771989e+00 1.826126e+00 -3.037884e-05 -3.482544e-06 -1.294248e-05
N -3.202822e+00 1.751720e+00 6.921367e+00 -1.051685e-05 -2.345850e-05 5.731531e-06
N -3.155822e+00 1.817525e+00 -3.302561e+00 1.638786e-05 -1.929856e-05 -3.047050e-06
N -1.767254e-02 -3.658564e+00 1.761735e+00 5.606274e-06 -3.071592e-05 -6.336552e-05
N -6.168657e-02 -3.718275e+00 6.894546e+00 -2.028223e-06 -2.654635e-05 3.820888e-06
N 1.975999e-02 -3.684620e+00 -3.346777e+00 -2.570147e-05 1.754715e-04 5.399490e-05
N -1.608234e+00 -9.998117e-01 1.779156e+00 8.324132e-05 -3.410158e-05 2.545958e-04
N -1.608197e+00 -9.087995e-01 6.887974e+00 -4.723571e-06 1.912326e-06 5.548338e-05
N -1.564875e+00 -9.301387e-01 -3.359186e+00 -1.338982e-04 1.160668e-04 -4.836491e-05
