108
Energy=-1.581051e+06 Lattice="9.534367e+00 0.000000e+00 0.000000e+00 -4.773807e+00 8.257906e+00 0.000000e+00 2.805695e-03 1.341929e-03 1.538173e+01" Stress="-4.267067e-04 -4.104972e-04 6.097294e-05 -4.160059e-04 5.014768e-05 4.658711e-05 7.216009e-05 4.164096e-05 -2.747749e-03" Properties=species:S:1:pos:R:3:forces:R:3 Config_type=AlGaN_super3_25_2_21.xyz
Al 1.556664e+00 8.715005e-01 2.402321e+00 4.618618e-04 -2.708190e-04 2.676110e-04
Al 1.550976e+00 8.696015e-01 7.541019e+00 2.220287e-05 2.103360e-05 -1.024417e-04
Al 1.549610e+00 8.717341e-01 -2.702900e+00 2.810516e-04 -2.653476e-04 -5.463746e-04
Al -4.000612e-02 3.623659e+00 2.392016e+00 -9.538928e-04 -6.749921e-04 6.780804e-04
Al -3.236123e-02 3.612645e+00 7.538079e+00 -2.463237e-06 -5.762787e-05 3.976043e-05
Al -3.949808e-02 3.620014e+00 -2.689680e+00 8.351435e-04 9.767785e-06 1.655468e-04
Al 3.147021e+00 -1.880411e+00 2.374956e+00 -2.773501e-04 -3.196748e-04 -2.895104e-05
Al 3.143020e+00 -1.876197e+00 7.548753e+00 -1.152769e-04 1.037573e-04 -3.344077e-05
Ga 3.145351e+00 -1.876670e+00 -2.685769e+00 -8.283364e-05 1.091302e-04 2.551261e-04
Ga -4.793227e+00 8.781879e-01 2.397839e+00 -4.996844e-05 9.827133e-07 6.158192e-05
Ga -4.782489e+00 8.849684e-01 7.545068e+00 1.133866e-04 7.406367e-05 -2.943893e-06
Al -4.782616e+00 8.811673e-01 -2.691325e+00 3.895902e-04 -4.491013e-04 3.443577e-04
Ga -6.394972e+00 3.618965e+00 2.380880e+00 1.850939e-04 -1.544953e-04 5.671140e-05
Ga -6.384846e+00 3.625294e+00 7.558756e+00 -7.349440e-05 3.222983e-05 -7.251226e-05
Ga -6.388388e+00 3.626410e+00 -2.682474e+00 -1.544364e-04 -1.255193e-05 -7.140690e-05
Ga -3.203111e+00 -1.869491e+00 2.382404e+00 2.805884e-05 6.073958e-05 8.653129e-05
Ga -3.203551e+00 -1.877729e+00 7.539732e+00 -7.144469e-05 -5.344442e-05 9.566571e-05
Al -3.195961e+00 -1.865847e+00 -2.667468e+00 -2.195404e-04 -3.709364e-04 -7.121321e-05
Al -1.602808e+00 8.854201e-01 2.421803e+00 7.929312e-04 6.356073e-04 -1.904081e-04
Ga -1.601286e+00 9.057381e-01 7.540512e+00 2.031458e-04 -5.594422e-05 3.607785e-04
Al -1.611753e+00 8.842438e-01 -2.720897e+00 1.240746e-04 2.964491e-05 1.605335e-04
Al -3.174455e+00 3.629922e+00 2.405431e+00 1.214153e-04 2.238276e-04 1.060033e-04
Al -3.187142e+00 3.623523e+00 7.544208e+00 2.245987e-05 -5.498367e-05 9.658265e-05
Al -3.191510e+00 3.621074e+00 -2.699165e+00 9.714091e-05 2.157676e-05 1.723943e-04
Ga -6.832001e-03 -1.848683e+00 2.409291e+00 -8.420643e-05 -3.907709e-05 5.520007e-05
Ga 5.052415e-03 -1.861904e+00 7.531745e+00 6.768043e-05 -5.943959e-05 -5.502765e-05
Al -1.789049e-02 -1.855669e+00 -2.692082e+00 3.147975e-04 3.710790e-04 6.626489e-04
Al -2.599243e-02 1.779986e+00 4.948933e+00 2.098087e-04 4.590916e-04 -8.179884e-05
Al -2.199190e-02 1.790307e+00 -5.256181e+00 -4.506724e-04 -1.504410e-04 -4.517888e-05
Ga -1.779398e-02 1.792237e+00 -1.481152e-01 4.267162e-05 -2.921962e-05 1.666231e-04
Ga 3.157634e+00 -3.714264e+00 4.974427e+00 3.903802e-05 8.599251e-05 -4.122817e-05
Ga 3.155122e+00 -3.725887e+00 -5.282810e+00 2.752351e-05 2.237789e-05 3.107796e-05
Al 3.165549e+00 -3.703354e+00 -1.394161e-01 4.158440e-04 7.917317e-04 3.645592e-04
Al 1.569690e+00 -9.427068e-01 4.963631e+00 5.141450e-04 5.293742e-05 6.640491e-05
Al 1.561093e+00 -9.440910e-01 -5.263844e+00 -2.576877e-05 3.026178e-04 2.658250e-04
Al 1.572605e+00 -9.475576e-01 -1.497453e-01 2.079499e-04 2.100066e-07 5.303099e-04
Ga 3.137064e+00 1.778288e+00 4.981443e+00 -1.881300e-04 -1.139253e-04 1.799514e-05
Ga 3.138559e+00 1.771564e+00 -5.255956e+00 6.867286e-05 -3.323180e-05 -9.124478e-05
Al 3.141436e+00 1.773376e+00 -1.633559e-01 3.678572e-05 -7.646117e-06 3.636601e-04
Ga 6.325869e+00 -3.714815e+00 4.970113e+00 -1.845817e-04 -1.662108e-04 -6.747018e-05
Ga 6.315486e+00 -3.718923e+00 -5.242261e+00 -6.697143e-05 2.956533e-05 1.561501e-04
Al 6.318465e+00 -3.700460e+00 -1.598343e-01 -5.848429e-04 -6.769016e-05 1.131320e-04
Ga 4.737888e+00 -9.588629e-01 4.968450e+00 -2.178531e-04 -7.098498e-05 3.644980e-05
Ga 4.738750e+00 -9.523544e-01 -5.246369e+00 -1.387838e-04 5.088100e-05 2.948596e-04
Al 4.740381e+00 -9.621291e-01 -1.615172e-01 -5.167909e-05 2.838191e-04 6.059410e-05
Al -3.179151e+00 1.795949e+00 4.953462e+00 -7.786488e-05 7.627498e-05 1.443458e-04
Al -3.195155e+00 1.802211e+00 -5.240385e+00 -1.468693e-05 -2.517268e-05 7.361050e-05
Ga -3.196937e+00 1.790861e+00 -1.555929e-01 4.252276e-05 -1.897421e-04 9.081251e-05
Ga -2.610463e-03 -3.707642e+00 4.968091e+00 -1.683866e-06 -1.731176e-04 4.742566e-05
Ga 1.414840e-03 -3.709192e+00 -5.246211e+00 -4.149389e-05 -1.243281e-04 6.355214e-06
Ga -1.017866e-02 -3.695118e+00 -1.567359e-01 9.294395e-05 -1.270863e-05 1.330568e-04
Al -1.600129e+00 -9.317587e-01 4.964825e+00 -7.108696e-05 -4.605978e-05 1.614309e-04
Ga -1.601332e+00 -9.432423e-01 -5.234930e+00 -1.579878e-04 -2.932159e-05 7.433160e-05
Al -1.610705e+00 -9.502671e-01 -1.740399e-01 1.254510e-06 -1.122588e-04 2.390675e-04
N 1.524539e+00 8.505861e-01 4.321851e+00 -3.218789e-05 2.895185e-05 7.715602e-05
N 1.510511e+00 8.504778e-01 -5.910409e+00 1.703414e-04 -1.400059e-04 7.939460e-05
N 1.595705e+00 8.506600e-01 -7.931803e-01 2.425739e-04 8.094813e-05 2.637442e-04
N -3.121565e-02 3.583154e+00 4.309756e+00 2.115015e-04 -3.092399e-04 -1.917286e-04
N -2.534899e-02 3.570633e+00 -5.925941e+00 4.507611e-06 1.155323e-04 -1.634624e-05
N -3.531267e-02 3.672863e+00 -7.747622e-01 1.959112e-04 -1.013360e-04 -1.842290e-04
N 3.112938e+00 -1.856906e+00 4.299353e+00 -3.997574e-04 3.278718e-04 4.529316e-05
N 3.109376e+00 -1.849125e+00 -5.908862e+00 1.303446e-04 -1.751762e-04 -7.546793e-05
N 3.149430e+00 -1.876256e+00 -7.057894e-01 -1.455667e-04 -5.731104e-04 1.165371e-04
N -4.751535e+00 9.027001e-01 4.370910e+00 1.707999e-04 5.120714e-05 -9.485333e-05
N -4.744027e+00 9.040921e-01 -5.860492e+00 1.605047e-04 -5.384711e-05 -1.593598e-04
N -4.827594e+00 8.577756e-01 -7.739920e-01 4.858791e-05 -1.277209e-04 -1.207490e-04
N -6.381994e+00 3.625556e+00 4.349132e+00 -2.850750e-05 9.127745e-05 -1.105973e-04
N -6.383088e+00 3.629530e+00 -5.853252e+00 2.943124e-06 3.735585e-05 -7.165797e-05
N -6.425721e+00 3.606354e+00 -7.094351e-01 2.386520e-04 -9.905427e-05 -2.149955e-05
N -3.154320e+00 -1.849208e+00 4.360148e+00 2.860438e-05 6.193789e-05 -7.860934e-05
N -3.195310e+00 -1.873657e+00 -5.875944e+00 -3.770067e-06 2.402030e-05 -1.505968e-04
N -3.198347e+00 -1.871323e+00 -7.481524e-01 -1.392229e-05 -5.848040e-05 -6.821131e-06
N -1.609431e+00 8.772618e-01 4.349683e+00 7.470848e-05 3.341602e-05 -1.941229e-04
N -1.614950e+00 9.288860e-01 -5.843673e+00 1.860929e-04 9.926755e-05 2.343558e-06
N -1.608887e+00 8.408522e-01 -8.148074e-01 -5.882265e-05 3.716962e-05 -2.239692e-04
N -3.194292e+00 3.586203e+00 4.312851e+00 5.910626e-05 -7.794012e-05 -5.103775e-05
N -3.207635e+00 3.573000e+00 -5.921911e+00 1.486316e-04 -2.841154e-05 1.113196e-05
N -3.154530e+00 3.653983e+00 -7.936686e-01 -2.121012e-04 -2.389699e-04 -4.878580e-04
N -1.739720e-02 -1.821085e+00 4.392049e+00 -1.779233e-04 -1.199870e-05 -7.579202e-05
N 1.715187e-02 -1.849282e+00 -5.871234e+00 -3.277113e-05 2.972231e-05 1.192870e-05
N -1.442889e-02 -1.817999e+00 -7.750556e-01 -1.697505e-05 -1.007078e-04 -2.194438e-04
N -2.166431e-02 1.789423e+00 1.836715e+00 -1.219255e-03 7.814369e-04 3.686077e-04
N 2.248900e-02 1.816245e+00 6.880839e+00 -1.768477e-04 4.180081e-05 -1.289816e-04
N -2.004144e-02 1.800112e+00 -3.322309e+00 5.350374e-05 1.011246e-04 -8.688561e-06
N 3.162112e+00 -3.713115e+00 1.786816e+00 -5.258652e-04 2.424836e-04 -4.253708e-04
N 3.162782e+00 -3.708423e+00 6.976035e+00 -1.224685e-04 7.991435e-05 -6.249781e-05
N 3.160459e+00 -3.756389e+00 -3.302662e+00 -4.642914e-04 3.848007e-05 -4.988788e-05
N 1.605631e+00 -9.258164e-01 1.764603e+00 3.160451e-04 -5.125801e-04 -5.141340e-04
N 1.620411e+00 -9.279646e-01 6.888615e+00 -2.679168e-04 5.543561e-05 -1.138429e-04
N 1.527358e+00 -9.317903e-01 -3.343447e+00 -3.427241e-05 7.093892e-05 -1.327352e-04
N 3.108008e+00 1.761090e+00 1.749040e+00 -5.327262e-05 2.024347e-05 -3.119048e-04
N 3.108886e+00 1.766978e+00 6.954356e+00 -1.588353e-05 -3.898055e-05 1.738346e-07
N 3.150806e+00 1.740849e+00 -3.278493e+00 -6.916528e-04 2.025666e-04 4.047392e-05
N 6.283277e+00 -3.731721e+00 1.751230e+00 9.023695e-04 2.574567e-04 -6.927371e-04
N 6.292757e+00 -3.737110e+00 6.940317e+00 -6.471428e-06 5.002875e-05 -9.183560e-05
N 6.285852e+00 -3.683658e+00 -3.264627e+00 -2.729693e-05 1.951808e-04 1.630041e-04
N 4.703443e+00 -9.781485e-01 1.749828e+00 2.010165e-04 1.880512e-04 -2.462358e-04
N 4.699843e+00 -9.823458e-01 6.942527e+00 -1.493109e-04 -1.948874e-05 -1.032673e-04
N 4.783266e+00 -9.368687e-01 -3.265496e+00 2.554059e-04 2.659340e-05 -8.813650e-05
N -3.153421e+00 1.817111e+00 1.820572e+00 -8.698994e-05 -1.453514e-05 -1.541115e-04
N -3.194487e+00 1.844926e+00 6.869986e+00 3.515595e-05 4.837364e-05 -1.274191e-04
N -3.206058e+00 1.799635e+00 -3.312680e+00 1.543440e-04 -4.038226e-06 4.222989e-05
N 2.974461e-02 -3.726004e+00 1.815482e+00 -1.196303e-05 3.335549e-05 -1.936659e-04
N 2.780154e-02 -3.734799e+00 6.945414e+00 3.188984e-05 4.156969e-05 -8.287188e-05
N 2.462997e-02 -3.682351e+00 -3.262554e+00 1.664856e-04 -3.017617e-04 -8.035255e-05
N -1.606582e+00 -8.994542e-01 1.745295e+00 -1.031103e-04 -3.121180e-04 -4.163445e-04
N -1.606434e+00 -9.453284e-01 6.876463e+00 -1.651426e-04 4.679969e-05 -1.121454e-04
N -1.612360e+00 -9.599458e-01 -3.253164e+00 -3.459118e-04 1.005439e-04 -1.516629e-04
