108
Energy=-1809928.739651 Lattice="9.564872 0.000000 0.000000 -4.795858 8.274581 0.000000 -0.016634 0.023573 15.454269" Stress="-0.000005 -0.000002 -0.000003 -0.000002 -0.000010 0.000005 -0.000004 0.000005 -0.000009" Properties=species:S:1:pos:R:3:forces:R:3
Al 1.572736 0.903842 2.440830 0.001180 -0.001688 -0.000168
Al 1.570072 0.894297 7.571561 0.000746 0.000690 0.001205
Ga 1.568593 0.866298 -2.727357 0.000858 -0.000481 0.000446
Al -0.046868 3.643984 2.443881 0.006893 -0.001675 -0.001889
Al -0.023790 3.658574 7.561224 0.000167 -0.000355 0.001661
Ga -0.019298 3.629260 -2.723980 0.000974 -0.000181 0.001475
Al 3.195002 -1.902694 2.469638 -0.003363 0.009151 -0.018387
Ga 3.172777 -1.864328 7.569642 0.000222 -0.000487 0.001852
Al 3.178009 -1.885385 -2.724887 -0.000153 0.000182 0.002713
Al -4.829374 0.882227 2.425944 -0.000204 -0.001138 -0.000113
Al -4.826621 0.891169 7.574329 -0.000209 0.000543 0.001243
Ga -4.803799 0.871337 -2.721883 0.000962 -0.000116 0.000957
Al -6.420306 3.627856 2.467824 -0.000579 -0.000158 -0.000046
Ga -6.438484 3.643559 7.566430 -0.000045 -0.000328 0.001085
Al -6.406080 3.636255 -2.755713 0.000131 0.000515 0.000903
Ga -3.216810 -1.867515 2.432992 0.000532 0.000249 -0.000043
Al -3.213462 -1.872311 7.567825 0.000297 -0.000582 0.001367
Ga -3.203406 -1.888674 -2.734290 0.000695 -0.000377 0.002070
Al -1.621611 0.888799 2.460773 0.000708 -0.000340 0.000131
Ga -1.644071 0.889025 7.581354 0.001905 -0.000685 0.000095
Al -1.625123 0.875028 -2.759961 0.000365 -0.000715 0.001644
Ga -3.202363 3.643345 2.429025 -0.001119 -0.000175 -0.000260
Ga -3.223814 3.645624 7.589946 0.001003 0.000015 0.000519
Ga -3.216756 3.630511 -2.730204 0.000065 -0.000666 0.000656
Ga -0.020887 -1.852170 2.445989 0.001251 -0.000042 -0.001186
Ga -0.037845 -1.846657 7.600719 0.000973 -0.000408 0.000784
Ga -0.013754 -1.879198 -2.756510 0.000601 -0.000682 0.000649
Ga -0.023272 1.818461 5.001723 -0.001065 -0.000530 0.000771
Ga -0.020527 1.780024 -5.326429 -0.000670 0.001046 0.000888
Ga -0.043615 1.791669 -0.114035 -0.000380 0.000893 -0.001650
Al 3.184838 -3.708714 5.000108 -0.000557 -0.000544 0.002734
Ga 3.179720 -3.727547 -5.303070 -0.000229 -0.000191 0.001531
Al 3.186931 -3.704925 -0.145568 -0.000172 0.001175 0.000253
Ga 1.582154 -0.945531 4.991463 -0.002479 0.001457 0.000304
Al 1.579511 -0.974628 -5.304938 -0.000882 0.000739 0.001203
Ga 1.607660 -0.977672 -0.126573 -0.000601 0.000446 0.002766
Al 3.149386 1.808392 4.995764 0.000309 0.000255 0.001431
Ga 3.171020 1.795215 -5.315942 -0.000370 -0.000276 0.001489
Ga 3.162869 1.803345 -0.130096 0.000491 0.000295 0.001087
Al 6.342890 -3.711991 4.997481 0.001442 0.001348 0.000415
Al 6.378223 -3.718220 -5.322923 -0.000841 0.000013 0.001836
Ga 6.358515 -3.726012 -0.128552 0.000464 0.000449 0.000314
Ga 4.765562 -0.954390 5.004258 0.001026 0.001669 0.001711
Ga 4.782610 -0.970553 -5.321987 -0.000417 0.000384 0.001122
Al 4.752541 -0.970787 -0.137506 -0.001235 -0.000667 0.001819
Ga -3.232380 1.804377 4.991386 -0.000329 -0.000254 0.001104
Al -3.216994 1.786128 -5.306804 -0.000154 0.000325 0.001373
Ga -3.203218 1.786979 -0.128756 -0.001303 0.000160 0.000530
Ga -0.035539 -3.702730 5.003783 -0.000472 -0.000287 -0.000042
Al -0.021917 -3.720466 -5.298928 0.000296 0.000265 -0.000123
Ga -0.023020 -3.724200 -0.141382 -0.000561 0.000130 0.000875
Al -1.627830 -0.949723 5.014380 -0.000642 -0.000066 0.001264
Al -1.610805 -0.972731 -5.307772 -0.000936 -0.000279 0.000717
Ga -1.618219 -0.945771 -0.151439 -0.000944 -0.000186 0.000600
N 1.599616 0.917709 4.353637 0.001151 -0.000107 -0.000745
N 1.577606 0.820451 -5.961107 0.000708 -0.000626 -0.001638
N 1.562907 0.873638 -0.754106 0.000292 0.000216 0.000121
N -0.041621 3.694662 4.367924 0.000770 0.000751 -0.001838
N 0.019445 3.654476 -5.966569 0.000737 0.000352 -0.001707
N -0.062708 3.649476 -0.742706 -0.000816 0.000368 -0.000908
N 3.173400 -1.918765 4.339746 0.000617 -0.002481 0.010982
N 3.136477 -1.868418 -5.917941 -0.000006 0.000108 -0.001209
N 3.213383 -1.902348 -0.787376 0.001134 -0.001538 -0.002304
N -4.863311 0.906734 4.344628 -0.000390 -0.000022 -0.000658
N -4.768435 0.896360 -5.961126 0.001128 -0.000092 -0.001693
N -4.809196 0.832149 -0.738782 0.000749 -0.000205 -0.000769
N -6.456723 3.621909 4.391025 -0.000903 -0.000068 -0.000378
N -6.402990 3.673983 -5.907322 0.000369 0.000817 -0.000806
N -6.408687 3.635824 -0.838112 -0.000131 0.000287 -0.000169
N -3.170801 -1.888346 4.416529 -0.000538 -0.002133 -0.000193
N -3.156513 -1.913389 -5.951206 0.001092 -0.000185 -0.001908
N -3.246168 -1.863419 -0.743870 -0.000446 0.000472 -0.001430
N -1.629733 0.845127 4.375557 0.001730 -0.000282 -0.001077
N -1.663820 0.846421 -5.898009 0.000540 -0.000552 -0.000248
N -1.624706 0.882906 -0.842177 0.001219 0.000087 -0.000600
N -3.179698 3.678531 4.404413 0.000517 0.000548 -0.000534
N -3.253162 3.609512 -5.880384 -0.000299 -0.000596 -0.000485
N -3.177537 3.658350 -0.739093 0.001268 0.000058 -0.000000
N -0.067564 -1.834194 4.412012 0.000711 -0.000866 0.000027
N -0.015029 -1.880289 -5.861139 0.000183 -0.000783 -0.000125
N -0.013640 -1.875350 -0.775265 0.000688 -0.000494 -0.000144
N -0.038295 1.798879 1.875144 0.000382 0.001766 0.002690
N 0.005873 1.830343 6.993129 -0.000362 0.000899 -0.000102
N -0.058242 1.766547 -3.346956 -0.000493 0.000919 -0.001215
N 3.221732 -3.698333 1.782475 -0.001656 0.003128 0.000784
N 3.206245 -3.732175 6.925219 -0.000144 0.000202 -0.002180
N 3.183539 -3.682418 -3.328448 -0.000880 0.000889 -0.000938
N 1.625825 -0.926138 1.864587 0.002892 -0.003790 0.000474
N 1.571672 -0.903841 6.966424 -0.000953 0.000267 -0.001524
N 1.631013 -0.991331 -3.383858 -0.000294 0.000384 -0.001085
N 3.159958 1.815472 1.860013 -0.000584 0.000388 -0.000456
N 3.152742 1.763598 6.935042 0.000112 -0.000866 -0.001922
N 3.165454 1.832166 -3.338553 -0.000253 0.000397 -0.000851
N 6.367127 -3.759247 1.850912 -0.002969 -0.002670 0.002531
N 6.309649 -3.681638 6.925428 -0.000825 0.000521 -0.001521
N 6.399653 -3.746017 -3.394854 0.000029 -0.000303 -0.001983
N 4.721744 -0.931681 1.792279 -0.002384 -0.002317 0.002346
N 4.799707 -0.920963 6.993406 -0.000084 -0.000417 -0.001530
N 4.732345 -0.990820 -3.341862 -0.001332 0.000239 -0.001630
N -3.214070 1.752226 1.859643 -0.000205 -0.000222 -0.000453
N -3.269469 1.789202 6.965486 -0.000850 0.000003 -0.001159
N -3.178906 1.768877 -3.385179 -0.000450 0.000558 -0.001462
N -0.064988 -3.733975 1.845399 -0.000515 -0.000783 -0.000566
N -0.027902 -3.698892 6.968444 -0.000112 -0.000093 -0.000094
N -0.051522 -3.748212 -3.383717 -0.000310 -0.000261 -0.000753
N -1.614160 -0.896230 1.820921 -0.000989 -0.000133 -0.000508
N -1.659561 -0.968846 6.930385 -0.001568 0.000224 -0.000964
N -1.613907 -0.921602 -3.389533 -0.000922 0.000202 -0.001178
