108
Energy=-573990.621682 Lattice="9.414189 0.000000 0.000000 -4.723901 8.140443 0.000000 -0.014802 0.052650 15.185288" Stress="0.000012 -0.000008 -0.000004 -0.000008 -0.000001 0.000012 -0.000004 0.000012 0.000074" Properties=species:S:1:pos:R:3:forces:R:3
Al 1.535297 0.883794 2.387287 0.001375 0.000612 0.000603
Al 1.529320 0.887528 7.442786 0.001310 0.001888 0.001313
Al 1.546559 0.837642 -2.689830 0.001804 0.001971 0.002469
Al -0.034618 3.595372 2.380721 0.000177 0.000963 0.001474
Al -0.039527 3.601766 7.442820 0.000664 0.000107 0.000855
Al -0.026396 3.554074 -2.693628 0.000752 0.000382 0.001337
Al 3.108220 -1.825606 2.405287 0.000444 -0.002243 -0.001450
Al 3.112812 -1.819806 7.443919 0.000851 -0.000840 0.000884
Al 3.120616 -1.873823 -2.704448 0.001663 -0.000229 0.002382
Al -4.736962 0.891914 2.418336 0.000264 -0.001620 -0.005424
Al -4.743799 0.891996 7.444678 0.000746 0.001751 0.000461
Al -4.729172 0.843523 -2.696816 0.000296 0.003227 -0.004813
Al -6.309579 3.602595 2.395062 0.000456 0.000952 -0.001501
Al -6.320496 3.604845 7.436174 0.000699 0.000544 -0.000122
Al -6.305642 3.550535 -2.676937 -0.000557 -0.000511 0.000444
Al -3.165218 -1.827213 2.389359 0.001898 -0.001121 -0.000325
Al -3.167658 -1.818433 7.458614 -0.000020 -0.001094 -0.000090
Al -3.141367 -1.869175 -2.704069 -0.000427 -0.000355 0.001300
Al -1.603484 0.901888 2.378321 -0.000557 -0.001448 0.000498
Al -1.605057 0.903443 7.458387 -0.000123 0.001077 0.000742
Al -1.591819 0.846983 -2.691168 -0.000655 0.000317 0.001799
Al -3.174128 3.610160 2.395889 -0.000463 -0.000808 -0.001389
Al -3.170229 3.609411 7.437701 -0.001669 -0.000873 0.000305
Al -3.156422 3.557942 -2.679216 -0.000408 -0.001894 0.000571
Al -0.015947 -1.816024 2.386998 -0.001207 -0.002143 -0.000995
Al -0.017966 -1.806513 7.450606 -0.000467 -0.003210 0.000136
Al -0.009249 -1.854262 -2.679251 -0.000839 -0.001493 0.000693
Al -0.034325 1.796015 4.913908 0.001534 0.002113 0.002252
Al -0.022045 1.739225 -5.214116 0.001003 0.002175 0.001479
Al -0.025688 1.749480 -0.156583 0.000989 0.001519 0.000344
Al 3.116958 -3.635734 4.921405 0.001633 0.001061 -0.000505
Al 3.138055 -3.687569 -5.220185 0.001080 0.002217 0.001319
Al 3.122548 -3.686309 -0.157630 0.001751 0.004450 0.004283
Al 1.553051 -0.918117 4.923121 0.000050 0.000306 0.000605
Al 1.562655 -0.958672 -5.216523 0.001160 -0.000876 0.001768
Al 1.546962 -0.967072 -0.155594 0.002019 0.002424 0.003982
Al 3.099626 1.793931 4.921993 -0.001323 0.001121 0.000140
Al 3.108202 1.736343 -5.219110 0.000489 0.000603 0.001394
Al 3.098727 1.756540 -0.137937 0.005037 -0.000154 -0.003288
Al 6.246365 -3.637346 4.920164 0.000368 -0.000335 -0.000122
Al 6.258370 -3.684433 -5.217208 0.000312 0.000540 0.000889
Al 6.269730 -3.681183 -0.158669 -0.000960 0.001828 0.003282
Al 4.673202 -0.914243 4.924009 -0.000095 -0.002008 0.001371
Al 4.695836 -0.962956 -5.214463 -0.000794 -0.001732 0.000456
Ga 4.694924 -0.957078 -0.153031 -0.001536 0.002058 -0.004290
Al -3.175132 1.807950 4.923270 -0.000234 0.000310 0.000946
Al -3.153586 1.742551 -5.217117 -0.001887 0.000475 0.001735
Al -3.151863 1.760998 -0.156960 -0.005128 0.000827 0.001687
Al -0.015031 -3.631421 4.922941 -0.001416 -0.000206 0.000151
Ga -0.006662 -3.676687 -5.208765 -0.000792 -0.000341 0.000493
Al -0.008936 -3.673700 -0.160247 -0.001035 0.001164 0.003331
Ga -1.591692 -0.909311 4.925930 -0.001563 -0.001073 -0.000186
Al -1.579181 -0.949168 -5.217455 -0.001895 -0.002794 0.000922
Al -1.570650 -0.956794 -0.155247 -0.002715 0.000529 0.004073
N 1.530194 0.885113 4.317258 0.001574 0.001903 -0.001551
N 1.543243 0.835864 -5.817822 0.000874 0.002221 -0.001589
N 1.541467 0.839826 -0.753769 0.001070 0.002090 -0.001559
N -0.038690 3.600742 4.313476 0.000137 -0.000062 -0.001447
N -0.025166 3.550337 -5.818297 0.000522 -0.000616 -0.000868
N -0.027918 3.559533 -0.763993 0.000463 0.000209 0.000570
N 3.110290 -1.822758 4.326636 0.001339 -0.000191 -0.000837
N 3.126657 -1.871600 -5.816804 0.000483 -0.000486 0.000019
N 3.085426 -1.889956 -0.782505 -0.000968 -0.000652 -0.000882
N -4.742792 0.894574 4.333915 0.000985 0.000272 -0.002014
N -4.729824 0.839755 -5.817392 0.000935 0.002148 -0.000554
N -4.729535 0.902222 -0.815903 -0.001114 0.000976 0.014735
N -6.313747 3.606942 4.320506 0.000406 -0.000251 -0.000047
N -6.340869 3.531884 -5.835879 -0.000016 0.000052 -0.000847
N -6.307145 3.557264 -0.754875 0.000551 0.000512 0.001125
N -3.204171 -1.842611 4.305583 0.000078 0.000189 -0.001115
N -3.150672 -1.869792 -5.808766 0.000854 -0.000249 0.000551
N -3.109727 -1.886162 -0.782886 0.001917 -0.000264 0.000043
N -1.605521 0.946393 4.298366 -0.000891 -0.000451 -0.002516
N -1.590111 0.849415 -5.808930 -0.000004 0.000529 -0.001700
N -1.591947 0.848968 -0.757584 -0.000248 0.000536 -0.001205
N -3.174365 3.612983 4.320959 -0.001160 -0.001769 -0.001024
N -3.120025 3.537906 -5.834691 -0.001325 -0.001777 -0.001536
N -3.157489 3.565502 -0.759342 -0.001927 -0.001194 0.000971
N 0.018358 -1.835482 4.303706 -0.000732 -0.002162 -0.001033
N -0.005329 -1.815584 -5.826895 -0.001315 -0.001861 -0.000700
N -0.011501 -1.855466 -0.758516 -0.001221 -0.002366 0.001200
N -0.030187 1.780709 1.771595 0.000975 0.002684 -0.000253
N -0.037972 1.789371 6.843419 0.000773 0.001707 -0.001339
N -0.022123 1.739779 -3.287731 0.000891 0.001817 -0.000761
N 3.118500 -3.634213 1.790473 0.000875 -0.001927 -0.003782
N 3.117342 -3.634205 6.842148 0.001352 0.002126 -0.001116
N 3.127898 -3.687520 -3.297925 0.001129 0.001451 -0.000579
N 1.551988 -0.919412 1.788543 -0.000283 -0.002138 -0.004662
N 1.546053 -0.915900 6.844515 0.000678 -0.000268 -0.001917
N 1.556507 -0.966138 -3.294096 -0.000000 0.000085 -0.001087
N 3.112591 1.788365 1.791339 -0.001330 -0.001203 -0.000513
N 3.099576 1.793407 6.841576 -0.000043 -0.000129 -0.000572
N 3.113468 1.744775 -3.296856 -0.000976 0.000573 -0.000936
N 6.259786 -3.635804 1.784478 -0.000322 -0.002541 -0.003724
N 6.249899 -3.627591 6.842315 -0.000030 0.000531 -0.000738
N 6.268398 -3.683262 -3.296110 -0.000051 -0.000118 0.000303
N 4.675863 -0.931007 1.810071 0.001526 0.004646 0.008772
N 4.683211 -0.912542 6.848059 -0.000714 -0.001624 -0.001093
N 4.697127 -0.962392 -3.292085 -0.000819 -0.002748 -0.000763
N -3.178032 1.798841 1.786330 0.000282 -0.002254 -0.003196
N -3.171196 1.797791 6.844211 -0.001230 -0.000153 -0.000731
N -3.156825 1.749927 -3.296402 -0.000373 0.000663 -0.000328
N -0.017466 -3.628796 1.787217 -0.000492 -0.001909 -0.004038
N -0.020832 -3.623688 6.847675 -0.000665 0.000195 -0.000233
N -0.007500 -3.675934 -3.231695 -0.000723 0.000276 0.001469
N -1.591843 -0.911792 1.794147 -0.000940 -0.003320 -0.004351
N -1.593281 -0.905213 6.902110 -0.001689 -0.002276 -0.000466
N -1.573527 -0.956781 -3.295690 -0.001132 -0.001538 -0.000228
