108
Energy=-1169071.882796 Lattice="9.484126 0.000000 0.000000 -4.750050 8.214996 0.000000 -0.001831 0.004416 15.277284" Stress="0.000003 -0.000002 -0.000000 -0.000002 0.000003 0.000001 -0.000000 0.000001 -0.000000" Properties=species:S:1:pos:R:3:forces:R:3
Al 1.554594 0.876488 2.410400 -0.000341 -0.001318 -0.000931
Al 1.562593 0.858643 7.483656 -0.001404 0.002784 -0.000037
Al 1.542544 0.882388 -2.704120 -0.000198 0.000057 -0.000264
Al -0.024935 3.614392 2.379747 -0.000168 0.000293 -0.000850
Al -0.028781 3.609245 7.485594 0.001908 0.000139 0.000151
Al -0.019216 3.595815 -2.674652 0.001011 -0.000152 0.000537
Al 3.140922 -1.872071 2.404875 -0.000952 0.000444 -0.002046
Al 3.134629 -1.869775 7.459039 0.000841 0.004091 0.004654
Al 3.143040 -1.860335 -2.671689 0.000576 -0.001024 0.000565
Al -4.764770 0.872453 2.382898 -0.000320 0.000652 -0.000483
Al -4.784311 0.872680 7.492364 0.000432 -0.000224 0.001349
Ga -4.783163 0.863257 -2.678873 0.000275 -0.000056 0.000004
Al -6.353584 3.616977 2.410771 0.000480 0.000217 -0.001155
Ga -6.354000 3.607186 7.480269 -0.000570 -0.000056 0.000723
Al -6.359427 3.613076 -2.701947 0.000218 0.000342 0.000775
Al -3.184386 -1.874571 2.388189 0.000174 0.000001 -0.001069
Ga -3.182768 -1.861632 7.508948 -0.000047 -0.000041 0.000606
Ga -3.185010 -1.876989 -2.702357 0.000262 0.000369 0.000769
Al -1.600352 0.883094 2.375874 -0.000389 -0.000360 0.000098
Al -1.591285 0.876446 7.502817 0.000767 -0.000210 0.001102
Al -1.581539 0.877813 -2.689230 0.000398 -0.000845 -0.000057
Al -3.187052 3.619131 2.384884 0.000006 0.000027 -0.001854
Ga -3.184347 3.630179 7.481799 0.000393 -0.000504 0.000595
Ga -3.194240 3.626028 -2.663498 0.000048 -0.000154 -0.000416
Al -0.018491 -1.869701 2.404839 0.001782 -0.000108 -0.000049
Al -0.009081 -1.859307 7.478363 -0.000835 0.002829 0.004399
Al -0.020609 -1.864519 -2.699940 0.000337 0.000313 0.000389
Ga -0.012084 1.796607 4.936452 -0.000208 0.000563 0.001322
Al -0.011115 1.786348 -5.244473 -0.001868 0.000926 0.000174
Al -0.031094 1.801178 -0.142046 0.000163 -0.000691 -0.000337
Al 3.144975 -3.684157 4.921960 0.000985 -0.000237 -0.000661
Ga 3.165060 -3.686983 -5.226834 -0.000245 0.000704 0.000833
Al 3.154135 -3.693022 -0.135939 -0.000565 0.000002 0.000269
Al 1.566882 -0.960885 4.933693 -0.000868 0.000057 0.000317
Ga 1.558984 -0.947771 -5.235512 -0.000014 -0.000714 0.000661
Ga 1.566252 -0.955765 -0.146441 -0.000449 0.000035 0.001077
Al 3.134502 1.789239 4.924582 -0.000482 0.000144 -0.000111
Al 3.127476 1.791814 -5.240925 0.000574 -0.000492 0.001564
Ga 3.125826 1.801321 -0.130133 0.000061 0.000104 -0.002158
Al 6.303002 -3.699402 4.919647 -0.000085 -0.000070 -0.000284
Al 6.306949 -3.703379 -5.226692 -0.000603 0.000466 -0.000120
Al 6.296183 -3.700953 -0.136497 0.001247 0.000301 -0.000749
Ga 4.711853 -0.957834 4.930523 -0.000069 0.000497 0.000210
Al 4.714779 -0.952857 -5.252892 -0.000402 -0.000367 0.000059
Al 4.720422 -0.963953 -0.112992 0.000335 -0.000853 -0.000548
Ga -3.195000 1.798667 4.934116 -0.000040 0.000111 0.000308
Ga -3.189882 1.771524 -5.245429 0.000131 -0.000216 0.000532
Al -3.181765 1.791099 -0.126814 0.000824 0.000105 0.000094
Al -0.016570 -3.684235 4.912802 -0.000680 0.000266 0.000327
Al -0.044062 -3.682787 -5.230871 0.000220 0.000220 0.000816
Al -0.027733 -3.696047 -0.133787 -0.000724 0.001174 0.002032
Ga -1.586803 -0.962270 4.930114 -0.000777 0.000261 0.000304
Al -1.592828 -0.953267 -5.237463 -0.001439 0.000394 0.000914
Ga -1.598689 -0.950360 -0.139116 -0.001253 -0.000239 0.001041
N 1.592895 0.846674 4.322100 0.000859 0.000405 0.000153
N 1.558350 0.918398 -5.866415 0.000758 -0.001015 -0.002396
N 1.511834 0.899838 -0.798025 -0.000667 0.000871 0.002316
N -0.026023 3.656503 4.291057 -0.000565 0.000531 0.001340
N 0.015664 3.589017 -5.872157 0.000577 -0.000418 -0.001152
N -0.024407 3.609202 -0.745505 -0.000257 -0.000184 -0.000369
N 3.101962 -1.889536 4.311119 -0.000339 -0.000321 0.001204
N 3.171756 -1.847757 -5.895809 0.000597 -0.000140 -0.003680
N 3.186624 -1.886323 -0.758037 0.000771 -0.000307 0.000421
N -4.804817 0.895826 4.287684 -0.000102 0.000234 -0.000519
N -4.816895 0.850880 -5.865074 -0.000183 0.000802 -0.000771
N -4.733796 0.846238 -0.700146 0.000836 -0.000389 0.000211
N -6.349245 3.613098 4.332840 0.000165 -0.000315 -0.000291
N -6.351548 3.609625 -5.809687 0.000248 0.000097 -0.000810
N -6.351276 3.658519 -0.778966 -0.000238 0.000921 0.000038
N -3.180881 -1.911931 4.294781 0.000168 -0.000280 0.000012
N -3.179725 -1.870043 -5.781597 0.000199 -0.000542 0.000124
N -3.221349 -1.891967 -0.718692 -0.001144 0.000623 0.000357
N -1.605166 0.881655 4.274263 0.000762 -0.000380 0.000203
N -1.560228 0.849653 -5.860699 0.000944 0.000216 -0.000488
N -1.604964 0.920931 -0.769451 0.000467 0.001027 0.001683
N -3.184084 3.661300 4.303280 -0.000263 -0.000023 0.001538
N -3.229092 3.644649 -5.823554 -0.000270 -0.000325 -0.000729
N -3.195502 3.616817 -0.679875 0.001185 -0.000400 -0.000022
N 0.024841 -1.884316 4.311239 0.000647 -0.000804 0.000169
N -0.062281 -1.889133 -5.858017 0.001942 -0.000464 -0.005906
N -0.019807 -1.912112 -0.791583 -0.000192 -0.001757 0.000969
N -0.016671 1.787908 1.782768 -0.000196 -0.000025 -0.000539
N -0.022990 1.789599 6.920262 0.000996 -0.001018 0.000379
N -0.025919 1.789222 -3.313246 -0.000295 0.000607 -0.001177
N 3.146812 -3.688722 1.786206 -0.000130 0.000372 -0.000832
N 3.189261 -3.664824 6.847759 -0.000201 -0.002648 -0.002009
N 3.189537 -3.667555 -3.249237 -0.000595 -0.000101 0.000197
N 1.559173 -0.948038 1.838412 0.000580 -0.000584 -0.001269
N 1.560953 -0.956526 6.868664 -0.000490 0.000667 -0.000132
N 1.569047 -0.951506 -3.242471 -0.001889 -0.000634 -0.001751
N 3.127953 1.792316 1.833513 0.000678 0.000194 0.004029
N 3.137478 1.744142 6.845539 -0.000813 -0.001315 0.000080
N 3.094114 1.807044 -3.316694 0.000490 0.000420 -0.000494
N 6.307283 -3.696456 1.783051 0.000251 -0.000414 0.000046
N 6.264633 -3.707091 6.830587 -0.001279 -0.000815 0.000768
N 6.297255 -3.746598 -3.315315 -0.000767 -0.000144 0.000033
N 4.718387 -0.957323 1.804146 -0.000275 0.000074 -0.000316
N 4.687891 -0.924619 6.903878 -0.001228 -0.000973 -0.000431
N 4.673741 -0.977733 -3.344407 0.000367 0.000593 -0.000537
N -3.184665 1.790244 1.792981 0.000129 -0.000482 -0.000915
N -3.186332 1.743173 6.919242 -0.000208 -0.000418 -0.000180
N -3.149019 1.762749 -3.276178 0.000004 0.000066 0.000301
N -0.028359 -3.689410 1.797005 -0.000066 0.000057 -0.001429
N -0.023766 -3.636157 6.829137 0.000309 -0.001661 -0.002142
N -0.062215 -3.666005 -3.319139 -0.000101 -0.000367 0.000599
N -1.595226 -0.953831 1.845202 -0.000906 0.000737 -0.001709
N -1.561719 -0.924240 6.907586 0.000611 -0.000413 0.000122
N -1.558500 -0.925297 -3.314622 -0.000337 0.000605 0.000315
