108
Energy=-2.496561e+06 Lattice="9.650590e+00 0.000000e+00 0.000000e+00 -4.825055e+00 8.357196e+00 0.000000e+00 2.131719e-05 -1.356350e-03 1.565878e+01" Stress="7.874864e-06 4.851808e-06 8.093901e-06 3.485292e-06 8.790200e-06 -3.086464e-05 1.058524e-05 -2.658960e-05 3.505596e-05" Properties=species:S:1:pos:R:3:forces:R:3 Config_type=AlGaN_super3_45_1_12.xyz
Al 1.581131e+00 8.960986e-01 2.455342e+00 -6.443320e-06 4.676714e-05 -7.392719e-06
Al 1.575281e+00 8.885518e-01 7.690217e+00 -3.009415e-05 8.659597e-06 -9.312852e-06
Ga 1.590953e+00 8.904310e-01 -2.759296e+00 -7.451950e-06 1.307593e-05 3.313028e-05
Al -1.795899e-02 3.665133e+00 2.466935e+00 -1.514586e-05 1.561114e-05 -2.892714e-05
Ga -1.843947e-02 3.664118e+00 7.683837e+00 -2.600768e-05 2.182385e-05 -1.002198e-06
Al -2.605900e-02 3.680147e+00 -2.764955e+00 4.350987e-06 4.047007e-06 -1.852851e-05
Ga 3.193845e+00 -1.897132e+00 2.459268e+00 -1.429925e-05 4.322338e-05 -1.869005e-05
Ga 3.204950e+00 -1.888503e+00 7.697251e+00 1.509459e-06 2.393675e-05 1.901231e-05
Al 3.209427e+00 -1.891686e+00 -2.773862e+00 -1.583445e-05 1.549307e-05 -1.305936e-05
Ga -4.858830e+00 8.866445e-01 2.470498e+00 -2.202058e-05 5.823680e-05 -1.446610e-05
Ga -4.844913e+00 8.739512e-01 7.695092e+00 4.362245e-06 1.472988e-05 4.299480e-05
Al -4.854261e+00 8.732387e-01 -2.780698e+00 -2.511275e-05 2.324601e-05 2.002645e-05
Ga -6.474275e+00 3.663430e+00 2.463409e+00 -2.928535e-05 2.613453e-05 1.065290e-05
Ga -6.468673e+00 3.672282e+00 7.683921e+00 -6.291707e-06 2.013896e-05 5.614639e-05
Ga -6.463746e+00 3.665620e+00 -2.757711e+00 4.075136e-06 -2.911913e-06 4.852093e-05
Ga -3.246851e+00 -1.905091e+00 2.456098e+00 -3.527038e-05 4.318417e-05 2.627008e-06
Al -3.244074e+00 -1.887120e+00 7.703291e+00 -2.059458e-05 1.482398e-05 1.074387e-05
Ga -3.263206e+00 -1.893299e+00 -2.773256e+00 -1.701746e-05 9.266226e-06 2.162969e-05
Ga -1.618254e+00 8.957599e-01 2.464409e+00 -3.090395e-05 5.452547e-05 2.480468e-05
Al -1.624512e+00 8.822101e-01 7.683166e+00 -2.846731e-05 1.403423e-05 2.448793e-05
Ga -1.631471e+00 8.982562e-01 -2.758407e+00 -2.828834e-05 -5.247795e-06 4.167665e-05
Ga -3.228229e+00 3.671519e+00 2.455815e+00 -7.350852e-06 1.539798e-05 6.697601e-06
Ga -3.230622e+00 3.666536e+00 7.694373e+00 -9.324402e-06 8.614466e-06 4.497403e-05
Ga -3.227543e+00 3.674044e+00 -2.758396e+00 -3.644578e-05 -8.220329e-06 5.446148e-05
Ga -1.866680e-02 -1.886400e+00 2.473116e+00 -3.038998e-05 1.098836e-05 -2.952051e-07
Ga -2.918514e-02 -1.880185e+00 7.683572e+00 -4.642723e-05 -1.371241e-06 5.597784e-05
Ga -1.350105e-02 -1.892775e+00 -2.763224e+00 -1.910762e-05 -1.295948e-05 3.278443e-05
Ga -1.416882e-02 1.813133e+00 5.073633e+00 2.062051e-05 -1.035530e-05 -9.475009e-06
Ga -2.352873e-02 1.815119e+00 -5.375556e+00 2.091850e-05 6.778704e-06 -7.627800e-06
Ga -1.807387e-02 1.829569e+00 -1.362855e-01 1.337404e-05 4.305729e-05 3.385520e-05
Ga 3.199675e+00 -3.757482e+00 5.067736e+00 4.303183e-06 -8.567173e-06 1.804665e-05
Ga 3.204577e+00 -3.742086e+00 -5.343740e+00 3.207351e-05 2.867442e-06 5.865736e-05
Ga 3.208813e+00 -3.751737e+00 -1.637399e-01 6.246782e-06 8.392073e-06 6.625572e-05
Ga 1.588263e+00 -9.546201e-01 5.079699e+00 9.804761e-06 -2.507381e-05 3.322900e-05
Ga 1.599763e+00 -9.623393e-01 -5.365520e+00 2.722775e-05 -1.080160e-05 3.634362e-05
Ga 1.593133e+00 -9.684090e-01 -1.518771e-01 7.106208e-06 -2.428455e-05 6.260536e-05
Ga 3.180518e+00 1.808309e+00 5.079528e+00 1.450232e-05 -2.713342e-05 2.697120e-05
Ga 3.195205e+00 1.804097e+00 -5.365986e+00 -1.580707e-06 -2.569298e-05 2.043713e-05
Ga 3.199238e+00 1.808627e+00 -1.514879e-01 8.600226e-06 -3.870126e-06 5.111123e-05
Ga 6.402632e+00 -3.750034e+00 5.080348e+00 9.953227e-06 -5.911119e-06 1.350896e-05
Ga 6.401529e+00 -3.741683e+00 -5.366228e+00 -1.065735e-05 -1.249898e-05 2.938413e-05
Ga 6.397590e+00 -3.760636e+00 -1.513808e-01 1.781916e-06 -4.011714e-07 6.343657e-05
Ga 4.806611e+00 -9.731223e-01 5.088686e+00 4.856507e-06 -1.518151e-05 1.224496e-05
Al 4.803296e+00 -9.688077e-01 -5.357125e+00 -4.803448e-07 -1.333514e-05 1.059751e-05
Ga 4.794721e+00 -9.623712e-01 -1.726627e-01 9.667642e-07 -2.952242e-06 6.662153e-05
Ga -3.236986e+00 1.815137e+00 5.091422e+00 1.789528e-05 -2.972677e-05 1.909214e-05
Ga -3.240577e+00 1.803356e+00 -5.365553e+00 2.252846e-05 -1.245735e-05 2.629657e-05
Ga -3.249476e+00 1.810054e+00 -1.625318e-01 1.731395e-05 -1.321547e-05 5.433992e-05
Ga -2.229284e-02 -3.756855e+00 5.077059e+00 1.638480e-05 -2.479194e-05 3.879050e-05
Ga -2.365419e-02 -3.753289e+00 -5.362459e+00 1.508623e-05 -1.730348e-05 2.894540e-05
Ga -2.369707e-02 -3.752288e+00 -1.461506e-01 1.660245e-05 -3.605918e-06 1.006276e-04
Ga -1.641506e+00 -9.673124e-01 5.102226e+00 8.233188e-06 -2.543288e-05 3.219766e-05
Ga -1.646694e+00 -9.617930e-01 -5.388286e+00 1.090525e-05 -7.412626e-06 1.841216e-05
Ga -1.631398e+00 -9.686459e-01 -1.505165e-01 9.413872e-06 -1.184407e-05 7.939504e-05
N 1.583946e+00 8.882734e-01 4.376383e+00 -6.145721e-06 2.173058e-05 9.242254e-06
N 1.584152e+00 8.896631e-01 -6.049258e+00 3.185448e-06 1.549237e-05 5.388222e-07
N 1.582245e+00 8.908314e-01 -7.844867e-01 1.956952e-05 -2.784203e-05 8.425510e-06
N -2.047632e-02 3.669935e+00 4.392486e+00 -1.062402e-05 2.007088e-05 -4.301443e-06
N -2.552526e-02 3.675325e+00 -6.003200e+00 -3.052448e-07 5.479872e-06 -2.153081e-05
N -2.159461e-02 3.669614e+00 -8.470405e-01 5.821945e-06 -3.699754e-05 -1.087350e-05
N 3.193774e+00 -1.894787e+00 4.440339e+00 -2.671136e-06 1.246909e-05 -1.237363e-05
N 3.239792e+00 -1.872813e+00 -5.977467e+00 -1.740333e-05 6.614539e-06 -3.639668e-05
N 3.194257e+00 -1.896087e+00 -8.476910e-01 1.170776e-05 -1.501532e-05 -2.370239e-05
N -4.849485e+00 8.879128e-01 4.452048e+00 -4.966628e-06 1.926797e-05 -2.153346e-05
N -4.848406e+00 8.366869e-01 -5.981223e+00 -7.110918e-06 2.540549e-05 -4.257683e-05
N -4.851175e+00 8.868160e-01 -8.566070e-01 6.349410e-08 -2.716791e-05 -1.822592e-05
N -6.461762e+00 3.671288e+00 4.446941e+00 -4.168226e-06 2.979168e-05 -2.407276e-05
N -6.460671e+00 3.673051e+00 -5.995487e+00 1.592912e-05 1.877255e-05 -2.545282e-05
N -6.459045e+00 3.672804e+00 -7.775052e-01 6.488942e-06 -2.760580e-05 -2.460843e-05
N -3.239364e+00 -1.896160e+00 4.433300e+00 2.048530e-07 2.486292e-05 -1.349878e-05
N -3.289003e+00 -1.871372e+00 -6.026379e+00 1.490496e-05 5.409758e-06 -8.286076e-06
N -3.242240e+00 -1.897966e+00 -7.929903e-01 -2.703802e-06 -1.660096e-05 -2.322208e-05
N -1.630292e+00 8.866795e-01 4.445216e+00 -1.996490e-05 2.026978e-05 -3.782510e-05
N -1.629716e+00 8.939475e-01 -6.056511e+00 -2.307702e-05 7.591372e-07 -1.234568e-06
N -1.625065e+00 8.924422e-01 -7.791935e-01 -1.711579e-05 -2.752131e-05 -1.386065e-05
N -3.238372e+00 3.670228e+00 4.437102e+00 -2.073951e-07 2.983403e-05 -8.429486e-06
N -3.231944e+00 3.675372e+00 -5.984372e+00 -2.487417e-05 1.068978e-05 -2.874042e-05
N -3.236731e+00 3.675935e+00 -7.801669e-01 -1.782755e-05 -2.665219e-05 -2.723513e-05
N -2.604234e-02 -1.891448e+00 4.457009e+00 4.045108e-06 2.980833e-05 -2.816077e-05
N -1.982212e-02 -1.892655e+00 -5.998108e+00 -2.803532e-06 3.909954e-07 -3.815984e-05
N -2.057452e-02 -1.894798e+00 -7.853052e-01 -7.550714e-07 2.224631e-06 -2.842718e-05
N 1.968473e-02 1.845832e+00 1.859608e+00 -9.604547e-06 -4.005441e-05 -4.523220e-05
N -1.977504e-02 1.766256e+00 7.073269e+00 2.334545e-05 3.338366e-06 3.620082e-06
N -2.210795e-02 1.864697e+00 -3.388932e+00 -2.493012e-06 -2.936019e-05 -7.192097e-06
N 3.243511e+00 -3.778071e+00 1.831841e+00 -1.274137e-05 -2.358362e-06 -3.521616e-05
N 3.197337e+00 -3.752619e+00 7.046372e+00 6.565409e-06 -2.315741e-05 -1.344655e-05
N 3.238527e+00 -3.727140e+00 -3.353662e+00 -1.246465e-06 -1.593363e-05 -4.153259e-05
N 1.587471e+00 -9.207228e-01 1.838426e+00 3.258440e-06 -8.300776e-07 -2.124904e-05
N 1.590705e+00 -9.176465e-01 7.068399e+00 2.324296e-05 -1.380324e-05 -2.863945e-05
N 1.630867e+00 -9.886335e-01 -3.381422e+00 -1.985309e-05 -5.737044e-06 -3.292684e-05
N 3.154713e+00 1.788867e+00 1.836648e+00 9.808835e-06 -1.560100e-05 -1.727504e-05
N 3.149282e+00 1.787288e+00 7.069879e+00 -1.387575e-06 -1.303546e-05 -4.060729e-05
N 3.232402e+00 1.791873e+00 -3.383792e+00 -1.388774e-05 -1.512890e-06 -2.671833e-05
N 6.362513e+00 -3.781747e+00 1.836858e+00 3.855353e-05 -6.581841e-06 -3.029913e-05
N 6.406446e+00 -3.700234e+00 7.069297e+00 6.205836e-06 -4.285111e-05 -1.746550e-05
N 6.368727e+00 -3.776162e+00 -3.382179e+00 5.668491e-06 8.843547e-07 -3.073892e-05
N 4.798351e+00 -9.656011e-01 1.808246e+00 2.295998e-05 -2.719143e-05 -5.593663e-05
N 4.845837e+00 -9.948335e-01 7.066119e+00 -3.581510e-06 -2.865877e-05 -3.053430e-05
N 4.760802e+00 -9.450520e-01 -3.422578e+00 4.065110e-05 -2.198356e-05 2.698223e-06
N -3.244470e+00 1.810053e+00 1.819118e+00 1.280722e-05 -3.218568e-06 -3.575726e-05
N -3.198397e+00 1.790740e+00 7.076580e+00 -1.011397e-05 6.610993e-06 -4.572723e-05
N -3.280050e+00 1.791048e+00 -3.379913e+00 3.610510e-05 1.872520e-06 -4.507256e-05
N -2.605175e-02 -3.753473e+00 1.835323e+00 6.987500e-06 5.440732e-06 -8.016356e-05
N -2.115611e-02 -3.755578e+00 7.055749e+00 4.695690e-06 -1.126226e-05 -6.134994e-05
N -2.331870e-02 -3.755904e+00 -3.389150e+00 1.207109e-05 2.202394e-05 -4.400512e-05
N -1.632366e+00 -9.686102e-01 1.826521e+00 2.646349e-05 -2.421368e-05 -7.200288e-05
N -1.680222e+00 -9.459532e-01 7.097211e+00 4.080874e-05 -1.202095e-05 -3.012930e-05
N -1.634782e+00 -9.654310e-01 -3.406278e+00 2.480953e-05 7.596646e-07 -3.655368e-05
