108
Energy=-2.313459e+06 Lattice="9.628946e+00 0.000000e+00 0.000000e+00 -4.817572e+00 8.334882e+00 0.000000e+00 -3.684033e-03 3.902221e-03 1.560777e+01" Stress="6.066863e-05 -7.180455e-05 -3.328459e-04 -8.185488e-05 -1.954084e-05 3.405290e-04 -3.239187e-04 3.502277e-04 -3.641355e-04" Properties=species:S:1:pos:R:3:forces:R:3 Config_type=AlGaN_super3_41_2_11.xyz
Al 1.556673e+00 8.893507e-01 2.429039e+00 4.263751e-04 -3.854959e-04 7.967938e-05
Al 1.571166e+00 8.910122e-01 7.666869e+00 1.746905e-04 -2.151438e-04 -6.432599e-05
Ga 1.569515e+00 8.999799e-01 -2.737746e+00 2.637455e-04 -2.514228e-04 7.501181e-05
Al -3.222714e-02 3.641842e+00 2.431646e+00 2.233257e-04 -3.580545e-04 2.965746e-05
Ga -2.126067e-02 3.652067e+00 7.667577e+00 8.657316e-05 -8.053282e-05 1.614447e-04
Al -1.508026e-02 3.660653e+00 -2.742807e+00 6.809309e-05 -1.394019e-04 -7.448372e-05
Ga 3.173576e+00 -1.902168e+00 2.450740e+00 2.875950e-04 -4.153251e-04 7.542255e-06
Ga 3.180367e+00 -1.885613e+00 7.652466e+00 1.221938e-04 -9.069809e-05 -6.097381e-05
Al 3.199891e+00 -1.901263e+00 -2.737354e+00 9.520978e-05 -1.092525e-04 3.080685e-05
Ga -4.837442e+00 8.931909e-01 2.449601e+00 4.186532e-04 -4.162492e-04 -3.778216e-05
Ga -4.850088e+00 8.892030e-01 7.658628e+00 1.956237e-04 -1.939141e-04 -1.672089e-04
Ga -4.842731e+00 8.800627e-01 -2.739779e+00 2.337370e-04 -2.081001e-04 -1.167559e-04
Ga -6.447020e+00 3.662396e+00 2.449755e+00 2.992786e-04 -3.650870e-04 8.118085e-05
Ga -6.451970e+00 3.660596e+00 7.650313e+00 6.574506e-05 -1.080884e-04 -5.443241e-05
Al -6.456275e+00 3.673170e+00 -2.737027e+00 1.021379e-04 -9.439071e-05 7.163515e-05
Ga -3.218023e+00 -1.893560e+00 2.454295e+00 3.150701e-04 -3.657172e-04 -5.568717e-05
Ga -3.223072e+00 -1.887256e+00 7.648727e+00 6.926830e-05 -1.078343e-04 1.963633e-05
Al -3.238407e+00 -1.908238e+00 -2.737821e+00 1.115134e-04 -6.995421e-05 4.222214e-05
Al -1.607331e+00 8.912207e-01 2.444826e+00 3.494259e-04 -3.660343e-04 1.198163e-05
Ga -1.613306e+00 8.842410e-01 7.647073e+00 2.721548e-04 -2.860520e-04 4.675672e-06
Ga -1.614487e+00 8.953917e-01 -2.733541e+00 3.501343e-04 -2.135998e-04 1.443797e-06
Al -3.222736e+00 3.664407e+00 2.443347e+00 2.874477e-04 -3.591415e-04 -1.242542e-05
Ga -3.233248e+00 3.669453e+00 7.657461e+00 1.698892e-04 -2.085938e-04 -2.705315e-05
Ga -3.231944e+00 3.673945e+00 -2.733053e+00 2.076774e-04 -2.298234e-04 -1.183253e-04
Al -2.167387e-02 -1.880910e+00 2.456365e+00 3.422919e-04 -3.127551e-04 -2.985245e-05
Ga -2.660439e-02 -1.875261e+00 7.644387e+00 2.325830e-04 -2.093570e-04 -3.641915e-06
Ga -2.578940e-02 -1.898169e+00 -2.737791e+00 2.549997e-04 -2.083520e-04 -5.223933e-05
Ga -2.229871e-02 1.803816e+00 5.024462e+00 -4.219561e-05 -1.196310e-05 1.209581e-04
Al -1.728547e-02 1.811259e+00 -5.347336e+00 -7.666424e-05 8.978289e-06 2.048666e-05
Al -2.656318e-02 1.820812e+00 -1.244415e-01 1.728729e-04 -2.737034e-04 2.608395e-04
Ga 3.190819e+00 -3.754455e+00 5.029356e+00 4.869144e-06 -2.540983e-06 -1.071751e-06
Ga 3.200839e+00 -3.751383e+00 -5.316793e+00 -4.705852e-05 9.923636e-05 -6.487297e-05
Ga 3.200115e+00 -3.753958e+00 -1.472351e-01 3.206198e-04 -3.258357e-04 -4.567812e-05
Ga 1.565784e+00 -9.509263e-01 5.038824e+00 -1.291508e-04 3.715803e-05 -8.332670e-05
Ga 1.583093e+00 -9.537753e-01 -5.342980e+00 -1.579921e-04 1.098336e-04 -1.458972e-04
Ga 1.577715e+00 -9.581851e-01 -1.328682e-01 2.291433e-04 -2.920042e-04 -4.486387e-05
Ga 3.167661e+00 1.804066e+00 5.052582e+00 9.083117e-05 -7.049939e-05 -9.025200e-05
Ga 3.167726e+00 1.813140e+00 -5.339698e+00 1.264635e-04 -1.619132e-05 6.409644e-05
Ga 3.168717e+00 1.820542e+00 -1.475571e-01 5.468500e-04 -5.607064e-04 -1.251687e-04
Ga 6.389771e+00 -3.739830e+00 5.038794e+00 3.918508e-05 -5.531181e-05 -3.158440e-05
Ga 6.393952e+00 -3.752585e+00 -5.311855e+00 1.140344e-04 -1.928806e-05 3.082597e-05
Ga 6.385849e+00 -3.753472e+00 -1.673258e-01 4.796065e-04 -4.378906e-04 -5.952677e-05
Ga 4.801993e+00 -9.658763e-01 5.052922e+00 -5.826234e-05 -4.814808e-05 -2.152729e-04
Ga 4.794501e+00 -9.740461e-01 -5.321999e+00 -6.910535e-05 5.484806e-05 -1.035105e-04
Ga 4.790750e+00 -9.723029e-01 -1.592240e-01 4.422467e-04 -4.376894e-04 -1.961142e-04
Ga -3.221431e+00 1.809835e+00 5.026498e+00 3.925695e-05 -1.039044e-04 -6.462135e-06
Ga -3.219332e+00 1.809996e+00 -5.342481e+00 2.385778e-05 -9.754417e-06 -1.743079e-05
Ga -3.220503e+00 1.815954e+00 -1.200262e-01 4.542965e-04 -4.103651e-04 -1.435301e-04
Ga -1.961651e-02 -3.730239e+00 5.025309e+00 1.262394e-04 -5.804715e-05 -1.294179e-05
Ga -2.558010e-02 -3.745185e+00 -5.334455e+00 1.899893e-05 -3.851833e-05 -3.750632e-05
Ga -2.746363e-02 -3.740292e+00 -1.254585e-01 5.332213e-04 -4.450273e-04 -2.412210e-04
Al -1.620526e+00 -9.577485e-01 5.021770e+00 -3.333613e-05 -3.253364e-05 -2.003966e-05
Ga -1.625156e+00 -9.570956e-01 -5.328751e+00 -8.220771e-05 5.299536e-05 -5.753104e-06
Ga -1.626575e+00 -9.550401e-01 -1.354340e-01 4.232114e-04 -3.444320e-04 -3.926568e-05
N 1.577549e+00 8.891261e-01 4.341972e+00 5.012752e-05 2.583235e-06 1.995371e-05
N 1.536835e+00 9.101734e-01 -6.011299e+00 4.453037e-05 -4.595599e-05 3.268163e-06
N 1.528316e+00 9.126305e-01 -7.546485e-01 -2.631938e-04 1.905560e-04 -4.687117e-05
N -2.372903e-02 3.659510e+00 4.349217e+00 9.308944e-06 -6.152997e-05 -3.733485e-05
N -2.068181e-02 3.617276e+00 -5.953836e+00 -4.808129e-05 -9.335245e-05 -1.942753e-05
N -2.656206e-02 3.604611e+00 -8.163578e-01 -2.340325e-04 1.742141e-04 -3.259157e-05
N 3.183885e+00 -1.888887e+00 4.423524e+00 4.114814e-05 -2.633741e-05 1.355983e-04
N 3.188694e+00 -1.896386e+00 -5.975719e+00 4.178845e-05 -8.162461e-05 9.144255e-05
N 3.180519e+00 -1.894507e+00 -8.178283e-01 -2.298655e-04 1.832717e-04 -3.898380e-06
N -4.843842e+00 8.891239e-01 4.421113e+00 8.109734e-05 5.423054e-05 1.114293e-04
N -4.840213e+00 8.840308e-01 -5.966088e+00 2.656384e-05 -2.680764e-06 5.434006e-05
N -4.836174e+00 8.927971e-01 -7.640872e-01 -2.459336e-04 2.480337e-04 5.951894e-05
N -6.446888e+00 3.661749e+00 4.420702e+00 -5.679032e-05 6.590696e-05 2.318443e-05
N -6.447779e+00 3.667081e+00 -5.979805e+00 -1.106833e-04 -4.246433e-06 -4.894176e-05
N -6.440007e+00 3.668667e+00 -8.196669e-01 -3.538361e-04 2.439554e-04 5.552403e-05
N -3.189340e+00 -1.867307e+00 4.431665e+00 5.486944e-05 5.681390e-05 8.618209e-05
N -3.226489e+00 -1.895657e+00 -5.975294e+00 -3.708127e-06 -4.364665e-05 3.379168e-05
N -3.226170e+00 -1.891339e+00 -8.222560e-01 -3.164374e-04 2.203758e-04 1.564650e-05
N -1.623994e+00 8.424860e-01 4.369626e+00 2.195791e-04 -1.021161e-04 1.649682e-05
N -1.581118e+00 9.073298e-01 -5.970169e+00 2.152621e-04 -6.958374e-05 -1.152613e-05
N -1.581905e+00 9.166540e-01 -7.494562e-01 -1.393805e-05 7.244905e-05 2.099608e-05
N -3.234303e+00 3.666551e+00 4.357459e+00 4.420932e-06 -6.789760e-05 -7.064063e-05
N -3.229187e+00 3.669410e+00 -5.970528e+00 3.902913e-05 -6.964632e-05 5.606391e-05
N -3.237762e+00 3.666787e+00 -7.627204e-01 -2.203076e-04 1.372258e-04 8.766128e-05
N -6.317184e-02 -1.862534e+00 4.378636e+00 4.681089e-05 -8.755125e-05 -2.882314e-05
N -2.441461e-02 -1.888440e+00 -5.979695e+00 6.733331e-05 -9.311178e-05 9.681430e-05
N -2.352551e-02 -1.890291e+00 -7.680119e-01 -1.794654e-04 1.690581e-04 1.338272e-05
N -2.479756e-02 1.812202e+00 1.812033e+00 -4.515771e-04 4.553390e-04 -2.171010e-04
N 2.072606e-02 1.789404e+00 7.014541e+00 -1.779191e-04 2.456894e-04 -6.279978e-05
N -2.149422e-02 1.858394e+00 -3.424836e+00 -2.688548e-04 2.928510e-04 -4.714676e-05
N 3.194677e+00 -3.796075e+00 1.841399e+00 -4.505835e-04 6.189867e-04 9.037753e-05
N 3.193421e+00 -3.748887e+00 7.011614e+00 -1.424854e-04 2.049978e-04 -3.179575e-05
N 3.235628e+00 -3.724518e+00 -3.327155e+00 -1.597010e-04 2.628797e-04 4.127862e-05
N 1.542525e+00 -9.468723e-01 1.853327e+00 -5.764662e-04 6.224476e-04 4.881713e-05
N 1.579840e+00 -9.097118e-01 7.031150e+00 -2.525419e-04 3.086853e-04 6.969771e-05
N 1.627916e+00 -9.870171e-01 -3.355193e+00 -2.723117e-04 3.011047e-04 -3.023749e-05
N 3.142624e+00 1.786492e+00 1.828657e+00 -5.873398e-04 5.877850e-04 2.928693e-05
N 3.134716e+00 1.784673e+00 7.040409e+00 -1.410464e-04 1.148507e-04 1.038642e-04
N 3.180762e+00 1.859741e+00 -3.354409e+00 -2.087719e-04 1.913559e-04 -1.052742e-05
N 6.354699e+00 -3.771568e+00 1.819297e+00 -5.026682e-04 5.379149e-04 3.831512e-05
N 6.389316e+00 -3.744589e+00 7.015320e+00 -6.058497e-05 9.987367e-05 -4.780469e-05
N 6.396196e+00 -3.747450e+00 -3.311251e+00 -1.015155e-04 1.600175e-04 -5.289210e-05
N 4.794772e+00 -9.745204e-01 1.813867e+00 -6.443136e-04 6.010620e-04 1.857672e-04
N 4.793229e+00 -9.653969e-01 7.024440e+00 -1.713676e-04 1.513950e-04 9.565500e-05
N 4.794609e+00 -1.018371e+00 -3.331857e+00 -1.954409e-04 1.426505e-04 4.221348e-05
N -3.185200e+00 1.831182e+00 1.865469e+00 -4.748273e-04 5.774502e-04 7.871698e-05
N -3.230081e+00 1.812589e+00 7.013175e+00 -1.352905e-04 2.420642e-04 8.587607e-05
N -3.229092e+00 1.811214e+00 -3.370087e+00 -2.434982e-04 2.558053e-04 1.027549e-04
N 2.059018e-02 -3.720146e+00 1.863173e+00 -4.841906e-04 6.029117e-04 1.503680e-04
N -2.071913e-02 -3.739546e+00 7.008106e+00 -1.214278e-04 1.837200e-04 1.529679e-05
N -6.464811e-02 -3.770204e+00 -3.356163e+00 -1.976667e-04 2.145952e-04 6.470691e-05
N -1.583384e+00 -9.436653e-01 1.849516e+00 -6.196130e-04 5.939899e-04 5.356109e-05
N -1.625642e+00 -9.602061e-01 6.948639e+00 -2.342998e-04 2.637851e-04 -6.066539e-06
N -1.670158e+00 -9.869463e-01 -3.347565e+00 -3.045579e-04 1.960753e-04 2.093189e-05
