108
Energy=-1214847.403049 Lattice="9.488473 0.000000 0.000000 -4.744235 8.216188 0.000000 -0.003629 0.000354 15.295902" Stress="0.000001 -0.000000 -0.000000 -0.000000 0.000001 -0.000001 -0.000001 -0.000001 0.000000" Properties=species:S:1:pos:R:3:forces:R:3
Al 1.563978 0.884596 2.398945 -0.000070 0.000120 0.000175
Al 1.563320 0.882909 7.472349 0.000082 -0.000109 0.000012
Al 1.550294 0.878133 -2.678652 0.000053 0.000017 0.000069
Al -0.027507 3.602707 2.387002 -0.000243 -0.000012 0.000101
Al -0.029310 3.600361 7.483628 0.000034 -0.000019 0.000089
Al -0.025130 3.596591 -2.670701 0.000231 -0.000127 0.000130
Al 3.145213 -1.860232 2.397285 0.000070 -0.000119 -0.000118
Al 3.140397 -1.857191 7.486466 -0.000012 -0.000047 0.000001
Ga 3.149210 -1.855712 -2.685479 -0.000057 0.000008 0.000105
Al -4.790303 0.869397 2.400902 0.000112 -0.000055 0.000043
Al -4.784660 0.874292 7.494686 0.000111 0.000092 -0.000079
Al -4.756853 0.868349 -2.694873 -0.000113 0.000152 0.000084
Al -6.352917 3.590077 2.385507 0.000039 0.000232 -0.000080
Al -6.341176 3.592533 7.490832 -0.000130 -0.000014 0.000126
Ga -6.346516 3.605207 -2.673203 0.000006 0.000027 0.000036
Ga -3.204934 -1.862463 2.406193 0.000020 -0.000072 0.000047
Ga -3.206878 -1.863113 7.483746 -0.000025 0.000023 0.000075
Al -3.205013 -1.859685 -2.676144 -0.000016 0.000148 -0.000094
Al -1.589311 0.885623 2.412038 -0.000032 0.000020 0.000126
Ga -1.596014 0.896870 7.511749 0.000044 -0.000036 0.000126
Al -1.601652 0.898534 -2.710440 0.000012 -0.000205 -0.000022
Ga -3.175775 3.618232 2.410531 0.000046 0.000032 0.000116
Al -3.191463 3.614796 7.486780 0.000137 -0.000155 0.000120
Al -3.181896 3.598428 -2.689576 -0.000167 -0.000019 0.000033
Ga -0.012307 -1.861153 2.417116 0.000064 -0.000107 0.000122
Ga -0.004968 -1.874102 7.488091 -0.000020 0.000039 0.000051
Ga -0.007706 -1.865038 -2.689041 -0.000018 -0.000043 0.000053
Al -0.014351 1.782815 4.929962 -0.000002 0.000044 -0.000246
Al -0.012472 1.783081 -5.234632 -0.000065 0.000115 0.000088
Al -0.009637 1.792917 -0.142738 0.000042 0.000038 0.000112
Al 3.143062 -3.677018 4.957767 -0.000143 -0.000100 -0.000080
Ga 3.133326 -3.696912 -5.256053 -0.000078 0.000027 0.000013
Al 3.147449 -3.685214 -0.152503 -0.000047 -0.000113 0.000096
Al 1.571673 -0.945723 4.939460 -0.000241 -0.000115 -0.000181
Al 1.566903 -0.939702 -5.263694 0.000110 -0.000243 0.000094
Al 1.573646 -0.941247 -0.124851 0.000016 0.000017 0.000195
Al 3.134279 1.778999 4.944937 -0.000055 0.000063 0.000010
Ga 3.140335 1.769034 -5.254524 -0.000008 0.000062 0.000147
Al 3.131546 1.777523 -0.141893 0.000004 -0.000002 -0.000029
Ga 6.301890 -3.707586 4.942300 0.000010 -0.000054 -0.000010
Ga 6.298680 -3.698948 -5.244081 -0.000028 0.000001 0.000013
Al 6.291951 -3.700396 -0.138544 0.000005 -0.000102 0.000218
Al 4.695978 -0.946892 4.943403 -0.000124 0.000173 -0.000022
Al 4.715361 -0.939127 -5.245337 0.000013 0.000047 -0.000025
Al 4.706054 -0.952562 -0.139274 0.000006 0.000080 -0.000007
Ga -3.191909 1.779153 4.945899 -0.000037 -0.000001 0.000107
Al -3.195200 1.792755 -5.241634 0.000171 -0.000001 -0.000070
Ga -3.189891 1.789158 -0.146206 -0.000047 0.000036 0.000134
Al -0.027259 -3.692900 4.956625 -0.000010 -0.000030 -0.000343
Al -0.007868 -3.702854 -5.256227 0.000016 -0.000006 0.000033
Al -0.018588 -3.695478 -0.136406 0.000130 -0.000124 -0.000125
Al -1.594317 -0.943410 4.943454 0.000027 -0.000020 0.000017
Ga -1.601672 -0.947446 -5.217701 -0.000036 -0.000004 0.000105
Ga -1.603163 -0.948811 -0.158487 -0.000057 0.000034 0.000066
N 1.560673 0.876521 4.325870 0.000037 0.000041 -0.000094
N 1.513119 0.853670 -5.901054 0.000058 0.000103 -0.000150
N 1.555078 0.872453 -0.751806 0.000078 -0.000050 -0.000062
N -0.072930 3.589574 4.307431 0.000119 -0.000040 0.000027
N -0.024447 3.557618 -5.901327 0.000001 -0.000060 -0.000130
N -0.022738 3.606768 -0.748817 0.000030 0.000006 -0.000040
N 3.139014 -1.870134 4.325015 0.000011 0.000032 -0.000074
N 3.144698 -1.817835 -5.882944 -0.000125 0.000049 0.000036
N 3.136992 -1.860636 -0.707499 0.000026 0.000070 -0.000125
N -4.816977 0.849055 4.314058 -0.000007 -0.000027 -0.000174
N -4.724889 0.848944 -5.881677 -0.000082 -0.000106 -0.000054
N -4.808229 0.848713 -0.776617 0.000026 -0.000133 -0.000118
N -6.305313 3.582733 4.306982 -0.000018 -0.000160 0.000133
N -6.306002 3.629765 -5.890384 0.000016 -0.000046 -0.000163
N -6.347151 3.611199 -0.693725 -0.000059 0.000061 0.000015
N -3.193298 -1.818418 4.381799 0.000117 -0.000064 -0.000075
N -3.225780 -1.840524 -5.844406 0.000006 0.000032 -0.000064
N -3.236601 -1.890290 -0.757471 -0.000043 0.000051 0.000021
N -1.560514 0.855375 4.322406 -0.000002 -0.000040 -0.000173
N -1.599705 0.924540 -5.804357 -0.000196 0.000027 -0.000041
N -1.559100 0.910382 -0.801062 -0.000048 -0.000056 -0.000116
N -3.182124 3.664786 4.380005 0.000044 0.000061 -0.000061
N -3.223318 3.586625 -5.890355 0.000004 -0.000035 0.000003
N -3.185825 3.658815 -0.770989 -0.000035 0.000093 0.000035
N -0.017438 -1.868147 4.398718 0.000169 0.000155 0.000028
N 0.019643 -1.889873 -5.824398 0.000006 0.000083 -0.000081
N 0.030865 -1.888285 -0.714128 -0.000036 -0.000047 -0.000072
N -0.020553 1.784646 1.783957 0.000023 -0.000021 -0.000089
N 0.017586 1.808944 6.842622 -0.000027 0.000180 0.000266
N -0.009430 1.791916 -3.308335 0.000036 0.000010 -0.000065
N 3.182244 -3.665757 1.764430 -0.000023 0.000158 0.000038
N 3.141196 -3.685851 6.890412 0.000007 0.000007 -0.000032
N 3.144163 -3.739227 -3.271526 -0.000206 0.000153 -0.000122
N 1.601253 -0.922094 1.790978 0.000056 -0.000198 -0.000208
N 1.604063 -0.924742 6.856504 0.000041 0.000051 0.000038
N 1.565989 -0.897220 -3.350019 0.000009 0.000067 -0.000064
N 3.136873 1.780143 1.779998 0.000035 0.000085 -0.000008
N 3.139207 1.784782 6.876528 -0.000009 0.000009 -0.000028
N 3.138301 1.735374 -3.273241 -0.000012 -0.000058 -0.000024
N 6.298508 -3.738674 1.783743 0.000283 0.000026 -0.000259
N 6.303630 -3.745544 6.917042 -0.000042 -0.000025 -0.000020
N 6.259838 -3.671677 -3.262192 0.000022 -0.000067 -0.000016
N 4.677555 -0.925241 1.770724 0.000004 0.000082 0.000169
N 4.670994 -0.922986 6.854468 -0.000022 0.000024 0.000147
N 4.760118 -0.926329 -3.329636 0.000133 -0.000123 0.000150
N -3.187789 1.737516 1.835034 -0.000036 -0.000043 -0.000059
N -3.229752 1.804481 6.917720 -0.000075 0.000016 -0.000058
N -3.192171 1.790796 -3.307851 0.000020 -0.000000 -0.000061
N -0.060035 -3.714237 1.765263 -0.000090 -0.000050 0.000040
N -0.028731 -3.741593 6.864909 -0.000057 0.000043 0.000138
N 0.018987 -3.720726 -3.344063 0.000138 -0.000052 0.000067
N -1.606092 -0.903603 1.809321 0.000029 0.000004 -0.000109
N -1.601964 -0.943064 6.846700 -0.000061 0.000005 -0.000076
N -1.645680 -0.931308 -3.241875 -0.000004 0.000126 0.000054
