108
Energy=-2816990.028558 Lattice="9.700507 0.000000 0.000000 -4.857636 8.390044 0.000000 -0.059114 -0.020799 15.749214" Stress="-0.000000 0.000001 -0.000010 0.000000 0.000004 -0.000002 -0.000010 -0.000002 0.000008" Properties=species:S:1:pos:R:3:forces:R:3
Al 1.554125 0.859513 2.480930 0.000673 0.000075 0.000856
Ga 1.550826 0.884844 7.723191 0.000914 -0.001150 0.000618
Ga 1.616770 0.911374 -2.775538 0.000914 -0.000840 0.000997
Ga -0.055734 3.649117 2.483807 -0.000274 0.001065 -0.000753
Al -0.058808 3.669931 7.720867 0.000421 -0.000274 0.000934
Ga 0.002210 3.704552 -2.771663 0.000339 -0.000154 0.001742
Ga 3.174667 -1.931604 2.488009 0.000382 -0.000633 -0.000616
Ga 3.186408 -1.927470 7.722973 0.000259 -0.000438 0.000614
Ga 3.244177 -1.886572 -2.777755 0.000317 -0.000740 0.000666
Ga -4.923704 0.860058 2.483713 0.000730 -0.000620 -0.001064
Ga -4.913836 0.880393 7.726456 0.000554 -0.000787 0.000039
Ga -4.851766 0.915941 -2.772115 0.000277 -0.000952 -0.000071
Ga -6.536118 3.649652 2.486662 -0.000158 0.000308 -0.000599
Ga -6.536930 3.672742 7.724684 0.000200 -0.000022 0.000168
Ga -6.466711 3.709289 -2.774911 -0.000234 -0.000381 0.000353
Ga -3.288333 -1.935849 2.489928 0.000095 -0.000280 -0.000899
Ga -3.290172 -1.924684 7.727251 0.000481 -0.000555 0.000385
Ga -3.223738 -1.884173 -2.780800 0.000012 -0.000831 0.000181
Ga -1.670276 0.869206 2.476068 0.001337 -0.000750 0.000685
Ga -1.676388 0.892016 7.725619 0.001676 -0.001305 -0.000458
Ga -1.618755 0.918897 -2.777964 0.001231 -0.001130 -0.000606
Ga -3.299882 3.660082 2.490466 0.000894 0.000099 -0.001219
Ga -3.288744 3.677101 7.728429 0.000711 -0.000069 -0.000217
Ga -3.233441 3.714074 -2.778479 0.000647 -0.000488 -0.000245
Ga -0.054708 -1.924666 2.484417 0.001174 -0.000569 -0.000969
Ga -0.054162 -1.913542 7.725112 0.000943 -0.000811 0.000398
Ga 0.008951 -1.878450 -2.773308 0.000777 -0.000971 0.000250
Ga -0.052102 1.800718 5.098949 -0.000869 -0.000108 0.001268
Ga 0.004050 1.839853 -5.411919 -0.001125 0.000988 0.000911
Ga 0.001771 1.836253 -0.140118 -0.000358 0.002027 0.001724
Ga 3.188888 -3.797688 5.117863 -0.001347 0.000369 -0.000060
Ga 3.252762 -3.763025 -5.411625 -0.000694 0.000147 0.000450
Ga 3.246011 -3.738745 -0.146511 -0.002046 -0.002155 0.002059
Ga 1.568017 -0.992936 5.096569 -0.001593 0.001487 -0.000187
Ga 1.630514 -0.964342 -5.399242 -0.001463 0.000928 -0.000172
Ga 1.635001 -0.941540 -0.133714 -0.003206 -0.001207 0.000824
Ga 3.165632 1.796950 5.092524 -0.000466 0.000302 0.001038
Ga 3.233217 1.835152 -5.400413 -0.000344 0.000547 0.000711
Ga 3.231308 1.854428 -0.135805 -0.002644 -0.002028 0.001424
Ga 6.407884 -3.794292 5.117306 0.000368 0.000290 0.000327
Ga 6.468932 -3.761450 -5.412023 -0.000394 -0.000028 0.000736
Ga 6.478273 -3.736824 -0.144921 -0.002583 -0.002430 0.001237
Ga 4.798536 -0.996233 5.108285 -0.000706 0.000774 0.000071
Ga 4.859774 -0.960785 -5.398464 -0.000733 0.000723 -0.000108
Ga 4.863972 -0.942100 -0.148080 -0.002545 -0.001803 0.001458
Ga -3.295676 1.803844 5.102821 -0.000623 0.000108 0.000858
Ga -3.234853 1.838726 -5.401942 -0.000768 0.000429 0.000794
Ga -3.231958 1.860478 -0.154069 -0.003072 -0.001540 0.002896
Ga -0.054766 -3.787777 5.106001 -0.000646 0.000033 0.000453
Ga 0.007173 -3.752432 -5.400731 -0.000656 -0.000084 0.000498
Ga 0.011424 -3.733010 -0.148249 -0.002769 -0.002417 0.001535
Ga -1.669109 -0.991812 5.106247 -0.001136 0.000848 0.000078
Ga -1.606169 -0.957882 -5.401247 -0.001263 0.000708 0.000260
Ga -1.606984 -0.939501 -0.151841 -0.002992 -0.002452 0.002124
N 1.552172 0.869953 4.414447 0.000840 -0.000982 -0.002047
N 1.615632 0.903608 -6.041540 0.001069 -0.000791 -0.000321
N 1.617703 0.918219 -0.788163 0.000494 -0.000507 -0.001166
N -0.060385 3.665299 4.464723 0.000464 -0.000002 -0.000411
N 0.001300 3.698251 -6.096889 0.000360 -0.000331 -0.001759
N 0.001247 3.711496 -0.778060 0.000120 -0.000981 -0.001929
N 3.180492 -1.930995 4.471552 0.000818 -0.000496 0.000056
N 3.242554 -1.892867 -6.041739 0.000556 -0.000468 -0.000193
N 3.243466 -1.873399 -0.791456 -0.000044 -0.001019 0.001063
N -4.914180 0.869985 4.465289 0.001016 -0.000368 -0.000323
N -4.852990 0.906260 -6.039219 0.000798 -0.000521 -0.000420
N -4.852891 0.926265 -0.787538 0.000241 -0.000774 0.000810
N -6.531887 3.668315 4.471917 0.000384 0.000217 -0.000518
N -6.467055 3.700972 -6.039920 0.000331 -0.000008 -0.000483
N -6.465406 3.718571 -0.786905 0.000028 -0.000431 0.000276
N -3.287853 -1.927853 4.473183 0.000695 -0.000393 -0.000258
N -3.226176 -1.890424 -6.038447 0.000571 -0.000340 -0.000194
N -3.224071 -1.873367 -0.797093 -0.000046 -0.000760 0.000822
N -1.680653 0.876250 4.464830 0.001633 -0.000727 -0.000405
N -1.621220 0.910609 -6.040703 0.001465 -0.000951 -0.000182
N -1.620888 0.925787 -0.793743 0.000803 -0.001024 0.001240
N -3.296485 3.671569 4.473220 0.001139 -0.000039 -0.000233
N -3.236086 3.705514 -6.038426 0.000827 -0.000267 -0.000172
N -3.233418 3.725427 -0.795383 0.000341 -0.000722 0.000828
N -0.057730 -1.921852 4.465893 0.001307 -0.000654 -0.000132
N 0.005703 -1.886617 -6.040413 0.001173 -0.000629 -0.000341
N 0.010213 -1.866329 -0.788060 0.000811 -0.001071 0.000964
N -0.010810 1.773738 1.856743 -0.000303 -0.001296 -0.000571
N -0.054082 1.849266 7.095744 -0.001261 0.002100 -0.000108
N 0.004972 1.841299 -3.421282 -0.001007 0.000650 -0.000925
N 3.178768 -3.806115 1.847863 0.001504 0.002709 -0.002395
N 3.224385 -3.812723 7.107260 0.000296 -0.000260 0.000044
N 3.249687 -3.756011 -3.422018 -0.000722 0.000645 -0.000599
N 1.565468 -0.960403 1.864449 0.000670 0.003037 -0.001149
N 1.569742 -0.990133 7.082020 -0.001071 0.001099 -0.000323
N 1.631332 -0.958558 -3.416501 -0.001290 0.001130 -0.000164
N 3.127493 1.763615 1.862049 0.001942 0.002754 -0.001631
N 3.170463 1.805162 7.080105 -0.000118 0.000468 -0.000846
N 3.234494 1.841918 -3.414888 -0.000333 0.000436 -0.000438
N 6.409689 -3.801747 1.843323 0.002980 0.002561 -0.001492
N 6.373358 -3.808803 7.107869 -0.001182 -0.000404 -0.000203
N 6.473025 -3.754311 -3.421053 -0.000098 0.000342 -0.000741
N 4.794485 -1.011917 1.842135 0.001943 0.003417 -0.001462
N 4.799735 -0.988969 7.088945 -0.000596 0.000643 -0.000360
N 4.860791 -0.954180 -3.414731 -0.000575 0.000937 -0.000179
N -3.300058 1.791056 1.841711 0.002446 0.002580 -0.002059
N -3.295079 1.809736 7.086630 -0.000590 0.000491 -0.000398
N -3.233393 1.844687 -3.416658 -0.000580 0.000474 0.000075
N -0.059642 -3.802245 1.843443 0.002170 0.002772 -0.001143
N -0.054048 -3.783893 7.089400 -0.000237 0.000128 -0.000055
N 0.007997 -3.747309 -3.414976 -0.000471 0.000419 -0.000213
N -1.673931 -1.006919 1.839598 0.001749 0.003958 -0.001630
N -1.669064 -0.986294 7.089300 -0.001089 0.001067 -0.000128
N -1.604785 -0.952371 -3.417073 -0.000988 0.000932 0.000147
