108
Energy=-1489494.978845 Lattice="9.476278 0.000000 0.000000 -4.738139 8.206697 0.000000 0.000000 0.000000 15.313968" Stress="-0.000176 0.000034 0.000001 0.000033 -0.000142 -0.000002 0.000001 -0.000002 -0.000123" Properties=species:S:1:pos:R:3:forces:R:3
Al 1.564294 0.903146 2.504900 -0.000974 -0.015075 -0.012568
Al 1.564294 0.903146 7.521855 -0.001395 -0.014514 -0.005744
Al 1.564294 0.903146 -2.775158 -0.001412 -0.013883 -0.005816
Al 0.000000 3.612582 2.504900 -0.003215 -0.000685 -0.011122
Al 0.000000 3.612582 7.521855 -0.003512 -0.001350 -0.004447
Al 0.000000 3.612582 -2.775158 -0.002761 -0.001547 -0.003968
Al 3.173845 -1.884678 2.504900 -0.003080 0.001743 -0.012653
Al 3.173845 -1.884678 7.521855 -0.003030 0.001245 -0.005713
Ga 3.173845 -1.884678 -2.775158 -0.002639 0.001564 -0.002895
Al -4.783396 0.903146 2.504900 0.001089 -0.013681 -0.011163
Al -4.783396 0.903146 7.521855 0.001464 -0.013079 -0.005006
Al -4.783396 0.903146 -2.775158 0.001510 -0.013051 -0.004760
Al -6.347690 3.612582 2.504900 0.000016 0.000203 -0.009728
Ga -6.347690 3.612582 7.521855 -0.000302 -0.000551 -0.002197
Ga -6.347690 3.612582 -2.775158 -0.000612 -0.000489 -0.002072
Al -3.173845 -1.884678 2.504900 -0.001115 0.003063 -0.011020
Ga -3.173845 -1.884678 7.521855 -0.001160 0.003188 -0.003691
Al -3.173845 -1.884678 -2.775158 -0.000353 0.003026 -0.003725
Ga -1.654808 0.903146 2.504900 0.016182 -0.009296 -0.016993
Al -1.654808 0.903146 7.521855 0.013818 -0.007220 -0.004974
Ga -1.654808 0.903146 -2.775158 0.016003 -0.009027 -0.010131
Al -3.219102 3.612582 2.504900 0.012157 0.005964 -0.011422
Al -3.219102 3.612582 7.521855 0.012750 0.005103 -0.004222
Al -3.219102 3.612582 -2.775158 0.012361 0.005020 -0.004870
Al -0.045257 -1.884678 2.504900 0.012642 0.008047 -0.012813
Ga -0.045257 -1.884678 7.521855 0.015582 0.011124 -0.005566
Ga -0.045257 -1.884678 -2.775158 0.014710 0.010860 -0.006525
Ga 0.000000 1.806291 5.013378 -0.014513 -0.010379 -0.006457
Al 0.000000 1.806291 -5.283635 -0.012628 -0.008716 -0.006124
Ga 0.000000 1.806291 -0.266680 -0.014558 -0.010846 0.044403
Al 3.173845 -3.690969 5.013378 -0.011854 -0.005141 -0.005182
Ga 3.173845 -3.690969 -5.283635 -0.015556 -0.008653 -0.006230
Al 3.173845 -3.690969 -0.266680 -0.012186 -0.004964 0.035390
Ga 1.609551 -0.981532 5.013378 -0.015724 0.009238 -0.009516
Ga 1.609551 -0.981532 -5.283635 -0.017001 0.009149 -0.009352
Al 1.609551 -0.981532 -0.266680 -0.013655 0.007744 0.034061
Al 3.128588 1.806291 5.013378 0.000644 -0.002944 -0.004507
Ga 3.128588 1.806291 -5.283635 0.000502 -0.003149 -0.003060
Ga 3.128588 1.806291 -0.266680 0.000386 -0.003543 0.047695
Al 6.302433 -3.690969 5.013378 0.000210 -0.000085 -0.003721
Ga 6.302433 -3.690969 -5.283635 0.000567 -0.000177 -0.001496
Ga 6.302433 -3.690969 -0.266680 -0.000188 0.000068 0.048965
Al 4.738139 -0.981532 5.013378 -0.001520 0.013121 -0.005626
Ga 4.738139 -0.981532 -5.283635 -0.000189 0.017489 -0.005606
Al 4.738139 -0.981532 -0.266680 -0.001781 0.012942 0.035576
Ga -3.219102 1.806291 5.013378 0.002445 -0.001553 -0.004424
Al -3.219102 1.806291 -5.283635 0.003869 -0.001945 -0.005436
Ga -3.219102 1.806291 -0.266680 0.002726 -0.001383 0.046896
Ga -0.045257 -3.690969 5.013378 0.002699 0.000893 -0.004611
Al -0.045257 -3.690969 -5.283635 0.003354 0.001483 -0.003631
Al -0.045257 -3.690969 -0.266680 0.003145 0.001218 0.037052
Ga -1.609551 -0.981532 5.013378 0.001679 0.017981 -0.007222
Al -1.609551 -0.981532 -5.283635 0.001689 0.015406 -0.005267
Ga -1.609551 -0.981532 -0.266680 0.002103 0.017974 0.044986
N 1.564294 0.903146 4.418497 0.017081 -0.006940 -0.008125
N 1.564294 0.903146 -5.878516 -0.019699 -0.006841 -0.008425
N 1.564294 0.903146 -0.861561 -0.000701 -0.035151 -0.007783
N 0.000000 3.612582 4.418497 -0.002432 0.021658 -0.004475
N 0.000000 3.612582 -5.878516 -0.001691 -0.021550 -0.012569
N 0.000000 3.612582 -0.861561 -0.020678 0.010752 -0.010044
N 3.173845 -1.884678 4.418497 0.015931 -0.009498 -0.004584
N 3.173845 -1.884678 -5.878516 -0.002731 0.001940 -0.020824
N 3.173845 -1.884678 -0.861561 -0.002429 0.001522 0.027371
N -4.783396 0.903146 4.418497 -0.018103 -0.024593 -0.001280
N -4.783396 0.903146 -5.878516 0.019071 -0.006563 -0.008447
N -4.783396 0.903146 -0.861561 0.000935 -0.035113 -0.007454
N -6.347690 3.612582 4.418497 -0.019764 -0.010866 -0.004603
N -6.347690 3.612582 -5.878516 0.018293 0.011535 0.010605
N -6.347690 3.612582 -0.861561 0.018299 0.011382 0.014694
N -3.173845 -1.884678 4.418497 -0.019912 -0.008998 -0.004913
N -3.173845 -1.884678 -5.878516 0.017814 0.012567 0.010428
N -3.173845 -1.884678 -0.861561 -0.019630 0.012824 -0.010385
N -1.654808 0.903146 4.418497 0.017210 -0.009574 0.012138
N -1.654808 0.903146 -5.878516 0.013225 -0.008047 0.007504
N -1.654808 0.903146 -0.861561 0.016604 -0.009868 0.013939
N -3.219102 3.612582 4.418497 0.031651 0.016940 -0.009258
N -3.219102 3.612582 -5.878516 -0.004204 -0.002357 -0.000509
N -3.219102 3.612582 -0.861561 0.011983 0.027581 -0.000543
N -0.045257 -1.884678 4.418497 0.014966 0.010703 -0.016388
N -0.045257 -1.884678 -5.878516 -0.004333 -0.001294 0.021955
N -0.045257 -1.884678 -0.861561 0.029923 -0.003039 0.022392
N 0.000000 1.806291 1.910020 0.003826 0.000768 -0.024422
N 0.000000 1.806291 6.926975 -0.011630 -0.007947 0.028753
N 0.000000 1.806291 -3.370038 0.004201 0.000965 -0.001717
N 3.173845 -3.690969 1.910020 -0.012178 -0.006318 -0.028521
N 3.173845 -3.690969 6.926975 -0.012193 -0.005859 0.004909
N 3.173845 -3.690969 -3.370038 -0.012430 -0.027699 0.021205
N 1.609551 -0.981532 1.910020 -0.013960 0.008201 -0.026778
N 1.609551 -0.981532 6.926975 0.001443 0.016529 0.024275
N 1.609551 -0.981532 -3.370038 -0.016808 0.027370 0.017507
N 3.128588 1.806291 1.910020 0.001073 -0.001675 -0.020353
N 3.128588 1.806291 6.926975 0.000950 -0.023748 -0.005841
N 3.128588 1.806291 -3.370038 0.001059 -0.024112 0.017926
N 6.302433 -3.690969 1.910020 0.000730 -0.000461 -0.019593
N 6.302433 -3.690969 6.926975 -0.018218 -0.011200 -0.012948
N 6.302433 -3.690969 -3.370038 -0.018659 0.010929 0.018445
N 4.738139 -0.981532 1.910020 -0.000635 0.013862 -0.028483
N 4.738139 -0.981532 6.926975 -0.019657 0.024424 -0.003204
N 4.738139 -0.981532 -3.370038 0.017824 0.024646 0.021071
N -3.219102 1.806291 1.910020 -0.015992 0.009127 -0.028938
N -3.219102 1.806291 6.926975 0.002507 -0.001712 0.026145
N -3.219102 1.806291 -3.370038 -0.016346 0.009376 -0.006022
N -0.045257 -3.690969 1.910020 0.001970 -0.000161 -0.032284
N -0.045257 -3.690969 6.926975 0.020968 -0.010614 0.010491
N -0.045257 -3.690969 -3.370038 0.021402 -0.010657 -0.013117
N -1.609551 -0.981532 1.910020 0.001206 -0.003577 -0.024437
N -1.609551 -0.981532 6.926975 0.000980 0.035759 0.013049
N -1.609551 -0.981532 -3.370038 -0.017500 0.006744 -0.009285
