108
Energy=-2.176133e+06 Lattice="9.607700e+00 0.000000e+00 0.000000e+00 -4.803237e+00 8.320257e+00 0.000000e+00 1.542949e-03 -1.960502e-04 1.557239e+01" Stress="2.091375e-06 3.372038e-06 -5.970071e-06 1.293072e-05 2.077087e-05 6.977251e-08 9.531391e-06 7.214785e-07 5.604967e-06" Properties=species:S:1:pos:R:3:forces:R:3 Config_type=AlGaN_super3_38_0_14.xyz
Al 1.567724e+00 8.901775e-01 2.434501e+00 -6.919092e-06 -3.980219e-07 -3.983005e-06
Al 1.574925e+00 8.919146e-01 7.650726e+00 -2.908590e-07 3.860345e-06 -9.088702e-07
Ga 1.568547e+00 8.733749e-01 -2.745880e+00 8.391650e-06 -1.020021e-05 2.128361e-06
Al -1.707435e-02 3.640597e+00 2.460766e+00 1.738853e-06 -3.860893e-07 5.558761e-06
Ga -1.939575e-03 3.641903e+00 7.641883e+00 -1.133019e-05 2.881256e-06 7.992519e-07
Al -1.847205e-02 3.652738e+00 -2.757911e+00 -1.309072e-06 -9.767465e-06 1.198250e-05
Ga 3.177707e+00 -1.881190e+00 2.440814e+00 -1.161392e-06 5.476886e-06 8.265344e-06
Ga 3.176006e+00 -1.875864e+00 7.648082e+00 -5.439109e-06 1.675744e-05 -3.206208e-07
Ga 3.162381e+00 -1.882269e+00 -2.740388e+00 3.110650e-05 1.084519e-05 -3.132476e-06
Ga -4.837773e+00 8.797716e-01 2.465522e+00 -5.400921e-06 -3.053425e-06 3.782599e-06
Ga -4.835318e+00 8.883316e-01 7.645258e+00 -1.607750e-06 -7.486205e-06 -6.333000e-06
Al -4.815056e+00 8.902048e-01 -2.759898e+00 -8.406353e-06 6.622858e-06 6.378817e-06
Ga -6.430156e+00 3.654080e+00 2.430872e+00 -9.585439e-06 2.647055e-06 -3.026025e-06
Al -6.438212e+00 3.651885e+00 7.659813e+00 -3.101123e-06 -5.699909e-06 3.393925e-06
Ga -6.434605e+00 3.660727e+00 -2.741712e+00 2.786812e-06 -8.421261e-07 -2.967628e-06
Ga -3.234261e+00 -1.891297e+00 2.449417e+00 -4.839644e-07 4.028459e-06 -3.597563e-07
Ga -3.219840e+00 -1.898158e+00 7.668070e+00 4.529967e-05 -6.737243e-06 1.930191e-05
Ga -3.214295e+00 -1.890966e+00 -2.770315e+00 -2.897775e-06 -6.041769e-06 7.331616e-06
Ga -1.601991e+00 8.968406e-01 2.451670e+00 -4.743511e-06 4.677739e-06 -1.171455e-06
Ga -1.609494e+00 8.866043e-01 7.660394e+00 2.741844e-06 8.054984e-06 3.164251e-06
Al -1.628496e+00 8.815458e-01 -2.768871e+00 -1.324107e-06 3.241570e-06 4.339689e-07
Ga -3.225990e+00 3.664422e+00 2.427952e+00 3.801151e-06 -1.248505e-05 1.301543e-05
Ga -3.231074e+00 3.651497e+00 7.670705e+00 5.242966e-06 -1.524283e-06 4.558874e-06
Ga -3.224401e+00 3.644090e+00 -2.745973e+00 -1.283750e-05 5.975676e-06 1.878310e-06
Ga -1.292586e-02 -1.886265e+00 2.430045e+00 -3.774222e-06 6.372526e-06 5.683443e-06
Ga -2.008606e-02 -1.880965e+00 7.666587e+00 -1.522687e-06 -1.201277e-06 1.214352e-06
Al -1.927272e-02 -1.872825e+00 -2.750605e+00 -4.437340e-06 -8.359752e-06 1.441054e-07
Al -9.337375e-03 1.806967e+00 5.039763e+00 3.534567e-06 1.207471e-06 3.540885e-06
Ga -2.647947e-02 1.801016e+00 -5.321220e+00 -5.660749e-06 -6.529955e-06 2.712418e-05
Ga -2.119541e-02 1.809328e+00 -1.645642e-01 2.751335e-06 1.893581e-05 1.615025e-06
Ga 3.191637e+00 -3.740812e+00 5.036606e+00 -3.801124e-05 2.809999e-05 1.416593e-05
Ga 3.184891e+00 -3.738499e+00 -5.321382e+00 -3.638934e-05 -9.242110e-06 -3.642170e-05
Ga 3.181026e+00 -3.736826e+00 -1.531407e-01 6.095728e-06 -2.016173e-06 2.022270e-06
Ga 1.581478e+00 -9.431741e-01 5.042824e+00 4.101307e-08 3.531843e-05 -1.162897e-05
Al 1.562154e+00 -9.576540e-01 -5.335401e+00 -7.043678e-06 -1.163417e-05 -1.153187e-05
Al 1.565688e+00 -9.697586e-01 -1.495343e-01 3.014977e-06 -4.722505e-07 -4.725567e-06
Ga 3.160120e+00 1.801718e+00 5.057525e+00 4.839423e-06 -1.739559e-05 -1.156485e-06
Ga 3.174110e+00 1.809692e+00 -5.345705e+00 -4.276516e-06 6.289282e-07 -9.633907e-07
Ga 3.182595e+00 1.801138e+00 -1.539053e-01 -3.825085e-06 -2.217696e-06 -4.203435e-07
Ga 6.374491e+00 -3.740062e+00 5.044049e+00 -3.799571e-06 -1.456196e-05 -2.369453e-06
Al 6.387840e+00 -3.739300e+00 -5.335271e+00 2.445385e-06 -3.925830e-06 1.210914e-05
Ga 6.377839e+00 -3.743127e+00 -1.441637e-01 -4.408684e-06 -1.534096e-06 7.753161e-07
Al 4.781239e+00 -9.666370e-01 5.058022e+00 -8.690322e-06 -1.430376e-06 4.387393e-06
Ga 4.786401e+00 -9.609614e-01 -5.320744e+00 1.505421e-05 -7.732347e-06 1.015636e-05
Ga 4.772932e+00 -9.549036e-01 -1.726690e-01 2.487838e-07 2.639952e-06 -1.303755e-07
Ga -3.218141e+00 1.803553e+00 5.046136e+00 4.817238e-06 1.041615e-06 2.535122e-06
Al -3.221727e+00 1.793426e+00 -5.313580e+00 1.427149e-05 -1.461975e-05 5.522412e-06
Ga -3.230141e+00 1.805390e+00 -1.681730e-01 5.001339e-06 -1.049994e-05 1.222583e-05
Ga -2.567573e-02 -3.739109e+00 5.070886e+00 -2.737389e-06 -3.481927e-06 -3.046297e-06
Ga -3.635391e-02 -3.725325e+00 -5.328004e+00 -9.657402e-07 1.847593e-06 2.375814e-06
Al -1.785100e-02 -3.718700e+00 -1.785703e-01 1.799750e-06 2.345105e-06 4.441094e-06
Ga -1.628482e+00 -9.568462e-01 5.049788e+00 3.576157e-06 -4.121308e-06 -8.522798e-06
Al -1.616575e+00 -9.612067e-01 -5.312840e+00 -1.560366e-06 -1.748051e-06 2.486137e-06
Ga -1.603799e+00 -9.668874e-01 -1.788072e-01 1.774144e-07 -2.669447e-06 2.692023e-06
N 1.536320e+00 9.092860e-01 4.361798e+00 -2.062695e-06 -3.662673e-05 1.033774e-05
N 1.570416e+00 8.395231e-01 -5.996585e+00 7.835777e-07 7.390054e-07 -3.326780e-06
N 1.577805e+00 8.317719e-01 -7.691120e-01 3.254327e-06 3.013500e-06 -8.725065e-07
N -2.009050e-02 3.604990e+00 4.385773e+00 3.268103e-05 -1.007943e-05 -1.677135e-05
N 1.988723e-02 3.676160e+00 -5.952109e+00 3.799703e-06 -2.061186e-06 -7.063517e-06
N -1.824733e-02 3.659253e+00 -8.449354e-01 -1.819521e-06 -7.113123e-06 -4.815062e-06
N 3.218840e+00 -1.860775e+00 4.429428e+00 -5.275150e-06 -7.517274e-06 -2.922125e-05
N 3.136379e+00 -1.861868e+00 -5.940614e+00 1.343174e-05 -2.244242e-05 -2.381761e-05
N 3.129270e+00 -1.863934e+00 -7.602007e-01 7.749593e-06 -1.142813e-05 1.236844e-05
N -4.832335e+00 8.375636e-01 4.449541e+00 -3.250396e-06 -1.040506e-06 3.857361e-06
N -4.784891e+00 9.072627e-01 -5.950505e+00 2.642217e-06 -7.547420e-07 -6.443064e-07
N -4.827550e+00 8.903054e-01 -8.491803e-01 1.996705e-06 -1.185863e-06 8.640470e-09
N -6.422623e+00 3.657278e+00 4.408072e+00 3.566478e-06 -2.074861e-06 1.038884e-06
N -6.470628e+00 3.682048e+00 -5.992241e+00 -8.285981e-06 1.007249e-05 -6.667814e-06
N -6.390782e+00 3.682231e+00 -7.598340e-01 1.085164e-06 -9.419736e-06 1.239283e-05
N -3.268183e+00 -1.863605e+00 4.432915e+00 2.589997e-07 -1.514397e-05 -1.163448e-05
N -3.181044e+00 -1.911210e+00 -5.909552e+00 -3.225049e-06 5.503942e-06 -1.218260e-05
N -3.221878e+00 -1.893484e+00 -7.955777e-01 -6.365480e-06 -1.058741e-06 4.074333e-06
N -1.576061e+00 9.108425e-01 4.431909e+00 2.740336e-06 -6.788405e-06 3.944009e-06
N -1.664374e+00 8.598223e-01 -5.920452e+00 -6.858330e-06 5.983382e-06 -2.488226e-06
N -1.624198e+00 8.863555e-01 -8.493906e-01 -5.084433e-06 -9.423360e-07 -4.824688e-06
N -3.230751e+00 3.662053e+00 4.407229e+00 2.051203e-06 1.411618e-06 -1.791121e-07
N -3.227175e+00 3.606062e+00 -5.919743e+00 3.884118e-05 1.898115e-05 1.076805e-05
N -3.262996e+00 3.679013e+00 -7.663866e-01 1.123983e-06 -2.263698e-06 -3.478767e-06
N -1.966988e-02 -1.892049e+00 4.409995e+00 1.623540e-05 -2.838596e-06 7.415465e-06
N -2.673838e-02 -1.836850e+00 -5.926180e+00 1.206363e-06 7.692266e-06 5.661684e-06
N 2.528839e-02 -1.905608e+00 -8.158300e-01 1.838427e-06 -1.393869e-06 1.530831e-07
N 1.881787e-02 1.837506e+00 1.826270e+00 2.178802e-06 -4.100060e-06 4.982154e-06
N 2.255909e-02 1.781013e+00 6.974037e+00 1.318288e-06 3.505785e-07 -1.418865e-05
N -6.248760e-02 1.831326e+00 -3.340100e+00 6.189492e-06 8.055500e-06 -1.011911e-05
N 3.230492e+00 -3.763157e+00 1.835302e+00 6.488411e-07 2.205183e-05 1.646355e-06
N 3.182039e+00 -3.741189e+00 7.020353e+00 -1.738367e-06 1.027139e-05 1.294411e-05
N 3.219876e+00 -3.759354e+00 -3.346394e+00 5.995179e-06 -3.910064e-07 3.754131e-05
N 1.576357e+00 -9.142888e-01 1.777084e+00 -2.587568e-06 8.965270e-07 5.440527e-07
N 1.576829e+00 -9.101594e-01 7.025027e+00 -2.026852e-05 -1.038749e-06 -1.593319e-05
N 1.534415e+00 -9.847212e-01 -3.419845e+00 -7.854425e-07 8.356992e-06 -6.510850e-06
N 3.141078e+00 1.780308e+00 1.829540e+00 4.293458e-06 1.571439e-05 -1.638861e-05
N 3.131807e+00 1.833138e+00 7.056495e+00 -2.841062e-06 6.977863e-06 -1.290880e-06
N 3.214819e+00 1.786405e+00 -3.362905e+00 2.891936e-06 -1.632231e-06 -3.436562e-07
N 6.334376e+00 -3.762667e+00 1.837379e+00 6.528227e-06 1.788537e-05 2.094889e-05
N 6.425759e+00 -3.759697e+00 7.024696e+00 1.342403e-05 -1.103871e-05 2.727854e-06
N 6.342871e+00 -3.768286e+00 -3.417193e+00 -9.365679e-06 3.648281e-06 -2.723449e-06
N 4.780991e+00 -9.589245e-01 1.798070e+00 2.688745e-06 -9.706563e-08 -7.418828e-06
N 4.787218e+00 -9.686680e-01 6.978071e+00 -2.360986e-05 2.688295e-05 -1.814850e-05
N 4.776050e+00 -9.194939e-01 -3.348573e+00 -3.116082e-05 -9.060285e-06 1.748327e-06
N -3.226950e+00 1.800707e+00 1.811939e+00 -6.068577e-06 -9.478125e-07 -1.739469e-05
N -3.219600e+00 1.807669e+00 7.015570e+00 -2.398594e-06 -1.818543e-06 -6.181715e-06
N -3.225255e+00 1.759335e+00 -3.390387e+00 2.655634e-06 -3.803327e-06 1.988142e-06
N -2.432889e-02 -3.731541e+00 1.740713e+00 -4.434249e-07 2.349600e-06 -1.747054e-07
N -6.478172e-02 -3.760768e+00 7.056946e+00 -2.960158e-08 -3.818196e-06 -3.623925e-06
N -2.690305e-02 -3.687148e+00 -3.351224e+00 2.676926e-06 5.036692e-06 -1.136078e-06
N -1.623919e+00 -9.602316e-01 1.803444e+00 6.515762e-07 5.220318e-07 -7.574005e-06
N -1.624220e+00 -9.644675e-01 7.021768e+00 -7.183615e-06 2.315352e-06 -3.465323e-06
N -1.576286e+00 -9.410143e-01 -3.385933e+00 -1.556579e-06 1.171584e-05 -5.581527e-07
