108
Energy=-1031745.446545 Lattice="9.467060 0.000000 0.000000 -4.735661 8.196257 0.000000 0.013917 -0.000410 15.240391" Stress="0.000001 -0.000001 0.000004 -0.000001 -0.000000 0.000000 0.000004 0.000000 -0.000000" Properties=species:S:1:pos:R:3:forces:R:3
Al 1.554749 0.886932 2.397756 0.000015 0.000078 0.000025
Al 1.557336 0.870630 7.454714 -0.000055 -0.000039 0.000114
Al 1.554326 0.870760 -2.675057 -0.000133 0.000140 -0.000072
Al -0.031071 3.597563 2.398414 0.000045 0.000014 -0.000018
Al -0.012657 3.600681 7.453103 0.000005 0.000015 -0.000016
Al -0.039596 3.608398 -2.682928 -0.000051 -0.000102 0.000049
Al 3.153770 -1.866368 2.397047 0.000064 -0.000009 -0.000004
Al 3.146562 -1.852175 7.468902 -0.000004 0.000011 -0.000011
Al 3.146144 -1.864668 -2.697917 0.000064 -0.000049 0.000157
Al -4.755330 0.865278 2.362302 0.000006 0.000021 -0.000096
Al -4.750982 0.860755 7.481524 -0.000072 0.000023 0.000079
Al -4.750164 0.860862 -2.674470 0.000046 0.000007 0.000032
Al -6.338022 3.591413 2.400686 -0.000144 0.000002 -0.000010
Al -6.339836 3.601261 7.473105 -0.000116 0.000118 -0.000070
Ga -6.347206 3.596290 -2.686983 0.000021 0.000037 0.000083
Al -3.188876 -1.851292 2.406440 0.000029 0.000039 0.000032
Ga -3.184259 -1.861231 7.469022 0.000024 0.000004 0.000068
Al -3.195782 -1.848193 -2.702179 0.000032 -0.000018 0.000104
Al -1.597463 0.879558 2.371529 -0.000012 -0.000005 0.000133
Al -1.590376 0.876779 7.474458 0.000165 -0.000065 0.000065
Al -1.613000 0.877222 -2.672765 -0.000017 -0.000080 -0.000006
Al -3.162315 3.597851 2.397669 0.000095 -0.000098 0.000021
Ga -3.164183 3.599531 7.481287 0.000080 0.000031 0.000034
Al -3.160507 3.593041 -2.702528 -0.000054 0.000013 -0.000078
Ga -0.027811 -1.854855 2.416926 0.000085 0.000021 0.000083
Ga -0.010063 -1.850099 7.471419 0.000104 0.000010 -0.000092
Ga -0.024587 -1.847323 -2.699984 0.000031 -0.000034 0.000032
Al -0.023490 1.781394 4.928173 -0.000112 -0.000043 0.000006
Ga -0.038067 1.782475 -5.224948 -0.000055 0.000026 0.000039
Al -0.031146 1.783794 -0.153033 -0.000070 0.000143 0.000035
Al 3.148543 -3.671728 4.922691 -0.000058 0.000010 -0.000015
Al 3.133771 -3.670991 -5.226498 0.000020 -0.000002 0.000042
Al 3.137987 -3.689355 -0.148435 0.000139 0.000085 0.000136
Al 1.569930 -0.953520 4.923784 -0.000101 -0.000110 -0.000128
Al 1.562230 -0.958973 -5.225909 -0.000020 -0.000084 0.000038
Ga 1.574259 -0.939793 -0.137759 -0.000080 0.000050 -0.000012
Ga 3.132970 1.781453 4.937710 0.000062 0.000009 0.000033
Ga 3.135436 1.774005 -5.240991 0.000035 -0.000030 0.000102
Al 3.133850 1.767332 -0.133612 0.000069 0.000011 0.000071
Al 6.288827 -3.680076 4.910855 -0.000019 -0.000030 -0.000033
Al 6.276178 -3.670615 -5.227485 -0.000034 -0.000070 -0.000021
Ga 6.270868 -3.671803 -0.127405 0.000036 0.000043 0.000059
Al 4.710140 -0.961013 4.920503 -0.000008 0.000019 -0.000029
Al 4.704233 -0.954814 -5.217076 0.000050 0.000062 0.000006
Al 4.716660 -0.947807 -0.153442 0.000007 -0.000009 0.000095
Ga -3.164074 1.773992 4.915505 0.000002 0.000012 0.000024
Al -3.182580 1.771693 -5.214660 0.000101 -0.000042 -0.000046
Al -3.173640 1.778933 -0.149747 -0.000029 -0.000049 0.000058
Al -0.019282 -3.678545 4.924539 0.000059 0.000029 0.000013
Al -0.023816 -3.680088 -5.224814 0.000088 0.000043 -0.000001
Ga -0.006274 -3.696660 -0.131944 -0.000009 -0.000004 -0.000040
Al -1.598676 -0.945836 4.924126 0.000061 -0.000018 -0.000052
Al -1.614821 -0.946670 -5.221036 -0.000147 0.000138 -0.000093
Al -1.622771 -0.930960 -0.144907 -0.000055 -0.000032 0.000048
N 1.516588 0.853564 4.312139 -0.000003 0.000063 0.000003
N 1.541570 0.821152 -5.878915 0.000019 0.000107 -0.000210
N 1.554306 0.919891 -0.764233 -0.000011 -0.000101 -0.000043
N -0.024946 3.597350 4.320818 -0.000043 -0.000014 -0.000074
N -0.030094 3.649812 -5.865795 0.000117 0.000117 0.000047
N -0.065080 3.583511 -0.768912 -0.000028 -0.000078 0.000077
N 3.143042 -1.863950 4.313430 0.000010 -0.000012 -0.000073
N 3.131669 -1.860261 -5.841858 -0.000020 -0.000034 -0.000070
N 3.178763 -1.888830 -0.778153 -0.000106 -0.000032 -0.000164
N -4.754917 0.823043 4.270310 0.000013 -0.000098 0.000038
N -4.714624 0.840428 -5.848381 -0.000042 -0.000118 -0.000086
N -4.755418 0.871198 -0.744155 0.000010 0.000042 -0.000003
N -6.330931 3.644541 4.307510 -0.000009 0.000007 0.000035
N -6.344809 3.655681 -5.848274 -0.000068 -0.000000 -0.000006
N -6.341356 3.559489 -0.724522 -0.000036 -0.000031 0.000030
N -3.176344 -1.855721 4.328039 0.000010 0.000002 -0.000063
N -3.186612 -1.858845 -5.789134 -0.000117 -0.000025 0.000006
N -3.179891 -1.813736 -0.783423 0.000056 0.000006 -0.000135
N -1.551128 0.848515 4.284055 0.000088 0.000077 -0.000090
N -1.646357 0.848723 -5.853945 -0.000015 -0.000009 0.000069
N -1.603811 0.873279 -0.750688 0.000061 -0.000033 -0.000025
N -3.167455 3.650195 4.311819 -0.000007 0.000011 0.000026
N -3.179183 3.600674 -5.777524 -0.000152 0.000045 0.000044
N -3.132515 3.578326 -0.781702 -0.000090 -0.000031 -0.000051
N -0.018878 -1.857243 4.390069 0.000020 0.000042 -0.000015
N -0.028105 -1.856595 -5.778884 0.000183 -0.000097 -0.000006
N -0.063583 -1.834161 -0.728543 0.000011 -0.000029 0.000018
N -0.019882 1.785526 1.771678 0.000045 0.000021 -0.000021
N -0.021893 1.782511 6.857228 0.000014 -0.000010 -0.000037
N -0.027716 1.781336 -3.240563 0.000129 -0.000060 0.000011
N 3.137427 -3.681719 1.779168 0.000024 -0.000005 -0.000072
N 3.182054 -3.654411 6.841457 -0.000054 0.000045 -0.000039
N 3.136741 -3.679622 -3.306407 -0.000024 0.000064 -0.000008
N 1.603363 -0.925407 1.832369 -0.000008 -0.000095 -0.000078
N 1.609112 -0.929117 6.838069 0.000067 0.000069 0.000198
N 1.602596 -0.923550 -3.308786 -0.000075 0.000094 0.000053
N 3.130465 1.779489 1.787088 -0.000019 0.000056 -0.000026
N 3.142818 1.782271 6.922245 0.000120 -0.000057 0.000001
N 3.133716 1.728696 -3.268875 0.000040 -0.000047 -0.000028
N 6.285058 -3.677344 1.852928 -0.000017 -0.000126 0.000007
N 6.295926 -3.728350 6.829902 0.000090 -0.000052 0.000064
N 6.239387 -3.659711 -3.309603 0.000008 0.000030 -0.000070
N 4.713614 -0.956671 1.769056 0.000029 -0.000000 -0.000103
N 4.674870 -0.925279 6.835526 -0.000040 0.000062 -0.000103
N 4.704272 -0.944485 -3.297623 -0.000049 0.000010 -0.000002
N -3.175782 1.786677 1.776991 0.000108 -0.000029 -0.000070
N -3.172972 1.733488 6.887891 -0.000227 0.000041 -0.000066
N -3.182109 1.774496 -3.289250 -0.000058 -0.000005 0.000027
N -0.014684 -3.730377 1.834484 -0.000088 0.000050 -0.000085
N -0.053985 -3.708950 6.835316 -0.000043 -0.000046 -0.000028
N 0.015635 -3.708510 -3.320519 0.000061 -0.000064 0.000052
N -1.646786 -0.928286 1.769265 -0.000049 -0.000015 0.000022
N -1.598836 -0.899947 6.829815 0.000006 -0.000057 0.000031
N -1.648113 -0.917079 -3.311705 -0.000028 0.000108 0.000119
