108
Energy=-894419.047147 Lattice="9.457756 0.000000 0.000000 -4.734321 8.182790 0.000000 -0.002196 -0.000055 15.231018" Stress="0.000017 -0.000001 -0.000001 -0.000001 0.000010 -0.000000 -0.000001 -0.000000 0.000029" Properties=species:S:1:pos:R:3:forces:R:3
Al 1.558680 0.867019 2.418203 0.000365 0.001595 0.000315
Al 1.550803 0.869186 7.465776 0.000095 0.000039 0.000458
Al 1.551068 0.864869 -2.719934 0.000197 -0.000046 -0.000956
Al -0.026132 3.605184 2.410903 0.000036 0.000127 -0.000509
Al -0.020405 3.593415 7.445985 -0.000102 0.000032 0.000080
Al -0.011858 3.589224 -2.688940 -0.000162 0.000106 0.000251
Al 3.134332 -1.859683 2.388519 0.000341 -0.000167 0.000078
Al 3.126515 -1.856764 7.464927 -0.000142 0.000020 0.000150
Al 3.130642 -1.844721 -2.683489 -0.000183 0.000861 0.000275
Al -4.760448 0.868009 2.405049 0.000921 0.000445 -0.000409
Al -4.761976 0.874243 7.483425 0.000037 -0.000013 -0.000009
Al -4.761717 0.864954 -2.713167 0.000120 0.000089 -0.000643
Al -6.337009 3.592918 2.413159 0.001031 0.001250 -0.000655
Al -6.331934 3.597193 7.460216 -0.000131 0.000064 0.000189
Al -6.336278 3.595948 -2.706599 0.000070 -0.000160 0.000115
Al -3.174262 -1.857110 2.380787 -0.000567 -0.000834 0.000500
Al -3.173358 -1.864605 7.470054 -0.000027 0.000016 0.000137
Ga -3.181385 -1.865260 -2.680579 -0.000163 0.000202 -0.000161
Al -1.599662 0.869965 2.416023 0.000428 -0.000561 -0.000300
Al -1.596586 0.875978 7.463554 0.000365 -0.000188 0.000071
Al -1.592756 0.876857 -2.703752 0.000187 0.000033 -0.000056
Al -3.176398 3.609526 2.393998 0.002279 -0.000199 0.000716
Al -3.184315 3.603511 7.471438 0.000036 -0.000072 -0.000077
Ga -3.184983 3.600079 -2.688652 -0.000094 -0.000204 -0.000045
Ga -0.021000 -1.853832 2.402362 -0.000329 0.000056 0.000448
Al -0.015191 -1.859289 7.448803 0.000077 -0.000124 -0.000023
Al -0.009461 -1.854535 -2.680537 0.000516 -0.000375 0.000068
Al -0.014843 1.777458 4.930783 -0.000040 0.000090 0.000060
Al -0.014782 1.781186 -5.237845 -0.000028 0.000157 0.000389
Ga -0.019477 1.776547 -0.136533 -0.000128 0.000454 -0.000827
Al 3.129418 -3.674087 4.935582 -0.000009 0.000188 0.000101
Ga 3.141500 -3.674983 -5.237260 0.000097 0.000173 0.000195
Al 3.143061 -3.660281 -0.143550 -0.000067 -0.000138 0.000116
Al 1.553745 -0.946683 4.944291 -0.000054 0.000181 0.000035
Al 1.560891 -0.947050 -5.236000 -0.000363 0.000130 0.000450
Al 1.561457 -0.960487 -0.157136 -0.000307 0.000233 -0.000107
Al 3.111652 1.786692 4.940096 0.000006 -0.000108 0.000498
Al 3.126639 1.782110 -5.237539 0.000038 -0.000048 0.000304
Ga 3.123734 1.778477 -0.150004 0.000089 0.000385 -0.000974
Al 6.290350 -3.679264 4.929922 -0.000145 0.000226 -0.000197
Al 6.289718 -3.690949 -5.244990 0.000108 -0.000003 0.000281
Al 6.287636 -3.668787 -0.134562 -0.000093 -0.002391 0.001124
Ga 4.704563 -0.958530 4.936543 -0.000005 -0.000313 0.000058
Al 4.699414 -0.942799 -5.244054 -0.000061 0.000011 0.000148
Al 4.702431 -0.960874 -0.133758 -0.000416 0.000278 -0.000057
Ga -3.177439 1.791009 4.936618 0.000125 0.000142 0.000144
Al -3.186104 1.776799 -5.244402 0.000043 -0.000117 -0.000015
Ga -3.178288 1.770485 -0.126515 0.000147 0.000401 -0.000314
Al -0.026258 -3.673961 4.942468 0.000052 -0.000054 0.000050
Al -0.030502 -3.676726 -5.243635 -0.000004 0.000011 0.000129
Al -0.030588 -3.664485 -0.141878 0.000079 -0.000147 -0.000323
Al -1.592658 -0.953364 4.951128 -0.000381 -0.000143 0.000054
Ga -1.588153 -0.949198 -5.238949 -0.000163 -0.000074 0.000211
Al -1.594295 -0.956350 -0.154194 0.000061 0.000276 0.000105
N 1.552785 0.864814 4.338119 0.000252 0.000338 -0.000330
N 1.552261 0.868505 -5.835616 0.000169 0.000011 -0.000184
N 1.549920 0.821651 -0.810480 0.000294 -0.000183 0.000922
N -0.026966 3.602487 4.335982 -0.000107 -0.000155 0.000064
N 0.018020 3.571123 -5.871596 -0.000111 -0.000024 -0.000329
N -0.017870 3.641729 -0.767241 -0.000078 0.000124 -0.000138
N 3.088113 -1.880986 4.306453 -0.000098 -0.000014 -0.000154
N 3.128904 -1.812731 -5.860098 -0.000058 0.000110 -0.000175
N 3.135849 -1.855586 -0.756076 -0.000017 0.000233 -0.000003
N -4.800221 0.892852 4.307416 0.000216 0.000136 -0.000726
N -4.759323 0.872531 -5.832671 0.000181 0.000085 0.000027
N -4.753295 0.820036 -0.797452 0.000263 -0.000343 0.000644
N -6.331098 3.599137 4.334475 0.000097 -0.000109 -0.000065
N -6.329738 3.595976 -5.848905 -0.000076 0.000025 -0.000181
N -6.333762 3.644938 -0.783384 0.000022 0.000384 0.000182
N -3.129278 -1.878976 4.303607 -0.000003 -0.000000 -0.000047
N -3.211441 -1.884898 -5.846763 -0.000050 0.000103 -0.000089
N -3.178056 -1.864262 -0.695397 0.000023 0.001927 -0.000416
N -1.562014 0.843261 4.327832 0.000432 -0.000155 -0.000298
N -1.596657 0.920807 -5.856201 0.000324 -0.000184 -0.000002
N -1.600830 0.831438 -0.794560 0.000123 -0.000728 0.000161
N -3.180974 3.654465 4.310278 0.000033 -0.000260 0.000154
N -3.219578 3.579541 -5.846555 0.000110 0.000012 0.000267
N -3.180339 3.644344 -0.711473 0.000303 -0.000175 -0.000410
N -0.021893 -1.854874 4.385555 -0.000004 -0.000203 0.000135
N 0.025362 -1.880305 -5.868649 0.000103 -0.000088 -0.000305
N -0.017048 -1.859560 -0.751294 0.000011 0.000092 0.000052
N -0.018642 1.780087 1.848091 -0.000478 -0.000512 0.001168
N -0.021222 1.775467 6.850695 -0.000062 0.000109 -0.000249
N -0.023663 1.782174 -3.310240 -0.000101 0.000288 -0.000091
N 3.138987 -3.675024 1.784050 0.000296 0.000252 0.000220
N 3.130155 -3.677090 6.862407 -0.000009 0.000115 -0.000099
N 3.178022 -3.649081 -3.263059 0.000199 -0.001087 -0.000122
N 1.595902 -0.919866 1.766700 0.000033 -0.000721 -0.000844
N 1.560292 -0.945586 6.858713 -0.000264 0.000196 -0.000187
N 1.556819 -0.957155 -3.307797 -0.000220 0.000124 -0.000059
N 3.125400 1.782353 1.832413 -0.000482 -0.000878 0.001069
N 3.125115 1.778703 6.864572 -0.000000 -0.000040 -0.000131
N 3.127686 1.782081 -3.309972 0.000014 0.000036 0.000009
N 6.285221 -3.683403 1.795885 0.000601 0.000183 -0.000389
N 6.287340 -3.674878 6.850032 0.000093 -0.000067 -0.000228
N 6.283885 -3.724025 -3.328707 -0.000024 -0.000023 -0.000188
N 4.704852 -0.947537 1.794054 0.000085 0.000667 -0.000175
N 4.709000 -0.947813 6.912804 -0.000123 -0.000002 -0.000097
N 4.667523 -0.931309 -3.327371 -0.000074 -0.000108 0.000040
N -3.172181 1.786299 1.857116 -0.001516 -0.003373 0.000305
N -3.182233 1.780821 6.913932 0.000059 -0.000091 0.000079
N -3.177929 1.734452 -3.324908 0.000107 -0.000075 -0.000013
N -0.020008 -3.721823 1.775780 -0.004189 0.000549 -0.000176
N -0.022940 -3.680566 6.858538 0.000016 -0.000060 0.000034
N -0.064067 -3.648022 -3.324297 0.000102 0.000095 -0.000171
N -1.634811 -0.923440 1.764684 0.000667 0.001543 -0.000201
N -1.601969 -0.947493 6.872950 -0.000198 0.000015 -0.000008
N -1.554135 -0.930829 -3.264869 -0.000666 0.000109 0.000100
