108
Energy=-1.397944e+06 Lattice="9.476278e+00 0.000000e+00 0.000000e+00 -4.738139e+00 8.206697e+00 0.000000e+00 9.377101e-16 1.624162e-15 1.531397e+01" Stress="-2.774264e-02 5.775595e-03 -2.867924e-04 5.769739e-03 -2.085234e-02 -4.148860e-04 -2.789162e-04 -4.230651e-04 -2.002023e-02" Properties=species:S:1:pos:R:3:forces:R:3 Config_type=AlGaN_super3_21_0_0.xyz
Al 1.564294e+00 9.031460e-01 2.504900e+00 -1.289809e-03 -1.371012e-02 -1.195415e-02
Al 1.564294e+00 9.031460e-01 7.521855e+00 -1.500871e-03 -1.431655e-02 -6.386082e-03
Al 1.564294e+00 9.031460e-01 -2.775158e+00 -1.457663e-03 -1.496525e-02 -5.516793e-03
Al 2.938992e-08 3.612582e+00 2.504900e+00 -2.870077e-03 -1.598804e-03 -1.084081e-02
Al 2.938992e-08 3.612582e+00 7.521855e+00 -2.989767e-03 -1.499796e-03 -4.889419e-03
Al 2.938992e-08 3.612582e+00 -2.775158e+00 -3.207819e-03 -1.712283e-03 -2.844800e-03
Al 3.173845e+00 -1.884678e+00 2.504900e+00 -2.580853e-03 1.245166e-03 -1.206008e-02
Ga 3.173845e+00 -1.884678e+00 7.521855e+00 -3.146010e-03 1.713164e-03 -4.312377e-03
Ga 3.173845e+00 -1.884678e+00 -2.775158e+00 -3.956718e-03 1.796779e-03 -4.370477e-03
Al -4.783396e+00 9.031460e-01 2.504900e+00 1.150188e-03 -1.315261e-02 -1.107602e-02
Al -4.783396e+00 9.031460e-01 7.521855e+00 1.441117e-03 -1.338147e-02 -4.258514e-03
Ga -4.783396e+00 9.031460e-01 -2.775158e+00 4.031665e-04 -1.711790e-02 -5.022853e-03
Al -6.347690e+00 3.612582e+00 2.504900e+00 -5.062105e-04 -4.324843e-04 -9.472965e-03
Ga -6.347690e+00 3.612582e+00 7.521855e+00 -1.413536e-04 -1.300104e-06 -2.034441e-03
Ga -6.347690e+00 3.612582e+00 -2.775158e+00 -5.672839e-04 -1.198924e-04 -1.491666e-03
Ga -3.173845e+00 -1.884678e+00 2.504900e+00 -1.112845e-03 2.636910e-03 -1.147007e-02
Al -3.173845e+00 -1.884678e+00 7.521855e+00 -1.952165e-04 3.286584e-03 -4.504593e-03
Ga -3.173845e+00 -1.884678e+00 -2.775158e+00 5.455924e-05 3.244635e-03 -2.069391e-03
Al -1.654808e+00 9.031460e-01 2.504900e+00 1.399611e-02 -7.221298e-03 -1.188598e-02
Ga -1.654808e+00 9.031460e-01 7.521855e+00 1.621610e-02 -9.322192e-03 -8.897526e-03
Ga -1.654808e+00 9.031460e-01 -2.775158e+00 1.694107e-02 -9.484725e-03 -8.115256e-03
Ga -3.219102e+00 3.612582e+00 2.504900e+00 1.535534e-02 7.715790e-03 -1.332724e-02
Al -3.219102e+00 3.612582e+00 7.521855e+00 1.219392e-02 5.310250e-03 -3.742503e-03
Ga -3.219102e+00 3.612582e+00 -2.775158e+00 1.545239e-02 8.153923e-03 -5.427990e-03
Ga -4.525702e-02 -1.884678e+00 2.504900e+00 1.521225e-02 1.071150e-02 -1.444065e-02
Al -4.525702e-02 -1.884678e+00 7.521855e+00 1.164944e-02 8.490625e-03 -5.683608e-03
Al -4.525702e-02 -1.884678e+00 -2.775158e+00 1.251016e-02 8.818359e-03 -6.094084e-03
Al 1.469567e-08 1.806291e+00 5.013378e+00 -1.173690e-02 -8.228400e-03 -6.343200e-03
Ga 1.469567e-08 1.806291e+00 -5.283635e+00 -1.486487e-02 -1.111204e-02 -7.237342e-03
Al 1.469567e-08 1.806291e+00 -2.666800e-01 -1.184415e-02 -8.490992e-03 3.392758e-02
Al 3.173845e+00 -3.690969e+00 5.013378e+00 -1.156939e-02 -5.367541e-03 -5.090264e-03
Al 3.173845e+00 -3.690969e+00 -5.283635e+00 -1.265500e-02 -5.441223e-03 -5.207738e-03
Al 3.173845e+00 -3.690969e+00 -2.666800e-01 -1.214566e-02 -5.452535e-03 3.534833e-02
Al 1.609551e+00 -9.815320e-01 5.013378e+00 -1.367029e-02 8.222069e-03 -6.518511e-03
Al 1.609551e+00 -9.815320e-01 -5.283635e+00 -1.363944e-02 7.903725e-03 -6.867706e-03
Ga 1.609551e+00 -9.815320e-01 -2.666800e-01 -1.573401e-02 9.467775e-03 4.157641e-02
Al 3.128588e+00 1.806291e+00 5.013378e+00 -1.927829e-04 -3.083131e-03 -4.735117e-03
Al 3.128588e+00 1.806291e+00 -5.283635e+00 5.059880e-04 -3.293649e-03 -4.653606e-03
Al 3.128588e+00 1.806291e+00 -2.666800e-01 4.463201e-04 -3.374662e-03 3.619324e-02
Al 6.302433e+00 -3.690969e+00 5.013378e+00 -7.974831e-05 -4.857188e-04 -3.122862e-03
Ga 6.302433e+00 -3.690969e+00 -5.283635e+00 3.136660e-04 -5.928540e-04 -2.595853e-03
Al 6.302433e+00 -3.690969e+00 -2.666800e-01 2.012830e-04 -5.525118e-04 3.756771e-02
Ga 4.738139e+00 -9.815320e-01 5.013378e+00 -8.644988e-04 1.681370e-02 -5.557163e-03
Ga 4.738139e+00 -9.815320e-01 -5.283635e+00 -1.409258e-03 1.750450e-02 -6.111542e-03
Al 4.738139e+00 -9.815320e-01 -2.666800e-01 -1.634553e-03 1.367849e-02 3.628236e-02
Ga -3.219102e+00 1.806291e+00 5.013378e+00 3.448776e-03 -2.265378e-03 -4.632253e-03
Al -3.219102e+00 1.806291e+00 -5.283635e+00 2.564011e-03 -1.350408e-03 -5.676653e-03
Al -3.219102e+00 1.806291e+00 -2.666800e-01 2.859136e-03 -2.134410e-03 3.585877e-02
Ga -4.525703e-02 -3.690969e+00 5.013378e+00 2.459556e-03 1.410329e-03 -2.737706e-03
Al -4.525703e-02 -3.690969e+00 -5.283635e+00 3.295634e-03 1.004977e-03 -4.688431e-03
Al -4.525703e-02 -3.690969e+00 -2.666800e-01 2.856314e-03 8.805291e-04 3.667861e-02
Al -1.609551e+00 -9.815320e-01 5.013378e+00 1.116189e-03 1.486376e-02 -4.948894e-03
Ga -1.609551e+00 -9.815320e-01 -5.283635e+00 2.518074e-03 1.856380e-02 -7.188050e-03
Ga -1.609551e+00 -9.815320e-01 -2.666800e-01 1.839296e-03 1.837604e-02 4.467268e-02
N 1.564294e+00 9.031460e-01 4.418497e+00 -5.393383e-04 -1.395625e-02 5.790197e-03
N 1.564294e+00 9.031460e-01 -5.878516e+00 1.810748e-02 -2.448444e-02 -2.043901e-03
N 1.564294e+00 9.031460e-01 -8.615610e-01 -1.133705e-03 3.939886e-03 7.618252e-04
N 2.938992e-08 3.612582e+00 4.418497e+00 -2.243365e-03 1.647102e-04 3.377958e-03
N 2.938992e-08 3.612582e+00 -5.878516e+00 -2.116592e-02 1.120073e-02 -1.299210e-02
N 2.938992e-08 3.612582e+00 -8.615610e-01 -1.896443e-03 3.018913e-04 3.861179e-03
N 3.173845e+00 -1.884678e+00 4.418497e+00 -2.207794e-02 -9.352959e-03 -5.454011e-03
N 3.173845e+00 -1.884678e+00 -5.878516e+00 -2.102983e-02 -9.405155e-03 1.808347e-02
N 3.173845e+00 -1.884678e+00 -8.615610e-01 1.591645e-02 -9.278837e-03 2.001846e-02
N -4.783396e+00 9.031460e-01 4.418497e+00 -1.857019e-02 -6.544955e-03 -8.036226e-03
N -4.783396e+00 9.031460e-01 -5.878516e+00 6.315825e-04 4.128967e-03 -1.035546e-03
N -4.783396e+00 9.031460e-01 -8.615610e-01 9.917768e-04 -1.351699e-02 3.001230e-02
N -6.347690e+00 3.612582e+00 4.418497e+00 -1.921350e-02 -1.071148e-02 -4.474968e-03
N -6.347690e+00 3.612582e+00 -5.878516e+00 1.832228e-02 -1.040363e-02 1.902277e-02
N -6.347690e+00 3.612582e+00 -8.615610e-01 -4.997167e-04 4.788937e-04 2.799349e-02
N -3.173845e+00 -1.884678e+00 4.418497e+00 1.824122e-02 -8.727337e-03 1.895779e-02
N -3.173845e+00 -1.884678e+00 -5.878516e+00 -1.337146e-03 2.174365e-03 -2.116820e-02
N -3.173845e+00 -1.884678e+00 -8.615610e-01 -1.983131e-02 -9.090732e-03 2.091826e-02
N -1.654808e+00 9.031460e-01 4.418497e+00 3.231058e-02 -1.891972e-02 -5.958028e-05
N -1.654808e+00 9.031460e-01 -5.878516e+00 -2.075581e-03 1.023734e-03 1.874918e-02
N -1.654808e+00 9.031460e-01 -8.615610e-01 1.340795e-02 9.656552e-03 2.648221e-02
N -3.219102e+00 3.612582e+00 4.418497e+00 3.103431e-02 1.727744e-02 1.367805e-02
N -3.219102e+00 3.612582e+00 -5.878516e+00 1.210349e-02 5.955518e-03 4.979279e-03
N -3.219102e+00 3.612582e+00 -8.615610e-01 1.225707e-02 6.083999e-03 2.988723e-02
N -4.525702e-02 -1.884678e+00 4.418497e+00 1.187808e-02 2.938666e-02 2.095068e-02
N -4.525702e-02 -1.884678e+00 -5.878516e+00 3.006225e-02 -3.468706e-03 -2.315652e-03
N -4.525702e-02 -1.884678e+00 -8.615610e-01 1.448912e-02 -1.145449e-02 -6.428408e-03
N 1.469567e-08 1.806291e+00 1.910020e+00 -1.168836e-02 -7.808364e-03 -2.881481e-02
N 1.469567e-08 1.806291e+00 6.926975e+00 4.065816e-03 9.950108e-04 -1.540210e-03
N 1.469567e-08 1.806291e+00 -3.370038e+00 3.942978e-03 1.242622e-03 2.244665e-02
N 3.173845e+00 -3.690969e+00 1.910020e+00 3.596553e-03 2.837240e-03 -3.449242e-02
N 3.173845e+00 -3.690969e+00 6.926975e+00 -1.245327e-02 -2.810832e-02 -2.370895e-03
N 3.173845e+00 -3.690969e+00 -3.370038e+00 4.018567e-03 -1.959563e-02 -8.190602e-03
N 1.609551e+00 -9.815320e-01 1.910020e+00 1.514488e-03 1.685610e-02 -2.057073e-02
N 1.609551e+00 -9.815320e-01 6.926975e+00 -3.246624e-02 1.859333e-02 2.587036e-04
N 1.609551e+00 -9.815320e-01 -3.370038e+00 -3.228270e-02 1.878352e-02 -3.478070e-04
N 3.128588e+00 1.806291e+00 1.910020e+00 1.168354e-03 -1.926572e-03 -3.166691e-02
N 3.128588e+00 1.806291e+00 6.926975e+00 1.160972e-03 -2.385471e-02 -5.165209e-03
N 3.128588e+00 1.806291e+00 -3.370038e+00 -1.779119e-02 -1.268177e-02 -1.278762e-02
N 6.302433e+00 -3.690969e+00 1.910020e+00 6.762014e-04 -2.239957e-02 -3.888557e-02
N 6.302433e+00 -3.690969e+00 6.926975e+00 -1.852722e-02 1.071498e-02 -5.175998e-03
N 6.302433e+00 -3.690969e+00 -3.370038e+00 -1.872982e-02 -1.117107e-02 1.086136e-02
N 4.738139e+00 -9.815320e-01 1.910020e+00 -1.997720e-02 2.474747e-02 -3.700742e-02
N 4.738139e+00 -9.815320e-01 6.926975e+00 1.804394e-02 2.481066e-02 2.070800e-02
N 4.738139e+00 -9.815320e-01 -3.370038e+00 -1.328923e-04 1.770964e-02 7.098174e-03
N -3.219102e+00 1.806291e+00 1.910020e+00 2.869763e-03 -2.389896e-02 -4.068437e-02
N -3.219102e+00 1.806291e+00 6.926975e+00 -1.609349e-02 9.518713e-03 1.820775e-02
N -3.219102e+00 1.806291e+00 -3.370038e+00 3.062273e-03 -1.866358e-03 -2.103542e-02
N -4.525703e-02 -3.690969e+00 1.910020e+00 -1.667824e-02 -1.065468e-02 -4.765981e-02
N -4.525703e-02 -3.690969e+00 6.926975e+00 2.135480e-02 1.094730e-02 1.867566e-02
N -4.525703e-02 -3.690969e+00 -3.370038e+00 1.890198e-03 2.184127e-02 -1.254632e-02
N -1.609551e+00 -9.815320e-01 1.910020e+00 1.002107e-03 3.619698e-02 -3.338272e-02
N -1.609551e+00 -9.815320e-01 6.926975e+00 1.359137e-03 -4.113078e-03 -1.561584e-03
N -1.609551e+00 -9.815320e-01 -3.370038e+00 1.951782e-02 7.275325e-03 1.411190e-02
