108
Energy=-1.443720e+06 Lattice="9.476278e+00 0.000000e+00 0.000000e+00 -4.738139e+00 8.206697e+00 0.000000e+00 9.377101e-16 1.624162e-15 1.531397e+01" Stress="-2.982618e-02 6.159273e-03 5.319346e-05 6.152394e-03 -2.237235e-02 -2.530321e-04 3.617001e-05 -2.576150e-04 -1.828800e-02" Properties=species:S:1:pos:R:3:forces:R:3 Config_type=AlGaN_super3_22_2_0.xyz
Al 1.564294e+00 9.031460e-01 2.504900e+00 -1.060303e-03 -1.452157e-02 -1.230335e-02
Al 1.564294e+00 9.031460e-01 7.521855e+00 -1.366095e-03 -1.475506e-02 -5.530321e-03
Al 1.564294e+00 9.031460e-01 -2.775158e+00 -1.619242e-03 -1.452734e-02 -6.588316e-03
Al 2.938992e-08 3.612582e+00 2.504900e+00 -3.962669e-03 -1.111447e-03 -1.177079e-02
Al 2.938992e-08 3.612582e+00 7.521855e+00 -2.630461e-03 -1.546292e-03 -2.419372e-03
Al 2.938992e-08 3.612582e+00 -2.775158e+00 -2.792967e-03 -1.492810e-03 -5.176653e-03
Al 3.173845e+00 -1.884678e+00 2.504900e+00 -3.076492e-03 9.329758e-04 -1.280435e-02
Al 3.173845e+00 -1.884678e+00 7.521855e+00 -3.649334e-03 2.034067e-03 -3.926617e-03
Ga 3.173845e+00 -1.884678e+00 -2.775158e+00 -3.108010e-03 1.772130e-03 -5.161609e-03
Al -4.783396e+00 9.031460e-01 2.504900e+00 1.328050e-03 -1.316823e-02 -1.099028e-02
Ga -4.783396e+00 9.031460e-01 7.521855e+00 3.904981e-04 -1.718249e-02 -4.634009e-03
Ga -4.783396e+00 9.031460e-01 -2.775158e+00 5.454214e-04 -1.703985e-02 -6.133970e-03
Ga -6.347690e+00 3.612582e+00 2.504900e+00 5.696122e-05 -2.945105e-04 -1.082012e-02
Al -6.347690e+00 3.612582e+00 7.521855e+00 -7.713100e-04 -7.828492e-05 -1.613856e-03
Al -6.347690e+00 3.612582e+00 -2.775158e+00 -1.306214e-04 5.164588e-04 -4.321840e-03
Ga -3.173845e+00 -1.884678e+00 2.504900e+00 -8.640869e-04 3.057233e-03 -1.241786e-02
Al -3.173845e+00 -1.884678e+00 7.521855e+00 -4.376204e-05 2.997166e-03 -2.891942e-03
Al -3.173845e+00 -1.884678e+00 -2.775158e+00 -4.383146e-04 3.063373e-03 -5.269163e-03
Ga -1.654808e+00 9.031460e-01 2.504900e+00 1.628545e-02 -8.851654e-03 -1.644859e-02
Al -1.654808e+00 9.031460e-01 7.521855e+00 1.413574e-02 -8.080918e-03 -5.966073e-03
Ga -1.654808e+00 9.031460e-01 -2.775158e+00 1.670785e-02 -9.340823e-03 -9.130989e-03
Al -3.219102e+00 3.612582e+00 2.504900e+00 1.280501e-02 5.474365e-03 -1.117881e-02
Ga -3.219102e+00 3.612582e+00 7.521855e+00 1.551591e-02 7.917600e-03 -4.453938e-03
Al -3.219102e+00 3.612582e+00 -2.775158e+00 1.200312e-02 5.689737e-03 -5.403583e-03
Al -4.525702e-02 -1.884678e+00 2.504900e+00 1.240306e-02 8.087595e-03 -1.202035e-02
Ga -4.525702e-02 -1.884678e+00 7.521855e+00 1.490216e-02 1.144704e-02 -6.599309e-03
Al -4.525702e-02 -1.884678e+00 -2.775158e+00 1.207285e-02 8.158668e-03 -6.441081e-03
Ga 1.469567e-08 1.806291e+00 5.013378e+00 -1.479558e-02 -1.153303e-02 -6.654168e-03
Al 1.469567e-08 1.806291e+00 -5.283635e+00 -1.207444e-02 -8.382671e-03 -5.838056e-03
Ga 1.469567e-08 1.806291e+00 -2.666800e-01 -1.495596e-02 -1.105571e-02 4.407555e-02
Ga 3.173845e+00 -3.690969e+00 5.013378e+00 -1.571309e-02 -8.149074e-03 -6.399943e-03
Al 3.173845e+00 -3.690969e+00 -5.283635e+00 -1.212662e-02 -5.583698e-03 -4.503381e-03
Al 3.173845e+00 -3.690969e+00 -2.666800e-01 -1.220637e-02 -5.643350e-03 3.547952e-02
Al 1.609551e+00 -9.815320e-01 5.013378e+00 -1.415821e-02 8.125273e-03 -6.799078e-03
Ga 1.609551e+00 -9.815320e-01 -5.283635e+00 -1.561559e-02 9.407711e-03 -8.950600e-03
Ga 1.609551e+00 -9.815320e-01 -2.666800e-01 -1.605646e-02 9.631609e-03 4.162899e-02
Al 3.128588e+00 1.806291e+00 5.013378e+00 5.898112e-04 -3.582212e-03 -4.119034e-03
Al 3.128588e+00 1.806291e+00 -5.283635e+00 5.832014e-04 -3.273057e-03 -4.234888e-03
Al 3.128588e+00 1.806291e+00 -2.666800e-01 3.812247e-04 -3.782499e-03 3.629468e-02
Ga 6.302433e+00 -3.690969e+00 5.013378e+00 6.146140e-04 -2.126187e-04 -1.552378e-03
Al 6.302433e+00 -3.690969e+00 -5.283635e+00 9.594842e-05 -4.077841e-04 -2.964408e-03
Ga 6.302433e+00 -3.690969e+00 -2.666800e-01 -2.562738e-04 -4.499475e-04 4.838430e-02
Ga 4.738139e+00 -9.815320e-01 5.013378e+00 -7.053272e-04 1.785172e-02 -5.424898e-03
Al 4.738139e+00 -9.815320e-01 -5.283635e+00 -1.521025e-03 1.368903e-02 -4.710338e-03
Ga 4.738139e+00 -9.815320e-01 -2.666800e-01 -1.078994e-03 1.751918e-02 4.584727e-02
Al -3.219102e+00 1.806291e+00 5.013378e+00 2.831182e-03 -1.740991e-03 -5.315791e-03
Al -3.219102e+00 1.806291e+00 -5.283635e+00 3.031054e-03 -2.111988e-03 -4.832765e-03
Al -3.219102e+00 1.806291e+00 -2.666800e-01 2.903167e-03 -1.793663e-03 3.560154e-02
Ga -4.525703e-02 -3.690969e+00 5.013378e+00 3.157859e-03 1.298873e-03 -3.975678e-03
Al -4.525703e-02 -3.690969e+00 -5.283635e+00 2.929607e-03 4.674096e-04 -2.876596e-03
Ga -4.525703e-02 -3.690969e+00 -2.666800e-01 3.632486e-03 8.941020e-04 4.726847e-02
Al -1.609551e+00 -9.815320e-01 5.013378e+00 1.788818e-03 1.475161e-02 -5.072886e-03
Ga -1.609551e+00 -9.815320e-01 -5.283635e+00 1.522681e-03 1.874985e-02 -6.475947e-03
Ga -1.609551e+00 -9.815320e-01 -2.666800e-01 2.231609e-03 1.898893e-02 4.422905e-02
N 1.564294e+00 9.031460e-01 4.418497e+00 1.808520e-02 -2.388777e-02 -2.019460e-03
N 1.564294e+00 9.031460e-01 -5.878516e+00 -1.331662e-03 3.974333e-03 -8.218193e-04
N 1.564294e+00 9.031460e-01 -8.615610e-01 1.729511e-02 -6.937819e-03 -5.951597e-03
N 2.938992e-08 3.612582e+00 4.418497e+00 -2.074809e-03 -8.878758e-05 -1.998919e-02
N 2.938992e-08 3.612582e+00 -5.878516e+00 -1.927149e-03 2.637413e-04 2.795645e-03
N 2.938992e-08 3.612582e+00 -8.615610e-01 -2.078810e-02 1.111119e-02 -1.027403e-02
N 3.173845e+00 -1.884678e+00 4.418497e+00 -2.121255e-02 1.253195e-02 -1.299277e-02
N 3.173845e+00 -1.884678e+00 -5.878516e+00 1.598721e-02 -9.461284e-03 -5.844995e-03
N 3.173845e+00 -1.884678e+00 -8.615610e-01 -2.698664e-03 -1.976790e-02 1.365550e-02
N -4.783396e+00 9.031460e-01 4.418497e+00 4.133890e-04 4.438849e-03 -6.462818e-04
N -4.783396e+00 9.031460e-01 -5.878516e+00 7.890410e-04 -1.353533e-02 2.841459e-02
N -4.783396e+00 9.031460e-01 -8.615610e-01 7.137822e-04 3.748958e-03 2.430668e-02
N -6.347690e+00 3.612582e+00 4.418497e+00 -8.730682e-04 -2.181322e-02 1.147799e-02
N -6.347690e+00 3.612582e+00 -5.878516e+00 -3.646974e-04 7.597838e-04 3.338084e-03
N -6.347690e+00 3.612582e+00 -8.615610e-01 -6.436342e-04 -2.112008e-02 -9.152349e-03
N -3.173845e+00 -1.884678e+00 4.418497e+00 1.766595e-02 1.278952e-02 1.119741e-02
N -3.173845e+00 -1.884678e+00 -5.878516e+00 -1.994743e-02 -9.395757e-03 -5.349050e-03
N -3.173845e+00 -1.884678e+00 -8.615610e-01 -1.214296e-03 2.008696e-03 -1.662891e-02
N -1.654808e+00 9.031460e-01 4.418497e+00 -1.815902e-03 -1.639463e-02 2.593786e-02
N -1.654808e+00 9.031460e-01 -5.878516e+00 1.324677e-02 9.765955e-03 1.221558e-03
N -1.654808e+00 9.031460e-01 -8.615610e-01 -2.082229e-03 1.171323e-03 2.130254e-02
N -3.219102e+00 3.612582e+00 4.418497e+00 1.534084e-02 -1.367763e-02 -8.407052e-03
N -3.219102e+00 3.612582e+00 -5.878516e+00 1.207227e-02 6.540020e-03 2.890926e-02
N -3.219102e+00 3.612582e+00 -8.615610e-01 3.076256e-02 -4.906127e-03 -7.220126e-04
N -4.525702e-02 -1.884678e+00 4.418497e+00 1.111041e-02 2.922949e-02 -2.749695e-03
N -4.525702e-02 -1.884678e+00 -5.878516e+00 1.495107e-02 -1.160877e-02 1.460839e-02
N -4.525702e-02 -1.884678e+00 -8.615610e-01 1.458069e-02 9.956773e-03 -1.296165e-02
N 1.469567e-08 1.806291e+00 1.910020e+00 4.164895e-03 6.028830e-04 -2.414380e-02
N 1.469567e-08 1.806291e+00 6.926975e+00 -1.181884e-02 -6.936237e-03 2.846996e-02
N 1.469567e-08 1.806291e+00 -3.370038e+00 4.030961e-03 1.041901e-03 -1.544821e-03
N 3.173845e+00 -3.690969e+00 1.910020e+00 -1.204349e-02 -5.756867e-03 -2.939239e-02
N 3.173845e+00 -3.690969e+00 6.926975e+00 3.521297e-03 2.402623e-03 2.262775e-02
N 3.173845e+00 -3.690969e+00 -3.370038e+00 -1.208794e-02 -2.846740e-02 -2.045706e-03
N 1.609551e+00 -9.815320e-01 1.910020e+00 -1.417200e-02 8.295223e-03 -1.448984e-02
N 1.609551e+00 -9.815320e-01 6.926975e+00 2.292074e-03 1.595314e-02 1.131611e-03
N 1.609551e+00 -9.815320e-01 -3.370038e+00 -3.270610e-02 1.894939e-02 2.291721e-02
N 3.128588e+00 1.806291e+00 1.910020e+00 7.516084e-04 -2.407886e-02 -3.982537e-02
N 3.128588e+00 1.806291e+00 6.926975e+00 -1.764430e-02 9.551350e-03 -5.058417e-03
N 3.128588e+00 1.806291e+00 -3.370038e+00 -1.785402e-02 9.012114e-03 -4.757370e-03
N 6.302433e+00 -3.690969e+00 1.910020e+00 -1.828059e-02 -1.144741e-02 -3.597453e-02
N 6.302433e+00 -3.690969e+00 6.926975e+00 3.334049e-04 -9.715488e-05 2.667703e-02
N 6.302433e+00 -3.690969e+00 -3.370038e+00 3.799549e-04 -2.512629e-04 2.758507e-03
N 4.738139e+00 -9.815320e-01 1.910020e+00 -1.998484e-02 2.469240e-02 -2.540934e-02
N 4.738139e+00 -9.815320e-01 6.926975e+00 -2.947826e-04 -4.371393e-03 2.259059e-02
N 4.738139e+00 -9.815320e-01 -3.370038e+00 1.883332e-02 6.900077e-03 -8.496142e-03
N -3.219102e+00 1.806291e+00 1.910020e+00 -1.620822e-02 9.189447e-03 -3.994233e-02
N -3.219102e+00 1.806291e+00 6.926975e+00 2.144040e-02 -1.220480e-02 -1.360857e-02
N -3.219102e+00 1.806291e+00 -3.370038e+00 2.901894e-03 2.015933e-02 -1.301264e-02
N -4.525703e-02 -3.690969e+00 1.910020e+00 2.089381e-02 1.147245e-02 -2.849118e-02
N -4.525703e-02 -3.690969e+00 6.926975e+00 -1.643158e-02 -1.109198e-02 1.073867e-02
N -4.525703e-02 -3.690969e+00 -3.370038e+00 2.126809e-03 -9.150796e-05 2.626567e-03
N -1.609551e+00 -9.815320e-01 1.910020e+00 2.044014e-02 7.369140e-03 -3.148372e-02
N -1.609551e+00 -9.815320e-01 6.926975e+00 -1.846583e-02 2.415537e-02 -3.306275e-03
N -1.609551e+00 -9.815320e-01 -3.370038e+00 1.174106e-03 -3.477542e-03 2.209849e-02
