108
Energy=-9.401945e+05 Lattice="9.454842e+00 0.000000e+00 0.000000e+00 -4.729215e+00 8.185925e+00 0.000000e+00 -1.328896e-03 9.058104e-05 1.521889e+01" Stress="2.067036e-04 -6.919151e-05 2.748462e-05 -7.690553e-05 -3.319931e-04 8.944920e-05 2.583747e-05 8.091055e-05 7.876209e-04" Properties=species:S:1:pos:R:3:forces:R:3 Config_type=AlGaN_super3_11_1_63.xyz
Al 1.550464e+00 8.739520e-01 2.397101e+00 2.306882e-06 1.438227e-05 4.438344e-06
Al 1.550401e+00 8.765132e-01 7.446133e+00 7.806491e-06 1.628339e-05 1.920669e-05
Al 1.543007e+00 8.675993e-01 -2.684395e+00 -2.128527e-05 -1.034195e-06 7.340538e-06
Al -1.129562e-02 3.594811e+00 2.376580e+00 2.338372e-05 -4.954474e-06 -2.349584e-05
Al -1.020324e-02 3.587734e+00 7.446348e+00 6.672584e-06 -3.814318e-06 -2.535249e-05
Al -2.401037e-02 3.582953e+00 -2.658334e+00 -2.052039e-05 5.473633e-07 -6.712897e-06
Al 3.140470e+00 -1.844872e+00 2.373341e+00 1.617343e-05 -7.670240e-06 -6.584512e-06
Al 3.142732e+00 -1.836524e+00 7.462757e+00 1.463305e-05 -1.069457e-09 -8.341518e-06
Al 3.124758e+00 -1.847284e+00 -2.672789e+00 1.348027e-06 9.662609e-06 -1.458646e-05
Al -4.748440e+00 8.608217e-01 2.400243e+00 1.387960e-06 -1.201639e-05 1.197005e-05
Al -4.751405e+00 8.586530e-01 7.442332e+00 1.668859e-05 1.584910e-05 -2.804694e-05
Al -4.745642e+00 8.688284e-01 -2.682600e+00 1.338465e-05 1.456447e-05 2.202898e-05
Al -6.348108e+00 3.593013e+00 2.412756e+00 -1.346893e-05 -9.347802e-06 1.308714e-05
Al -6.337490e+00 3.592471e+00 7.438521e+00 2.733727e-06 -1.920085e-05 -3.351459e-05
Al -6.325121e+00 3.594399e+00 -2.677879e+00 7.949542e-06 -5.610273e-06 9.218727e-06
Al -3.181899e+00 -1.858373e+00 2.382238e+00 -5.225989e-06 1.448621e-05 -7.082834e-06
Al -3.186662e+00 -1.852610e+00 7.444781e+00 -3.446709e-06 -9.285621e-06 1.523513e-05
Ga -3.176596e+00 -1.851319e+00 -2.667864e+00 9.171277e-06 -7.215646e-07 -1.766439e-05
Al -1.598513e+00 8.715407e-01 2.384907e+00 1.742026e-05 9.098693e-06 3.394052e-06
Al -1.598616e+00 8.721283e-01 7.459280e+00 4.053131e-06 1.712300e-05 5.421936e-06
Al -1.592416e+00 8.779060e-01 -2.684963e+00 -2.772067e-06 7.678078e-06 -5.157645e-07
Ga -3.164710e+00 3.583854e+00 2.389734e+00 5.609797e-06 6.497199e-07 -5.542484e-06
Ga -3.182473e+00 3.583971e+00 7.470579e+00 1.708328e-05 -1.142508e-05 -1.192612e-05
Al -3.174487e+00 3.589629e+00 -2.684638e+00 -1.053514e-05 -1.197885e-05 -6.240251e-06
Ga -2.355836e-02 -1.838281e+00 2.404572e+00 -7.954223e-06 5.199587e-06 -9.676869e-06
Ga -2.611552e-02 -1.850555e+00 7.462344e+00 5.926879e-06 -8.634415e-06 -6.453724e-06
Al -1.468812e-02 -1.848841e+00 -2.696750e+00 -4.229869e-06 -5.240997e-06 -2.174783e-05
Al -2.248753e-02 1.770347e+00 4.914035e+00 -1.323006e-06 5.927284e-07 -5.792612e-06
Al -3.188387e-02 1.764996e+00 -5.220833e+00 7.923564e-06 -8.396071e-06 -2.048260e-06
Al -3.265342e-02 1.775788e+00 -1.453188e-01 -1.733120e-05 4.362887e-06 -1.292298e-05
Ga 3.139867e+00 -3.668089e+00 4.929120e+00 -6.756403e-06 5.807400e-06 -1.123583e-05
Ga 3.132735e+00 -3.671484e+00 -5.205987e+00 2.579462e-06 6.448861e-06 -8.500975e-06
Al 3.142419e+00 -3.674077e+00 -1.618451e-01 3.883148e-06 -3.084546e-06 -1.569624e-05
Al 1.559882e+00 -9.355406e-01 4.926174e+00 -1.341578e-05 3.106251e-06 1.115691e-05
Al 1.552673e+00 -9.438290e-01 -5.212413e+00 1.087509e-05 7.970351e-06 -2.076995e-06
Al 1.554908e+00 -9.435026e-01 -1.593007e-01 3.151946e-06 2.443267e-06 2.085609e-06
Al 3.126999e+00 1.777055e+00 4.918272e+00 3.540827e-06 -9.724581e-07 -2.099644e-05
Ga 3.134669e+00 1.769738e+00 -5.223336e+00 -7.141455e-07 -3.192520e-06 -1.696171e-05
Ga 3.124713e+00 1.769443e+00 -1.402023e-01 -2.290070e-05 8.207182e-06 -7.851700e-06
Al 6.286439e+00 -3.674585e+00 4.919905e+00 2.537025e-06 2.269505e-06 -1.598945e-05
Ga 6.284920e+00 -3.673172e+00 -5.230112e+00 2.598988e-06 2.691424e-06 -2.153070e-05
Al 6.270223e+00 -3.676756e+00 -1.309825e-01 2.034134e-05 -2.947223e-05 -2.584761e-06
Al 4.707993e+00 -9.435951e-01 4.913793e+00 -3.235103e-06 3.819404e-06 -1.503162e-05
Al 4.707265e+00 -9.377934e-01 -5.231040e+00 -8.034571e-06 -1.159275e-05 -6.357270e-06
Al 4.704821e+00 -9.501531e-01 -1.308695e-01 1.473100e-05 -1.038807e-05 7.944365e-06
Al -3.174779e+00 1.758637e+00 4.925642e+00 -1.154710e-06 1.594103e-05 6.861004e-07
Al -3.168960e+00 1.760993e+00 -5.212668e+00 3.215574e-05 2.092068e-06 8.502131e-06
Al -3.160634e+00 1.763503e+00 -1.575871e-01 4.275732e-05 1.666802e-05 -1.062731e-05
Al -3.865666e-02 -3.680105e+00 4.921753e+00 1.444484e-06 -1.663315e-05 -6.940658e-06
Al -2.471005e-02 -3.673429e+00 -5.194737e+00 6.572551e-06 -2.922792e-06 5.690152e-06
Ga -2.180280e-02 -3.668680e+00 -1.595544e-01 -2.844287e-06 2.407939e-06 -2.188948e-05
Al -1.609814e+00 -9.396977e-01 4.923344e+00 -2.688053e-05 8.172985e-06 -2.542540e-05
Al -1.597410e+00 -9.347334e-01 -5.225781e+00 1.568738e-05 1.295545e-05 -7.738113e-06
Al -1.599249e+00 -9.336383e-01 -1.457614e-01 -2.603077e-05 2.902558e-05 8.723245e-06
N 1.549441e+00 8.701788e-01 4.316463e+00 -2.520171e-06 -1.046395e-05 1.917966e-05
N 1.509781e+00 8.470689e-01 -5.850779e+00 9.549523e-07 -4.873292e-06 -4.308862e-06
N 1.506990e+00 8.500586e-01 -7.725256e-01 -5.036891e-06 1.471331e-05 -1.147881e-05
N 1.893992e-02 3.573424e+00 4.293993e+00 4.115061e-06 4.915122e-06 2.861123e-05
N -2.264547e-02 3.546167e+00 -5.866299e+00 1.293040e-06 1.219147e-06 1.233276e-05
N -1.873663e-02 3.592146e+00 -7.397601e-01 5.551444e-06 -1.655847e-07 6.826209e-06
N 3.128188e+00 -1.807787e+00 4.286340e+00 9.420128e-06 -2.369886e-06 -4.415449e-06
N 3.129345e+00 -1.805738e+00 -5.842176e+00 5.888344e-06 1.332331e-05 2.983861e-05
N 3.132548e+00 -1.850356e+00 -7.515798e-01 1.037193e-06 3.005075e-06 2.955619e-06
N -4.749145e+00 8.694470e-01 4.319185e+00 1.248370e-05 -1.197963e-05 1.698872e-05
N -4.706287e+00 8.485379e-01 -5.859005e+00 -1.365175e-05 -1.858509e-05 5.043826e-06
N -4.708206e+00 8.417493e-01 -7.698846e-01 -4.592328e-05 -7.464501e-06 -4.081422e-05
N -6.334368e+00 3.597420e+00 4.325608e+00 1.037361e-06 -6.120205e-06 2.081998e-05
N -6.281368e+00 3.620835e+00 -5.870290e+00 8.896169e-06 -1.884684e-06 2.514777e-05
N -6.371984e+00 3.620489e+00 -7.802878e-01 -2.253906e-05 1.240524e-05 1.736124e-05
N -3.175284e+00 -1.858730e+00 4.309701e+00 1.031853e-06 -1.545799e-05 1.557635e-05
N -3.174018e+00 -1.808480e+00 -5.852208e+00 -7.288780e-06 -1.292469e-05 -5.094115e-05
N -3.175067e+00 -1.856881e+00 -6.888979e-01 -2.554517e-05 7.815777e-06 3.096440e-06
N -1.598129e+00 8.714960e-01 4.304578e+00 1.700399e-05 -3.973787e-06 9.641818e-06
N -1.597773e+00 8.731184e-01 -5.835262e+00 1.547879e-05 -7.876970e-06 1.128082e-05
N -1.594470e+00 8.707316e-01 -7.648970e-01 2.806996e-06 -8.743031e-06 4.713624e-06
N -3.211164e+00 3.571371e+00 4.360536e+00 4.753919e-06 -1.270551e-05 7.845006e-06
N -3.217900e+00 3.572036e+00 -5.772570e+00 -6.928008e-06 2.246317e-06 6.699209e-06
N -3.133391e+00 3.570186e+00 -7.667680e-01 -9.866205e-06 6.611864e-07 6.810962e-06
N -2.216204e-02 -1.849906e+00 4.381911e+00 3.445739e-05 -7.699666e-06 5.503537e-06
N -2.054509e-02 -1.859565e+00 -5.770047e+00 5.165123e-06 -2.206813e-05 -4.890886e-06
N -2.400991e-02 -1.804226e+00 -7.784797e-01 9.225018e-06 -4.811662e-06 3.610998e-06
N -2.337708e-02 1.775672e+00 1.778965e+00 -2.786211e-06 6.859608e-06 8.246047e-06
N -2.734039e-02 1.775109e+00 6.836181e+00 5.456954e-06 3.025766e-06 8.522659e-06
N -2.395529e-02 1.781894e+00 -3.296188e+00 -9.957030e-06 4.772658e-06 2.102695e-05
N 3.173644e+00 -3.652228e+00 1.761039e+00 -4.328934e-05 1.908123e-05 6.567760e-06
N 3.170339e+00 -3.649138e+00 6.901589e+00 9.820640e-07 -7.306766e-06 -4.851088e-06
N 3.137604e+00 -3.673910e+00 -3.222649e+00 2.883176e-05 6.583375e-06 8.663388e-06
N 1.593320e+00 -9.208955e-01 1.756649e+00 -1.685941e-05 -1.385950e-06 3.300106e-06
N 1.596937e+00 -9.243193e-01 6.836311e+00 -2.381828e-05 -9.112646e-06 -2.397283e-05
N 1.560044e+00 -9.459619e-01 -3.292598e+00 -5.272171e-06 8.882487e-06 1.372192e-05
N 3.129952e+00 1.778506e+00 1.843739e+00 -3.192365e-05 2.475899e-05 -1.710458e-05
N 3.127209e+00 1.775781e+00 6.846973e+00 -4.609339e-06 -5.105448e-07 1.229207e-05
N 3.128904e+00 1.775934e+00 -3.238908e+00 1.961609e-05 4.441959e-06 -3.127295e-07
N 6.284249e+00 -3.678986e+00 1.787707e+00 5.104278e-06 5.803982e-06 9.389479e-06
N 6.278727e+00 -3.674002e+00 6.845020e+00 1.132591e-06 4.271705e-07 1.105624e-05
N 6.276740e+00 -3.723488e+00 -3.259680e+00 -1.127638e-05 1.096020e-05 1.190265e-05
N 4.705843e+00 -9.439241e-01 1.784935e+00 7.221631e-07 1.327521e-06 6.287052e-06
N 4.703106e+00 -9.502366e-01 6.833713e+00 1.197420e-05 4.142599e-06 1.450063e-05
N 4.664192e+00 -9.262113e-01 -3.315329e+00 -2.096066e-05 -1.584755e-05 2.448306e-05
N -3.175637e+00 1.726320e+00 1.757031e+00 -1.628546e-05 1.933826e-05 1.741466e-05
N -3.172356e+00 1.726703e+00 6.834026e+00 -1.017577e-05 -1.933910e-05 -1.520678e-05
N -3.172890e+00 1.771949e+00 -3.291155e+00 -4.513733e-06 5.500815e-06 1.364412e-05
N -6.558700e-02 -3.698332e+00 1.806100e+00 -2.056782e-06 1.356807e-05 3.444461e-06
N -6.315708e-02 -3.699147e+00 6.819193e+00 4.808141e-06 8.527665e-06 6.644870e-06
N -2.393201e-02 -3.678355e+00 -3.272977e+00 -1.279147e-05 2.557238e-06 7.121661e-06
N -1.637126e+00 -9.226293e-01 1.768350e+00 -5.796266e-06 -3.707991e-05 -2.535011e-05
N -1.642912e+00 -9.213179e-01 6.837013e+00 3.112284e-06 -6.873274e-06 2.447165e-05
N -1.563117e+00 -9.209750e-01 -3.310288e+00 1.487695e-05 -1.615618e-05 2.661561e-05
