108
Energy=-1.626827e+06 Lattice="9.539825e+00 0.000000e+00 0.000000e+00 -4.773664e+00 8.257151e+00 0.000000e+00 3.228048e-03 1.209164e-02 1.542050e+01" Stress="1.494728e-04 -2.153935e-04 1.044055e-04 -2.175386e-04 -2.892342e-04 4.267628e-04 1.077668e-04 4.394544e-04 2.140928e-04" Properties=species:S:1:pos:R:3:forces:R:3 Config_type=AlGaN_super3_26_2_29.xyz
Al 1.569051e+00 8.717826e-01 2.440066e+00 3.164894e-05 4.398647e-05 1.205122e-05
Al 1.565540e+00 9.062016e-01 7.526798e+00 1.759686e-05 1.920621e-06 2.745151e-06
Al 1.547401e+00 8.718559e-01 -2.701963e+00 3.497769e-06 -2.574765e-05 3.189186e-05
Al -2.619731e-02 3.634788e+00 2.426293e+00 2.732311e-05 6.380046e-05 2.309453e-05
Al -1.427009e-02 3.612056e+00 7.549068e+00 -2.875216e-06 -1.258912e-05 2.751510e-06
Al -3.787413e-02 3.612326e+00 -2.701929e+00 -1.077610e-06 8.004347e-07 -3.637410e-05
Al 3.153277e+00 -1.871539e+00 2.393738e+00 3.603735e-05 5.129872e-05 -2.561656e-06
Ga 3.165585e+00 -1.857881e+00 7.570557e+00 -2.182500e-05 -3.201795e-06 1.013144e-05
Ga 3.145913e+00 -1.879975e+00 -2.692225e+00 7.674432e-06 4.051092e-05 2.442085e-05
Al -4.801057e+00 8.733330e-01 2.452054e+00 3.688590e-05 1.692479e-05 2.993757e-05
Al -4.794794e+00 8.938050e-01 7.542682e+00 9.712117e-06 -1.581800e-05 -1.013147e-07
Ga -4.792198e+00 8.776990e-01 -2.723089e+00 4.433271e-05 -9.895071e-07 -2.781602e-05
Ga -6.381864e+00 3.631652e+00 2.436116e+00 2.693728e-05 1.137791e-05 -1.352093e-05
Al -6.377907e+00 3.623506e+00 7.543328e+00 -8.358923e-06 -1.026601e-05 -1.916299e-05
Ga -6.377826e+00 3.629926e+00 -2.708307e+00 -5.351619e-05 -2.561059e-05 3.052635e-05
Al -3.195091e+00 -1.867476e+00 2.427650e+00 -6.373267e-06 4.210576e-05 2.127113e-05
Ga -3.191818e+00 -1.856996e+00 7.567632e+00 1.487048e-05 2.752312e-05 -5.522416e-05
Ga -3.190145e+00 -1.865317e+00 -2.723840e+00 9.116569e-06 7.902214e-06 -6.834957e-05
Ga -1.605538e+00 8.668304e-01 2.442648e+00 2.471558e-05 3.920962e-05 -5.978429e-05
Al -1.604091e+00 8.864356e-01 7.526355e+00 4.364853e-05 -6.248356e-05 2.990673e-05
Al -1.598653e+00 8.719681e-01 -2.710896e+00 5.560569e-05 -5.432563e-05 1.189092e-05
Ga -3.203776e+00 3.643384e+00 2.430792e+00 1.546882e-05 1.520742e-05 3.199089e-05
Ga -3.214823e+00 3.624553e+00 7.548360e+00 1.328061e-05 -4.293880e-05 1.285393e-05
Al -3.201589e+00 3.636256e+00 -2.706419e+00 5.968908e-05 -5.886927e-05 -1.242422e-05
Al -2.403254e-02 -1.867311e+00 2.408728e+00 2.219271e-04 -1.530179e-04 5.860137e-05
Ga -3.499222e-02 -1.865997e+00 7.564012e+00 -2.323283e-05 -6.511909e-05 -1.050752e-05
Al -2.429776e-02 -1.869546e+00 -2.708690e+00 -1.647237e-04 5.078674e-04 4.756676e-07
Al -2.204263e-02 1.795632e+00 4.991114e+00 5.426978e-05 6.396362e-05 6.315501e-05
Ga -2.918145e-02 1.779346e+00 -5.285649e+00 -1.573793e-05 3.026366e-05 4.759535e-05
Ga -2.424537e-02 1.785783e+00 -1.454340e-01 5.475018e-06 2.263352e-05 -2.167333e-05
Ga 3.158561e+00 -3.717982e+00 4.984822e+00 -1.952096e-05 5.642401e-05 1.783385e-05
Ga 3.158865e+00 -3.716250e+00 -5.273192e+00 -2.028063e-05 4.108454e-05 -8.171188e-06
Al 3.147685e+00 -3.710604e+00 -1.418331e-01 -3.655111e-05 -1.502850e-05 -4.356877e-05
Ga 1.551423e+00 -9.489394e-01 4.968378e+00 2.015590e-06 1.393528e-05 3.161153e-07
Ga 1.555200e+00 -9.583790e-01 -5.276500e+00 -7.026412e-05 5.590693e-05 3.054178e-05
Al 1.546038e+00 -9.670290e-01 -1.340211e-01 9.808193e-05 -7.457148e-06 -3.434169e-05
Al 3.162726e+00 1.801069e+00 4.997494e+00 1.815634e-04 4.690642e-05 2.875306e-05
Ga 3.157927e+00 1.789535e+00 -5.315028e+00 1.233538e-06 -2.287144e-05 -4.080805e-06
Ga 3.149008e+00 1.783217e+00 -1.228606e-01 2.262000e-06 2.456526e-06 1.867994e-05
Ga 6.347790e+00 -3.712882e+00 4.993322e+00 3.784758e-05 7.036470e-05 3.840778e-06
Ga 6.345213e+00 -3.709173e+00 -5.300038e+00 -1.232291e-05 -1.900484e-05 -5.059220e-05
Ga 6.332334e+00 -3.703845e+00 -1.274134e-01 3.555612e-05 1.028076e-07 2.568799e-05
Ga 4.756580e+00 -9.380638e-01 4.965128e+00 1.587289e-06 6.455865e-06 -1.911607e-06
Al 4.755950e+00 -9.520051e-01 -5.297376e+00 -3.565427e-05 -2.396108e-05 -1.921375e-05
Ga 4.747660e+00 -9.633662e-01 -1.018707e-01 -5.684300e-05 6.015955e-05 4.114885e-06
Al -3.207628e+00 1.792027e+00 5.000198e+00 1.113250e-05 1.560264e-05 -8.893213e-06
Ga -3.199639e+00 1.779379e+00 -5.294531e+00 3.926819e-05 -5.336451e-05 -1.498784e-05
Ga -3.195645e+00 1.802203e+00 -1.492342e-01 2.726070e-05 -1.546431e-05 -3.274494e-06
Al -2.903028e-02 -3.703549e+00 4.985924e+00 -4.911040e-06 5.524008e-07 -2.254698e-05
Al -2.848263e-02 -3.705033e+00 -5.274683e+00 4.369640e-06 -2.591212e-05 -5.133953e-05
Al -5.250718e-03 -3.685372e+00 -1.523036e-01 -2.221358e-04 1.005371e-04 3.585096e-05
Al -1.601937e+00 -9.498844e-01 4.978556e+00 -3.250849e-04 -2.864505e-05 1.109111e-04
Al -1.609136e+00 -9.553912e-01 -5.282002e+00 -3.711754e-05 -1.563263e-05 1.125869e-05
Al -1.592745e+00 -9.677572e-01 -1.435000e-01 2.277038e-04 2.565631e-04 3.016263e-04
N 1.568609e+00 9.322309e-01 4.362521e+00 -9.468365e-05 -4.342088e-05 -2.108908e-04
N 1.559631e+00 8.742801e-01 -5.982256e+00 4.560660e-05 1.970352e-06 -1.275984e-05
N 1.566536e+00 8.253141e-01 -7.896278e-01 -3.274549e-05 -1.141210e-05 1.950563e-05
N -2.420127e-02 3.585013e+00 4.336542e+00 -1.183235e-05 -2.184977e-06 3.782251e-06
N -2.747062e-02 3.617794e+00 -5.963341e+00 -2.181493e-05 -2.009059e-05 6.718965e-06
N -6.795433e-02 3.651533e+00 -7.890843e-01 3.063087e-05 -1.142910e-05 -1.434355e-05
N 3.152853e+00 -1.874679e+00 4.304164e+00 -2.243137e-05 -3.049871e-05 -4.065115e-05
N 3.194256e+00 -1.854525e+00 -5.877737e+00 -6.290054e-06 -2.111132e-05 7.192088e-06
N 3.116001e+00 -1.893172e+00 -7.039750e-01 -1.165814e-05 -2.845642e-05 4.099367e-05
N -4.793328e+00 9.373556e-01 4.363505e+00 -6.205572e-05 -1.779493e-05 1.274507e-05
N -4.791264e+00 8.313089e-01 -5.958174e+00 4.172425e-05 1.921794e-05 2.808756e-05
N -4.795038e+00 8.705692e-01 -7.633804e-01 3.763658e-05 8.309402e-06 -1.748211e-05
N -6.340880e+00 3.608141e+00 4.408845e+00 -1.522122e-05 -3.019470e-05 2.344862e-05
N -6.335982e+00 3.652004e+00 -5.952078e+00 1.301806e-05 -1.633562e-06 1.721390e-05
N -6.341850e+00 3.651796e+00 -7.308913e-01 6.476373e-05 7.837755e-06 1.380432e-05
N -3.152603e+00 -1.848861e+00 4.339429e+00 6.933473e-05 3.215828e-05 -2.362757e-05
N -3.195180e+00 -1.825773e+00 -5.869950e+00 1.197580e-05 -8.623569e-06 1.694741e-05
N -3.161801e+00 -1.845869e+00 -7.466643e-01 -8.544859e-05 -4.797430e-05 -3.434876e-05
N -1.610829e+00 8.835353e-01 4.428168e+00 -6.409103e-05 -1.531100e-04 -8.156378e-06
N -1.610131e+00 8.248917e-01 -5.965852e+00 4.769062e-05 -2.489151e-05 6.594994e-06
N -1.611716e+00 8.230485e-01 -7.937072e-01 -7.554651e-06 -7.124783e-05 1.547770e-05
N -3.248580e+00 3.610329e+00 4.411391e+00 3.092379e-05 -9.425310e-05 5.851358e-06
N -3.251547e+00 3.651019e+00 -5.894402e+00 2.186558e-06 -5.711256e-05 9.887462e-06
N -3.207120e+00 3.679832e+00 -7.796678e-01 1.720673e-04 -4.226224e-05 -1.913522e-05
N -6.601315e-02 -1.897217e+00 4.333843e+00 9.691131e-05 -5.077675e-05 -1.594417e-05
N -6.850659e-02 -1.902907e+00 -5.875548e+00 3.926008e-05 -7.226031e-05 2.000179e-05
N -2.439750e-02 -1.872981e+00 -7.737871e-01 5.164203e-06 6.229194e-05 2.306282e-05
N 1.991899e-02 1.817005e+00 1.835361e+00 -8.879658e-06 5.870021e-06 9.332783e-05
N -2.159584e-02 1.802700e+00 6.918744e+00 -1.370104e-05 9.634709e-06 1.738989e-06
N -2.399861e-02 1.791551e+00 -3.288335e+00 -2.242011e-05 3.714010e-05 9.447775e-07
N 3.199913e+00 -3.693637e+00 1.782369e+00 7.310558e-06 1.128917e-05 1.916734e-06
N 3.203734e+00 -3.724953e+00 6.956349e+00 -2.716660e-05 1.443253e-05 -1.783280e-05
N 3.160400e+00 -3.759177e+00 -3.294521e+00 -2.078937e-05 3.761868e-05 1.323816e-05
N 1.557830e+00 -9.499539e-01 1.804530e+00 -2.768643e-05 3.958105e-05 1.087377e-05
N 1.565518e+00 -9.074360e-01 6.944899e+00 -7.295458e-05 8.753364e-06 6.171288e-06
N 1.524162e+00 -9.336976e-01 -3.295560e+00 -6.468692e-05 -1.054811e-04 7.834169e-06
N 3.154604e+00 1.744374e+00 1.850919e+00 -2.905750e-05 -1.181923e-06 5.201830e-06
N 3.160669e+00 1.800523e+00 6.930948e+00 9.818574e-06 -3.062330e-06 2.288730e-05
N 3.106760e+00 1.768532e+00 -3.335051e+00 -5.394878e-06 1.165185e-05 1.120696e-05
N 6.297689e+00 -3.684539e+00 1.851763e+00 1.447988e-05 -1.365886e-06 -3.704384e-05
N 6.340673e+00 -3.746883e+00 6.978921e+00 -1.988595e-05 -3.474987e-05 1.679861e-05
N 6.294255e+00 -3.740336e+00 -3.319564e+00 1.838448e-05 1.220797e-05 1.174192e-06
N 4.753208e+00 -9.518789e-01 1.879344e+00 -5.430415e-05 -4.575502e-05 -2.999441e-05
N 4.751651e+00 -9.047702e-01 6.936740e+00 -5.195393e-05 -4.883945e-05 5.949200e-06
N 4.741765e+00 -9.611436e-01 -3.389137e+00 -4.077793e-05 -3.451909e-06 1.531234e-05
N -3.241117e+00 1.771955e+00 1.826163e+00 -6.867063e-06 1.719259e-05 -3.226973e-05
N -3.202794e+00 1.751872e+00 6.921407e+00 -3.970267e-05 -2.040766e-06 7.199608e-07
N -3.155961e+00 1.817556e+00 -3.302577e+00 -1.667854e-05 3.482268e-05 2.597477e-06
N -1.768132e-02 -3.658496e+00 1.761872e+00 1.906036e-05 -8.877350e-06 -6.402386e-05
N -6.160965e-02 -3.718073e+00 6.894575e+00 1.269768e-05 -2.209881e-05 1.146103e-05
N 1.977526e-02 -3.684308e+00 -3.346714e+00 1.905855e-05 -1.765696e-04 -6.372341e-05
N -1.607641e+00 -1.000080e+00 1.780006e+00 -2.388839e-04 8.273795e-05 -2.717028e-04
N -1.608170e+00 -9.085837e-01 6.888232e+00 3.179063e-05 -1.932862e-05 -1.050554e-04
N -1.565001e+00 -9.299773e-01 -3.359295e+00 6.493423e-05 -9.720626e-05 7.403075e-05
