108
Energy=-1.306398e+06 Lattice="9.490974e+00 0.000000e+00 0.000000e+00 -4.746987e+00 8.216888e+00 0.000000e+00 -2.231804e-03 1.713713e-04 1.531779e+01" Stress="-2.828556e-03 -2.363567e-04 -1.168975e-05 -2.359389e-04 -3.205555e-03 -8.733682e-05 -1.150530e-05 -8.076455e-05 -2.221063e-03" Properties=species:S:1:pos:R:3:forces:R:3 Config_type=AlGaN_super3_19_2_9.xyz
Al 1.560823e+00 8.648622e-01 2.441356e+00 2.303746e-03 5.360261e-03 1.884736e-04
Al 1.558138e+00 8.651274e-01 7.479265e+00 1.620034e-04 7.705514e-04 -6.508548e-05
Al 1.557587e+00 8.668936e-01 -2.708690e+00 3.313640e-04 3.104417e-04 3.632408e-04
Al -2.844626e-02 3.606701e+00 2.427555e+00 3.935948e-03 -1.634587e-03 -1.392633e-03
Al -1.313269e-02 3.606018e+00 7.491465e+00 1.071580e-04 4.538111e-05 5.542018e-04
Al -2.428759e-02 3.605648e+00 -2.696756e+00 -1.633418e-04 4.434990e-04 3.571572e-04
Al 3.168484e+00 -1.864154e+00 2.407202e+00 -7.643034e-03 3.103586e-03 -3.194699e-03
Al 3.141976e+00 -1.851446e+00 7.536094e+00 8.401454e-05 -4.569652e-04 1.265822e-04
Ga 3.149356e+00 -1.861532e+00 -2.723491e+00 7.911880e-05 2.557468e-05 5.107333e-04
Al -4.778811e+00 8.767716e-01 2.408215e+00 2.742923e-04 -1.528840e-03 -9.775970e-04
Al -4.769723e+00 8.716413e-01 7.503730e+00 9.750203e-05 5.359170e-04 2.866236e-04
Al -4.776031e+00 8.684102e-01 -2.699427e+00 3.352641e-04 -2.649360e-05 4.575544e-04
Ga -6.366192e+00 3.590663e+00 2.408146e+00 -5.213452e-04 1.234001e-04 -4.095552e-04
Al -6.366453e+00 3.606392e+00 7.493207e+00 -1.499885e-04 -4.930694e-04 1.748417e-04
Ga -6.356821e+00 3.599890e+00 -2.677679e+00 -2.227404e-04 8.419140e-05 4.201842e-04
Ga -3.195296e+00 -1.862200e+00 2.407237e+00 9.337259e-04 -1.557427e-04 -4.045031e-05
Al -3.178052e+00 -1.863894e+00 7.502808e+00 -1.757295e-04 2.685605e-04 1.615624e-04
Ga -3.181936e+00 -1.855520e+00 -2.699259e+00 -2.558793e-04 1.537084e-04 7.732237e-04
Al -1.612177e+00 8.813290e-01 2.423416e+00 -1.577763e-06 -1.922047e-03 -5.046132e-04
Al -1.610659e+00 8.680710e-01 7.495136e+00 2.570068e-04 2.972650e-04 -3.764459e-05
Ga -1.610288e+00 8.728662e-01 -2.707380e+00 6.302182e-04 -3.199001e-04 7.220693e-04
Ga -3.173317e+00 3.606456e+00 2.401918e+00 -1.360092e-03 -3.474781e-04 -4.453573e-04
Ga -3.181060e+00 3.605005e+00 7.521192e+00 -1.969315e-04 -9.397981e-04 5.756735e-04
Ga -3.178593e+00 3.611794e+00 -2.697369e+00 -4.525512e-05 -3.554711e-04 3.162133e-04
Ga -2.045618e-02 -1.840695e+00 2.429408e+00 2.288768e-04 -2.437920e-04 -1.741629e-05
Al -2.096016e-02 -1.837104e+00 7.504406e+00 -4.043863e-04 -4.601844e-04 -4.156738e-05
Al -2.140717e-02 -1.845449e+00 -2.706890e+00 -3.067676e-04 -3.562934e-04 -3.592974e-05
Al -2.259976e-02 1.774156e+00 4.957892e+00 2.781105e-04 1.088304e-04 -3.910197e-04
Ga -3.369222e-02 1.778818e+00 -5.279291e+00 4.290363e-04 3.951536e-04 6.011891e-04
Ga -2.497181e-02 1.792980e+00 -1.270231e-01 4.431151e-04 1.285341e-04 -2.817497e-05
Ga 3.156390e+00 -3.689061e+00 4.969297e+00 -1.084042e-05 2.838618e-04 6.662979e-04
Al 3.152075e+00 -3.686943e+00 -5.274518e+00 -1.353354e-04 -9.487058e-05 2.754244e-04
Al 3.156100e+00 -3.695077e+00 -1.344630e-01 3.929592e-04 4.794628e-04 -1.056191e-03
Al 1.567210e+00 -9.419047e-01 4.974792e+00 -1.199602e-03 3.947378e-04 -9.704511e-04
Al 1.559040e+00 -9.573113e-01 -5.266539e+00 1.857777e-04 1.358003e-03 -1.409296e-03
Ga 1.567093e+00 -9.559586e-01 -1.444778e-01 -5.213074e-04 4.463838e-04 1.585051e-03
Al 3.133739e+00 1.773688e+00 4.972555e+00 -4.053118e-04 1.918391e-03 1.014329e-04
Ga 3.147227e+00 1.763215e+00 -5.272475e+00 4.661138e-04 3.035991e-05 8.734313e-04
Al 3.150158e+00 1.776755e+00 -1.464118e-01 -2.721982e-04 1.687737e-05 2.772009e-04
Al 6.301841e+00 -3.701175e+00 4.984398e+00 7.705322e-04 -1.954338e-04 -2.221355e-04
Ga 6.292829e+00 -3.680031e+00 -5.276605e+00 2.444384e-04 -1.506893e-04 9.148288e-04
Al 6.297413e+00 -3.689394e+00 -1.472233e-01 4.367517e-05 -2.722285e-04 -4.348220e-04
Ga 4.721117e+00 -9.417648e-01 4.973711e+00 3.865574e-04 -4.237252e-05 8.880191e-04
Al 4.731523e+00 -9.435054e-01 -5.290353e+00 -3.023572e-04 -1.478782e-04 1.061895e-04
Al 4.731788e+00 -9.411154e-01 -1.353570e-01 -2.723704e-04 -3.526912e-04 -4.619474e-04
Al -3.187303e+00 1.768194e+00 4.960555e+00 -6.950348e-04 5.531436e-05 -2.511998e-06
Al -3.191496e+00 1.768680e+00 -5.264497e+00 5.534714e-05 9.235628e-04 -1.288143e-03
Al -3.205528e+00 1.778835e+00 -1.359135e-01 2.242851e-04 -1.239251e-04 -6.713571e-04
Ga -3.846633e-02 -3.684595e+00 4.990227e+00 -8.779481e-06 -4.056126e-04 3.648273e-04
Ga -1.625826e-02 -3.671148e+00 -5.271597e+00 2.309109e-04 -3.055033e-04 7.774875e-04
Al -2.756978e-02 -3.685931e+00 -1.543825e-01 3.911694e-05 -1.034179e-04 -6.175097e-04
Al -1.601924e+00 -9.361486e-01 4.983740e+00 -9.704903e-04 2.789878e-04 6.738660e-04
Al -1.603982e+00 -9.461024e-01 -5.285303e+00 1.705115e-04 2.203367e-03 -1.592398e-03
Al -1.611218e+00 -9.531542e-01 -1.430980e-01 -2.088714e-06 -3.968919e-04 4.580326e-04
N 1.562317e+00 8.697334e-01 4.368701e+00 -2.375261e-04 3.831702e-04 4.008551e-05
N 1.557899e+00 8.258468e-01 -5.929903e+00 -2.689046e-04 -1.114490e-03 1.115002e-03
N 1.593315e+00 8.941467e-01 -7.989322e-01 3.940828e-04 5.999524e-04 2.397702e-04
N 2.086264e-02 3.587035e+00 4.343333e+00 -5.096441e-04 1.995320e-04 -4.827040e-04
N -5.941098e-02 3.629570e+00 -5.924775e+00 -1.757049e-04 2.397411e-05 -8.079675e-04
N -2.603108e-02 3.653817e+00 -7.832494e-01 -2.817909e-04 -2.379323e-04 8.848798e-04
N 3.105996e+00 -1.841268e+00 4.308177e+00 4.265882e-04 -6.060633e-04 1.726938e-03
N 3.140952e+00 -1.861187e+00 -5.858267e+00 -3.486267e-04 -2.396925e-04 -2.163496e-04
N 3.190901e+00 -1.891050e+00 -7.403634e-01 -3.479792e-04 9.283360e-05 7.238725e-04
N -4.777516e+00 9.218153e-01 4.325376e+00 1.607061e-03 -1.160872e-04 6.066172e-04
N -4.728102e+00 8.550516e-01 -5.908332e+00 2.808320e-04 1.915945e-04 -1.614104e-04
N -4.769327e+00 8.700652e-01 -7.712135e-01 3.582561e-04 2.081000e-04 4.598469e-04
N -6.395000e+00 3.585218e+00 4.389357e+00 -9.789964e-05 -5.767170e-04 -3.692323e-04
N -6.352043e+00 3.605980e+00 -5.920812e+00 -3.967951e-04 3.305339e-04 -7.786721e-04
N -6.353095e+00 3.607358e+00 -6.981438e-01 -1.810213e-04 6.956279e-06 6.496606e-04
N -3.142642e+00 -1.891343e+00 4.393022e+00 -4.734205e-04 4.413958e-04 -5.779374e-04
N -3.178898e+00 -1.819898e+00 -5.899665e+00 -2.039022e-04 2.332870e-04 -4.086591e-04
N -3.185550e+00 -1.861591e+00 -7.096386e-01 -2.693440e-04 2.609114e-04 1.578360e-04
N -1.610904e+00 8.720865e-01 4.353157e+00 1.439284e-06 3.137927e-05 -8.812162e-04
N -1.650805e+00 8.619932e-01 -5.909707e+00 1.706857e-04 -3.338497e-03 2.689389e-03
N -1.651873e+00 8.542412e-01 -7.306271e-01 2.998967e-04 5.284631e-05 -1.611352e-04
N -3.190151e+00 3.570708e+00 4.376122e+00 1.335201e-04 -4.998210e-04 -8.656292e-04
N -3.144760e+00 3.585118e+00 -5.826563e+00 -8.293465e-05 -1.939421e-04 7.734674e-05
N -3.180381e+00 3.613335e+00 -7.032028e-01 -2.081993e-04 -4.404773e-04 6.885752e-04
N -2.673781e-02 -1.810376e+00 4.404005e+00 1.526097e-03 -7.548903e-04 -7.787590e-04
N -1.837146e-02 -1.805876e+00 -5.902450e+00 -1.621592e-04 -3.172219e-04 -2.268653e-04
N -6.350416e-02 -1.877817e+00 -7.864367e-01 3.099711e-05 -4.918057e-05 4.129393e-04
N -2.232582e-02 1.777081e+00 1.869706e+00 -5.647133e-06 2.318393e-03 -2.730194e-04
N -2.832302e-02 1.781013e+00 6.887044e+00 2.238605e-04 2.928935e-04 -1.054239e-03
N 1.603932e-02 1.807012e+00 -3.295218e+00 -1.603188e-04 1.726264e-04 2.417077e-04
N 3.194742e+00 -3.673010e+00 1.786022e+00 -9.297162e-04 1.221096e-03 8.539454e-04
N 3.186257e+00 -3.659281e+00 6.936093e+00 -4.504934e-04 6.655511e-04 -3.122646e-04
N 3.188965e+00 -3.719529e+00 -3.362136e+00 -1.075881e-04 5.240755e-04 9.045531e-05
N 1.596644e+00 -9.125867e-01 1.839735e+00 3.834719e-03 -7.814683e-03 -2.548137e-03
N 1.572339e+00 -9.580351e-01 6.893689e+00 2.785040e-05 -1.207172e-04 -9.880607e-04
N 1.521988e+00 -9.310855e-01 -3.345062e+00 -3.721601e-04 1.977320e-04 8.721654e-04
N 3.139311e+00 1.729831e+00 1.775562e+00 -2.773856e-03 -2.403602e-04 6.558064e-04
N 3.142898e+00 1.780959e+00 6.893968e+00 -9.928952e-05 -3.321035e-04 -8.587724e-04
N 3.138429e+00 1.736611e+00 -3.292689e+00 4.563718e-04 -4.620086e-05 -1.090792e-04
N 6.258918e+00 -3.718386e+00 1.760250e+00 -1.435810e-03 -2.202584e-04 1.261508e-03
N 6.301478e+00 -3.689437e+00 6.900566e+00 1.868984e-04 -1.666149e-04 -4.868517e-04
N 6.265097e+00 -3.713636e+00 -3.304640e+00 4.852890e-04 1.396576e-05 1.984949e-04
N 4.683978e+00 -9.229642e-01 1.784279e+00 1.857263e-03 9.072284e-04 1.807361e-05
N 4.720985e+00 -9.522731e-01 6.955317e+00 -5.092027e-04 -4.131762e-04 -9.108903e-04
N 4.732000e+00 -9.012757e-01 -3.372964e+00 -3.119760e-04 -2.921973e-04 3.521266e-04
N -3.193205e+00 1.736403e+00 1.781497e+00 2.344316e-04 -1.146862e-04 6.656618e-04
N -3.191189e+00 1.738277e+00 6.871913e+00 9.427140e-05 -1.165971e-04 -1.240664e-03
N -3.236726e+00 1.762636e+00 -3.353841e+00 3.693398e-04 -2.125088e-04 6.390657e-04
N -2.720408e-02 -3.681460e+00 1.755962e+00 7.848517e-04 4.196573e-04 6.498273e-04
N -6.192886e-02 -3.661888e+00 6.958331e+00 3.013711e-04 1.747457e-04 -6.011771e-04
N -2.741943e-02 -3.640906e+00 -3.295393e+00 4.390209e-04 -2.667690e-04 3.784964e-04
N -1.604578e+00 -9.029657e-01 1.766566e+00 -2.293079e-04 6.009813e-04 6.962885e-04
N -1.603913e+00 -9.463229e-01 6.899189e+00 -2.837087e-04 -2.092385e-04 -4.709200e-04
N -1.563022e+00 -9.721835e-01 -3.372673e+00 -4.880081e-04 -2.262777e-04 2.811233e-04
