108
Energy=-1.855704e+06 Lattice="9.574481e+00 0.000000e+00 0.000000e+00 -4.794360e+00 8.282519e+00 0.000000e+00 4.177601e-03 8.002545e-03 1.549850e+01" Stress="9.268616e-04 -1.184242e-06 1.041827e-04 6.324089e-06 -6.092210e-04 2.294409e-04 1.147820e-04 2.309969e-04 4.110996e-03" Properties=species:S:1:pos:R:3:forces:R:3 Config_type=AlGaN_super3_31_2_8.xyz
Al 1.578567e+00 8.767925e-01 2.417413e+00 1.892528e-03 6.727475e-03 -2.159839e-03
Al 1.569567e+00 8.926454e-01 7.599374e+00 1.481938e-03 6.771977e-04 2.824549e-03
Al 1.571349e+00 8.570039e-01 -2.730316e+00 3.177284e-04 1.559266e-03 2.961725e-03
Al -1.056157e-02 3.644954e+00 2.400436e+00 1.214727e-03 -1.410592e-03 9.976568e-04
Al -2.680340e-02 3.638051e+00 7.616166e+00 3.698272e-04 2.689106e-04 9.743887e-04
Ga -2.444310e-02 3.623341e+00 -2.727032e+00 -1.034777e-03 -3.523188e-05 1.985186e-03
Al 3.174492e+00 -1.856867e+00 2.421495e+00 1.153382e-03 -1.826790e-03 1.384089e-03
Ga 3.185785e+00 -1.882724e+00 7.626701e+00 3.623510e-04 -1.490873e-04 1.259483e-03
Al 3.149588e+00 -1.880608e+00 -2.773085e+00 7.832228e-03 2.652734e-03 5.602754e-03
Al -4.824746e+00 8.862752e-01 2.447623e+00 6.175987e-04 1.641792e-03 -5.817363e-04
Ga -4.822087e+00 8.817871e-01 7.595414e+00 5.161978e-04 3.529678e-04 1.095408e-03
Al -4.831907e+00 8.562592e-01 -2.739484e+00 1.072139e-03 1.906334e-04 -1.074935e-04
Al -6.426020e+00 3.641187e+00 2.445930e+00 -9.248653e-04 3.628639e-04 -5.441372e-04
Ga -6.418801e+00 3.636499e+00 7.590733e+00 4.149066e-04 -2.113011e-04 1.937305e-04
Ga -6.419235e+00 3.620451e+00 -2.715156e+00 4.949711e-04 -1.760386e-04 -1.737400e-04
Al -3.207076e+00 -1.866147e+00 2.368068e+00 -6.283618e-03 -3.436862e-03 1.059791e-02
Al -3.219544e+00 -1.878048e+00 7.608302e+00 4.669108e-04 -2.711848e-04 1.184311e-03
Ga -3.227251e+00 -1.879393e+00 -2.708905e+00 -1.022317e-03 5.214057e-04 1.271618e-03
Al -1.618409e+00 8.807733e-01 2.417246e+00 1.660388e-03 2.039809e-03 8.139211e-05
Ga -1.612237e+00 9.030464e-01 7.612245e+00 8.272318e-04 -9.379392e-04 6.737887e-04
Ga -1.615274e+00 8.809899e-01 -2.717119e+00 1.034113e-03 7.642454e-04 1.093797e-03
Ga -3.206099e+00 3.643559e+00 2.443849e+00 -4.979513e-04 -5.901936e-05 -1.547437e-03
Al -3.199509e+00 3.652878e+00 7.612128e+00 -2.953518e-04 -5.793840e-04 7.530819e-04
Ga -3.216135e+00 3.637759e+00 -2.726665e+00 1.345515e-03 -8.343057e-04 -2.858815e-04
Ga -2.380442e-02 -1.850522e+00 2.423427e+00 8.442333e-04 -2.234040e-03 4.520631e-04
Ga -1.126487e-02 -1.862556e+00 7.610225e+00 4.039549e-04 -8.974477e-04 4.369604e-04
Ga -5.180295e-04 -1.863649e+00 -2.712560e+00 -1.799517e-04 -8.555014e-04 9.645997e-04
Ga -3.601544e-03 1.805682e+00 4.996008e+00 -1.570805e-03 7.199894e-04 1.189736e-03
Al -1.350770e-02 1.791796e+00 -5.323938e+00 2.715355e-04 1.684272e-03 1.964941e-03
Al -1.650088e-02 1.778900e+00 -1.349747e-01 -4.713018e-04 1.280631e-03 1.772494e-03
Ga 3.191161e+00 -3.719061e+00 5.017908e+00 2.097992e-04 1.174292e-03 1.403030e-03
Al 3.178356e+00 -3.725150e+00 -5.322626e+00 4.166545e-04 5.427275e-04 7.256243e-04
Ga 3.182743e+00 -3.716327e+00 -1.311033e-01 3.380174e-04 1.415886e-03 -3.799773e-03
Ga 1.597880e+00 -9.364219e-01 5.008343e+00 -4.479550e-04 6.372731e-05 2.171007e-03
Al 1.588732e+00 -9.518262e-01 -5.309979e+00 3.404045e-04 2.016083e-04 3.204386e-04
Al 1.573430e+00 -9.528077e-01 -1.503417e-01 -1.383395e-06 3.448827e-04 -4.689774e-05
Al 3.156896e+00 1.801051e+00 4.991706e+00 6.335211e-04 6.008403e-04 1.589146e-03
Ga 3.144658e+00 1.767810e+00 -5.300629e+00 1.849179e-04 8.944472e-04 1.705357e-03
Ga 3.143616e+00 1.781673e+00 -1.376884e-01 7.700427e-04 1.220495e-03 -1.455409e-03
Ga 6.360697e+00 -3.719846e+00 5.008009e+00 7.070690e-05 1.320981e-03 1.543961e-04
Ga 6.337332e+00 -3.721271e+00 -5.331774e+00 2.764026e-04 1.336683e-04 1.617643e-03
Al 6.362642e+00 -3.730203e+00 -1.219040e-01 -6.948283e-04 -4.189401e-05 -1.631048e-04
Ga 4.775659e+00 -9.559375e-01 4.989907e+00 2.737929e-04 2.642573e-06 1.349680e-03
Al 4.760500e+00 -9.713477e-01 -5.305415e+00 -7.016385e-04 -1.119394e-03 2.275738e-03
Ga 4.755317e+00 -9.688853e-01 -1.333831e-01 -1.595084e-03 5.217185e-04 -4.316758e-03
Ga -3.221987e+00 1.807366e+00 5.012823e+00 -7.704152e-04 -1.043338e-03 9.973820e-04
Ga -3.215682e+00 1.801369e+00 -5.311101e+00 -9.896479e-04 5.067004e-04 7.068704e-04
Ga -3.221504e+00 1.778431e+00 -1.335602e-01 -2.032578e-04 2.474675e-05 1.638665e-04
Ga -2.100087e-02 -3.720211e+00 5.023344e+00 -1.305808e-03 -2.648507e-04 -5.391985e-04
Ga -2.022589e-03 -3.716164e+00 -5.316699e+00 -7.759708e-04 -4.326389e-04 8.595774e-04
Ga -3.686571e-02 -3.711339e+00 -1.366158e-01 -4.742085e-04 -6.967325e-06 4.701203e-03
Ga -1.622200e+00 -9.514217e-01 5.010135e+00 -2.402955e-03 2.602238e-05 1.008650e-03
Ga -1.616159e+00 -9.571702e-01 -5.313822e+00 -1.674043e-03 -7.146243e-04 1.221032e-03
Al -1.612684e+00 -9.560252e-01 -1.275843e-01 -1.046913e-03 8.926591e-05 -1.413493e-03
N 1.609793e+00 9.090848e-01 4.333102e+00 1.369021e-03 -7.782345e-04 -6.752623e-04
N 1.529159e+00 8.520271e-01 -5.962668e+00 -2.155634e-04 -3.628737e-04 -2.135064e-03
N 1.521556e+00 8.479621e-01 -7.883028e-01 -1.078542e-04 5.560276e-05 -2.312988e-03
N -2.006234e-02 3.643433e+00 4.321668e+00 -1.551805e-04 2.987839e-05 -1.154411e-03
N -6.948593e-02 3.608576e+00 -5.951244e+00 -9.484193e-04 -1.125927e-03 -1.385724e-03
N 1.142800e-02 3.608014e+00 -7.273816e-01 9.720858e-04 -1.093982e-03 -8.034382e-04
N 3.174170e+00 -1.875939e+00 4.342407e+00 -2.064442e-04 -6.831806e-04 -2.730153e-03
N 3.173312e+00 -1.883268e+00 -5.876104e+00 -2.420534e-04 -2.583428e-04 1.386800e-04
N 3.124747e+00 -1.860556e+00 -8.093628e-01 -7.275719e-04 -6.485832e-04 -7.444751e-03
N -4.855165e+00 9.105258e-01 4.368747e+00 4.490044e-04 4.205300e-04 -1.528495e-03
N -4.821486e+00 8.274515e-01 -5.920320e+00 8.799375e-04 5.719580e-04 -1.181711e-03
N -4.823127e+00 8.678787e-01 -8.277930e-01 8.233269e-04 1.208085e-03 8.099244e-04
N -6.413311e+00 3.603694e+00 4.373792e+00 4.930777e-04 -5.968014e-04 -1.161426e-03
N -6.411050e+00 3.628683e+00 -5.933373e+00 2.298173e-04 -1.674722e-04 -6.916398e-04
N -6.456604e+00 3.653875e+00 -7.446486e-01 -8.744347e-05 6.087903e-04 -1.409253e-04
N -3.202509e+00 -1.880468e+00 4.320554e+00 -5.421638e-04 5.416742e-04 -6.661566e-03
N -3.255769e+00 -1.856074e+00 -5.967316e+00 1.003436e-04 5.193746e-04 -1.650292e-03
N -3.180178e+00 -1.908720e+00 -7.163737e-01 1.905039e-03 6.282804e-05 9.512735e-04
N -1.619821e+00 8.909935e-01 4.342126e+00 1.566897e-03 -2.700063e-04 -1.723013e-03
N -1.583594e+00 9.074383e-01 -5.911412e+00 1.139656e-03 -3.313641e-04 -1.318522e-03
N -1.584484e+00 8.586717e-01 -7.264615e-01 1.588796e-03 -5.418036e-04 -9.914896e-04
N -3.210538e+00 3.654316e+00 4.400339e+00 2.502026e-04 -3.864468e-04 -3.592157e-06
N -3.176389e+00 3.664311e+00 -5.964878e+00 8.282707e-04 -5.872682e-04 -1.430519e-03
N -3.220157e+00 3.638433e+00 -7.604460e-01 4.365362e-05 -1.843223e-04 2.210447e-03
N -1.444060e-02 -1.861645e+00 4.399053e+00 1.069190e-03 -8.712053e-04 -1.023037e-03
N 2.365698e-02 -1.850238e+00 -5.911992e+00 7.529086e-04 -3.017564e-04 -8.195716e-04
N -2.217900e-02 -1.828898e+00 -7.218528e-01 3.731564e-04 -2.421572e-05 1.848197e-04
N -1.776112e-02 1.792397e+00 1.804114e+00 -2.209438e-04 9.773073e-04 1.898815e-04
N 2.296679e-02 1.826591e+00 6.996364e+00 -6.738918e-05 1.377098e-03 -1.869530e-03
N 2.182155e-02 1.765328e+00 -3.390429e+00 1.408556e-04 4.198324e-04 -1.713223e-03
N 3.217649e+00 -3.682445e+00 1.835602e+00 2.813662e-04 -3.909789e-04 3.130203e-03
N 3.183679e+00 -3.763023e+00 7.013674e+00 5.349167e-04 4.393684e-04 -1.264941e-03
N 3.175146e+00 -3.694135e+00 -3.392290e+00 6.566997e-05 1.398034e-03 -6.584391e-04
N 1.619587e+00 -9.289243e-01 1.780279e+00 3.938296e-04 -4.416500e-04 -5.290483e-05
N 1.594364e+00 -9.063079e-01 6.993384e+00 -7.066336e-04 -5.036183e-05 -1.628970e-03
N 1.614537e+00 -9.364857e-01 -3.380969e+00 -1.045926e-03 -1.141686e-04 -5.272443e-04
N 3.180566e+00 1.820550e+00 1.843006e+00 -4.832287e-03 -5.519240e-03 4.232915e-03
N 3.123645e+00 1.777136e+00 6.929359e+00 -8.183819e-04 -1.738151e-04 -2.774529e-03
N 3.156191e+00 1.743442e+00 -3.312743e+00 -4.522379e-04 -5.710543e-04 -2.160832e-04
N 6.370100e+00 -3.715456e+00 1.803412e+00 -4.524810e-04 -1.834676e-04 1.012382e-03
N 6.319282e+00 -3.692690e+00 7.009239e+00 -9.481247e-04 5.717405e-05 -8.896166e-04
N 6.359268e+00 -3.723738e+00 -3.357097e+00 -4.771464e-05 3.205956e-04 -1.612604e-03
N 4.746740e+00 -9.345369e-01 1.839059e+00 4.791955e-03 -3.096472e-03 5.608154e-03
N 4.810707e+00 -9.808724e-01 6.978130e+00 -7.200382e-04 -5.943836e-04 -2.084014e-03
N 4.739315e+00 -9.448180e-01 -3.374143e+00 -4.868455e-03 -2.798182e-03 4.443705e-04
N -3.219479e+00 1.757045e+00 1.851526e+00 -1.090804e-03 -1.071579e-03 1.364994e-04
N -3.216000e+00 1.852432e+00 6.998468e+00 -6.130212e-04 3.992171e-04 -1.069067e-03
N -3.258582e+00 1.771491e+00 -3.331920e+00 -1.203009e-03 -5.434431e-04 4.354399e-05
N -6.049208e-02 -3.735674e+00 1.860531e+00 -2.720619e-04 2.722240e-04 -5.608281e-03
N 2.477654e-02 -3.736177e+00 7.002951e+00 -1.450879e-04 -3.868434e-05 -3.404795e-04
N -2.141493e-02 -3.721764e+00 -3.342898e+00 -9.639694e-04 7.073083e-04 -2.166553e-04
N -1.657579e+00 -9.304000e-01 1.794535e+00 1.487017e-03 2.153961e-03 -3.300391e-03
N -1.655319e+00 -9.732418e-01 6.998767e+00 -1.253569e-03 -1.835786e-04 -9.248748e-04
N -1.616035e+00 -9.673006e-01 -3.341599e+00 -1.318781e-03 -5.464101e-04 -9.250563e-04
