108
Energy=-1.535276e+06 Lattice="9.524884e+00 0.000000e+00 0.000000e+00 -4.763264e+00 8.248627e+00 0.000000e+00 1.877323e-04 -1.411568e-03 1.538808e+01" Stress="-4.574790e-04 -9.483641e-05 7.174721e-05 -7.696660e-05 -5.407753e-04 -3.805830e-05 6.091487e-05 -2.735504e-05 -8.262481e-04" Properties=species:S:1:pos:R:3:forces:R:3 Config_type=AlGaN_super3_24_0_31.xyz
Al 1.558788e+00 8.728843e-01 2.430135e+00 -1.807656e-05 -6.208663e-05 7.534557e-05
Al 1.563606e+00 8.699914e-01 7.550899e+00 1.486122e-05 2.762963e-05 7.130450e-07
Al 1.566165e+00 8.744048e-01 -2.729258e+00 2.916064e-05 2.510024e-05 4.017936e-05
Al -2.653812e-02 3.625611e+00 2.412399e+00 3.729780e-05 1.944666e-04 4.206672e-04
Al -2.611288e-02 3.627423e+00 7.555635e+00 -3.869708e-05 5.225642e-05 3.233613e-05
Ga -1.354972e-02 3.623551e+00 -2.719804e+00 4.541577e-05 1.343265e-06 -1.816201e-05
Al 3.145920e+00 -1.878965e+00 2.449047e+00 -1.534296e-04 2.075644e-05 -5.377379e-05
Ga 3.156690e+00 -1.869019e+00 7.529090e+00 -3.567429e-05 -4.757321e-05 6.866084e-05
Al 3.150114e+00 -1.863241e+00 -2.731865e+00 -3.000744e-05 2.639931e-05 5.927988e-05
Ga -4.789923e+00 8.750004e-01 2.428354e+00 6.873527e-05 6.867287e-05 -1.945772e-05
Al -4.772270e+00 8.719995e-01 7.542591e+00 -2.726163e-05 -4.752229e-05 4.053988e-05
Ga -4.792033e+00 8.762639e-01 -2.719235e+00 8.086311e-05 9.826372e-06 -5.562649e-06
Al -6.373780e+00 3.628915e+00 2.404873e+00 -4.842266e-05 -3.288793e-05 1.217143e-05
Ga -6.376797e+00 3.626410e+00 7.565567e+00 -4.248320e-05 3.161783e-05 4.186250e-05
Al -6.367129e+00 3.633958e+00 -2.721099e+00 -8.032112e-05 9.699420e-05 1.240983e-04
Ga -3.199497e+00 -1.879118e+00 2.397334e+00 2.623806e-05 1.189252e-05 6.203656e-05
Al -3.218700e+00 -1.874132e+00 7.552794e+00 5.546360e-06 -5.340964e-05 -1.125814e-07
Ga -3.211069e+00 -1.883907e+00 -2.689893e+00 -1.965073e-05 -5.675804e-06 7.259105e-05
Al -1.601610e+00 8.810385e-01 2.429464e+00 3.605964e-05 -9.998182e-05 6.063906e-05
Ga -1.620894e+00 8.979871e-01 7.552973e+00 1.240412e-04 -5.936232e-05 7.909314e-06
Ga -1.604067e+00 8.923866e-01 -2.725137e+00 1.084088e-04 -4.970132e-05 -1.732402e-05
Al -3.191373e+00 3.636087e+00 2.426890e+00 -2.224311e-04 -3.018270e-04 1.413540e-04
Al -3.193112e+00 3.613166e+00 7.537935e+00 4.811491e-05 -2.340475e-05 3.297450e-05
Al -3.213122e+00 3.634037e+00 -2.715440e+00 -2.901814e-05 -4.904369e-05 4.405045e-05
Al -1.410128e-02 -1.874972e+00 2.399105e+00 -2.206451e-06 4.340430e-04 1.004686e-04
Ga -5.397014e-03 -1.872496e+00 7.562010e+00 4.508598e-05 -5.911601e-05 6.664271e-05
Ga -3.031389e-03 -1.888985e+00 -2.704672e+00 1.008403e-04 -1.271633e-04 5.787861e-05
Ga -2.553505e-02 1.798758e+00 4.973927e+00 -2.489763e-05 4.940323e-05 7.594053e-06
Al -1.331774e-02 1.794847e+00 -5.295226e+00 -4.009819e-05 7.092621e-05 8.246012e-05
Ga -1.742564e-02 1.788777e+00 -1.165481e-01 -3.892129e-05 -9.967452e-06 2.148968e-05
Al 3.148776e+00 -3.705892e+00 4.972191e+00 1.563132e-04 -1.655223e-04 3.201328e-04
Ga 3.143305e+00 -3.710237e+00 -5.281824e+00 -6.958315e-06 4.003875e-06 -3.814222e-05
Ga 3.149761e+00 -3.688517e+00 -1.407202e-01 -8.099469e-06 6.004066e-05 -2.440443e-05
Al 1.574775e+00 -9.609722e-01 4.956012e+00 -2.324650e-04 2.381129e-04 -9.499835e-05
Al 1.569941e+00 -9.487326e-01 -5.264682e+00 -2.129623e-05 3.418283e-06 4.112875e-05
Ga 1.575902e+00 -9.611329e-01 -1.326573e-01 -6.519685e-05 6.324098e-05 7.473422e-05
Ga 3.155323e+00 1.777053e+00 4.995645e+00 -4.888257e-05 1.480544e-05 1.749853e-05
Ga 3.148518e+00 1.787577e+00 -5.282033e+00 1.844211e-05 2.380238e-05 -1.303013e-05
Ga 3.145837e+00 1.809079e+00 -1.518730e-01 2.698355e-05 2.213787e-05 1.731526e-06
Ga 6.308438e+00 -3.700759e+00 4.982864e+00 7.690803e-05 1.634791e-05 7.092621e-05
Al 6.323305e+00 -3.700097e+00 -5.285804e+00 -4.006077e-05 1.982561e-05 5.504096e-05
Al 6.343949e+00 -3.699410e+00 -1.356060e-01 1.034280e-04 1.199912e-06 9.243075e-06
Al 4.731195e+00 -9.566769e-01 4.993737e+00 1.003344e-04 -1.607579e-04 1.080033e-04
Al 4.742599e+00 -9.562691e-01 -5.294793e+00 -1.272803e-04 -8.033555e-05 4.907798e-06
Al 4.737783e+00 -9.711761e-01 -1.397963e-01 -2.135315e-05 3.423931e-05 3.079764e-05
Al -3.198208e+00 1.799591e+00 4.978357e+00 8.077781e-05 1.387519e-04 -1.644835e-04
Al -3.206684e+00 1.804456e+00 -5.285960e+00 2.492455e-04 9.260532e-06 -2.622926e-04
Ga -3.197279e+00 1.797435e+00 -1.323954e-01 -1.701836e-06 -1.410141e-05 6.039472e-05
Ga -2.806895e-03 -3.706081e+00 4.962134e+00 1.346401e-05 2.315463e-05 1.481489e-05
Al -1.321875e-02 -3.715369e+00 -5.268675e+00 5.985072e-06 4.049808e-05 1.256080e-05
Al -3.410126e-02 -3.706035e+00 -1.334685e-01 -1.456512e-04 -1.083359e-04 -3.617474e-04
Ga -1.612239e+00 -9.516775e-01 4.981376e+00 -3.261328e-05 -4.236263e-05 1.484643e-05
Ga -1.619138e+00 -9.622430e-01 -5.286541e+00 -3.502793e-05 5.445485e-05 -1.290203e-05
Al -1.612801e+00 -9.651486e-01 -1.291077e-01 -4.206315e-05 -7.732914e-06 4.337873e-05
N 1.566485e+00 8.328346e-01 4.333283e+00 4.227115e-05 -1.884423e-04 3.431213e-05
N 1.523135e+00 8.441914e-01 -5.919847e+00 -9.095545e-06 1.594648e-06 -1.782226e-05
N 1.558677e+00 8.737617e-01 -8.203595e-01 4.811230e-05 -2.901583e-05 -5.086691e-05
N -6.474656e-02 3.653156e+00 4.322450e+00 -2.163995e-04 4.817975e-05 8.052966e-05
N 1.366361e-02 3.606774e+00 -5.910196e+00 3.505513e-05 -4.234036e-05 2.262182e-05
N 2.034024e-02 3.648713e+00 -7.412753e-01 1.826108e-06 -1.627493e-05 -1.879294e-05
N 3.158044e+00 -1.875159e+00 4.380660e+00 -4.524917e-05 -2.195146e-07 7.366425e-06
N 3.148126e+00 -1.825000e+00 -5.877486e+00 3.665166e-06 1.977160e-05 -5.833353e-05
N 3.193704e+00 -1.845380e+00 -8.169283e-01 2.070605e-05 -2.030028e-05 -5.023371e-05
N -4.744217e+00 8.487827e-01 4.404081e+00 4.615842e-05 2.509665e-04 4.302977e-05
N -4.740590e+00 8.523955e-01 -5.917388e+00 1.640686e-05 1.353298e-05 3.072902e-06
N -4.783447e+00 8.278102e-01 -7.429345e-01 1.880748e-05 -3.685622e-05 7.972758e-06
N -6.377058e+00 3.625144e+00 4.317253e+00 -3.331949e-05 2.187878e-05 -7.327408e-05
N -6.371414e+00 3.676577e+00 -5.853324e+00 -3.214715e-05 1.061747e-05 -1.417478e-05
N -6.370972e+00 3.682583e+00 -7.900916e-01 2.112182e-04 9.442199e-05 -1.835328e-05
N -3.241918e+00 -1.847233e+00 4.366751e+00 -8.733011e-05 -3.545257e-06 -3.298754e-05
N -3.245726e+00 -1.897394e+00 -5.920255e+00 2.624963e-05 -4.896129e-05 2.405662e-05
N -3.199067e+00 -1.873408e+00 -6.961731e-01 5.121717e-06 -1.244475e-05 3.356508e-06
N -1.652147e+00 8.992539e-01 4.341820e+00 2.961318e-05 -2.304643e-06 -2.487986e-05
N -1.615010e+00 9.304764e-01 -5.858941e+00 -1.235676e-04 1.049173e-05 1.665327e-04
N -1.607783e+00 8.333944e-01 -7.490377e-01 9.304525e-05 -7.513222e-05 -2.563577e-05
N -3.154650e+00 3.602735e+00 4.342183e+00 1.123719e-04 -7.638333e-05 -2.128747e-04
N -3.240442e+00 3.602198e+00 -5.929697e+00 6.951384e-07 1.151849e-04 -1.388901e-04
N -3.243543e+00 3.653434e+00 -7.958236e-01 -1.133497e-04 9.571838e-05 6.016803e-05
N 1.387925e-02 -1.849398e+00 4.316506e+00 1.918259e-04 1.852649e-06 -1.060132e-04
N 2.753145e-02 -1.898590e+00 -5.847296e+00 9.395100e-05 -1.056129e-04 -3.566558e-05
N -5.724560e-02 -1.897593e+00 -7.174309e-01 5.929698e-05 -2.330655e-04 7.919430e-05
N -2.009362e-02 1.791270e+00 1.865381e+00 -1.834797e-05 -1.243841e-04 -1.618011e-04
N 2.130387e-02 1.819396e+00 6.956676e+00 -1.818049e-05 6.718682e-05 -6.138192e-06
N 2.276966e-02 1.772854e+00 -3.381674e+00 -1.690143e-05 3.095960e-05 -1.134378e-04
N 3.149884e+00 -3.697047e+00 1.849520e+00 -2.459226e-04 -2.101919e-04 -6.009225e-05
N 3.152949e+00 -3.757068e+00 6.908742e+00 1.035000e-05 -3.464576e-05 -2.094904e-04
N 3.108872e+00 -3.685576e+00 -3.297562e+00 6.120620e-06 5.028167e-05 7.320387e-07
N 1.576350e+00 -9.567211e-01 1.853062e+00 -1.075108e-04 -2.192167e-04 4.194978e-05
N 1.563494e+00 -9.089791e-01 6.871377e+00 -5.235989e-05 1.148323e-05 -5.439591e-05
N 1.605948e+00 -9.308253e-01 -3.345999e+00 -2.699324e-05 5.313547e-05 -4.777525e-05
N 3.107226e+00 1.815515e+00 1.829728e+00 -3.929934e-05 7.371934e-06 -7.851041e-05
N 3.151920e+00 1.745333e+00 6.980181e+00 2.855050e-05 -5.511497e-06 -3.809911e-06
N 3.111394e+00 1.819556e+00 -3.298810e+00 -2.589283e-05 -1.627272e-05 -6.769842e-06
N 6.329253e+00 -3.758428e+00 1.779546e+00 1.527731e-04 -9.311728e-06 -1.581007e-04
N 6.283959e+00 -3.684265e+00 6.961140e+00 3.370579e-05 8.491984e-06 -5.175664e-05
N 6.367998e+00 -3.722260e+00 -3.370799e+00 8.988857e-05 -5.764125e-05 -7.140349e-05
N 4.684367e+00 -9.840781e-01 1.768606e+00 1.188319e-04 8.210874e-05 -1.998380e-05
N 4.780158e+00 -9.326505e-01 6.909447e+00 2.220461e-05 7.212177e-05 6.302996e-06
N 4.706705e+00 -9.804798e-01 -3.379878e+00 -2.120295e-05 4.163712e-06 -3.726905e-05
N -3.156843e+00 1.820644e+00 1.840415e+00 1.409738e-04 2.809408e-04 1.254951e-05
N -3.239759e+00 1.819482e+00 6.899193e+00 -6.147527e-05 1.301430e-06 1.891431e-05
N -3.202176e+00 1.846752e+00 -3.369151e+00 -4.942364e-05 1.755646e-05 8.866911e-05
N -1.916810e-02 -3.712468e+00 1.800041e+00 -1.258948e-05 4.761889e-05 -1.146562e-04
N 1.844819e-02 -3.728539e+00 6.932623e+00 -1.031122e-06 -1.977762e-05 -1.199127e-05
N -1.911833e-02 -3.754532e+00 -3.351862e+00 -5.934934e-05 -4.454159e-05 5.253478e-05
N -1.567514e+00 -9.281311e-01 1.790145e+00 9.909917e-05 -1.373792e-04 -8.119731e-05
N -1.647921e+00 -9.803203e-01 6.962262e+00 -8.084535e-05 2.228636e-05 -1.199077e-05
N -1.612747e+00 -9.636056e-01 -3.322282e+00 -1.834155e-04 4.780144e-05 -4.218726e-05
