108
Energy=-8.944188e+05 Lattice="9.463395e+00 0.000000e+00 0.000000e+00 -4.739252e+00 8.191579e+00 0.000000e+00 -2.036865e-03 2.038624e-03 1.523548e+01" Stress="4.971100e-03 1.181220e-03 -1.996489e-04 1.173521e-03 4.077462e-03 -1.825638e-04 -2.025660e-04 -1.822262e-04 7.268830e-03" Properties=species:S:1:pos:R:3:forces:R:3 Config_type=AlGaN_super3_10_0_8.xyz
Al 1.563379e+00 8.776084e-01 2.393719e+00 -9.557050e-05 4.942456e-03 1.288589e-03
Al 1.561979e+00 8.674559e-01 7.471092e+00 3.018322e-04 2.700716e-03 2.402642e-03
Al 1.555598e+00 8.798095e-01 -2.684387e+00 4.565188e-04 -8.797373e-04 -3.698771e-03
Al -1.911133e-02 3.608911e+00 2.381042e+00 2.422198e-04 -5.396859e-04 2.854131e-04
Al -2.976719e-02 3.606267e+00 7.465457e+00 4.677724e-04 2.469347e-03 1.789956e-03
Al -3.103395e-02 3.587674e+00 -2.690602e+00 9.455678e-04 7.446391e-04 1.374935e-03
Al 3.161040e+00 -1.860759e+00 2.404898e+00 1.250844e-04 -1.720373e-03 1.574700e-03
Al 3.144854e+00 -1.862090e+00 7.465569e+00 5.834968e-03 -3.164934e-03 3.964283e-03
Al 3.147909e+00 -1.865580e+00 -2.711466e+00 -2.543885e-04 4.693017e-04 3.493347e-04
Al -4.765935e+00 8.668374e-01 2.396690e+00 5.984382e-04 -1.329633e-04 -8.611293e-04
Al -4.769301e+00 8.716987e-01 7.457876e+00 1.522088e-03 -1.064098e-03 1.321459e-03
Al -4.762528e+00 8.751241e-01 -2.688050e+00 2.317033e-03 -1.616076e-03 3.275973e-04
Al -6.348397e+00 3.595988e+00 2.400673e+00 -1.451652e-03 -1.275735e-03 -9.757340e-04
Al -6.343752e+00 3.592636e+00 7.446226e+00 6.831863e-04 1.192792e-03 1.234044e-03
Al -6.326386e+00 3.587633e+00 -2.676644e+00 -1.217680e-04 1.143104e-03 1.177914e-03
Al -3.180666e+00 -1.857578e+00 2.395248e+00 -2.814321e-03 -1.719018e-03 -1.117009e-03
Al -3.187158e+00 -1.861635e+00 7.456076e+00 2.790110e-03 1.353595e-03 -4.618952e-04
Ga -3.181743e+00 -1.858340e+00 -2.677253e+00 1.425220e-03 7.881883e-04 2.523201e-03
Al -1.610615e+00 8.653024e-01 2.370918e+00 2.067501e-04 6.647050e-03 8.027582e-03
Ga -1.624166e+00 8.857740e-01 7.467818e+00 2.608160e-03 -1.873205e-03 1.963464e-03
Al -1.603190e+00 8.932323e-01 -2.694305e+00 2.752234e-04 -2.182193e-03 -1.551381e-03
Ga -3.185558e+00 3.593989e+00 2.391471e+00 3.931313e-03 4.191600e-04 4.554228e-04
Al -3.192004e+00 3.606447e+00 7.467017e+00 2.385508e-03 -6.047375e-04 1.154928e-03
Al -3.180387e+00 3.598039e+00 -2.699905e+00 1.759411e-03 5.004121e-04 1.726036e-03
Ga -4.027093e-02 -1.855380e+00 2.431291e+00 4.366165e-03 4.776026e-04 -1.558850e-03
Ga -2.538045e-02 -1.864303e+00 7.481873e+00 2.475720e-03 1.479536e-03 1.402152e-04
Ga -1.618608e-02 -1.854670e+00 -2.702331e+00 1.361344e-03 8.012285e-04 6.773302e-04
Ga -2.073721e-02 1.785860e+00 4.926425e+00 -3.882196e-03 -1.247789e-03 -4.170776e-04
Al -3.153233e-02 1.772612e+00 -5.224424e+00 -2.058676e-03 -1.675896e-03 -9.368539e-04
Al -3.483462e-02 1.786289e+00 -1.404446e-01 3.529984e-03 -4.405320e-04 -5.676399e-03
Al 3.136772e+00 -3.673172e+00 4.943219e+00 -9.634239e-04 7.798893e-05 8.088433e-04
Al 3.134757e+00 -3.687697e+00 -5.239939e+00 -1.124753e-03 2.188211e-03 6.307734e-04
Al 3.153827e+00 -3.686479e+00 -1.566348e-01 -2.977041e-03 6.383992e-04 -6.396134e-03
Al 1.562840e+00 -9.590105e-01 4.920568e+00 7.269915e-03 4.289976e-03 1.254293e-02
Al 1.567086e+00 -9.518468e-01 -5.232778e+00 -3.062128e-03 -1.435721e-03 -1.291279e-03
Ga 1.586618e+00 -9.539636e-01 -1.290713e-01 -3.224467e-03 2.155611e-03 -2.718645e-03
Al 3.131210e+00 1.777257e+00 4.934116e+00 -2.631168e-04 7.487784e-04 1.232631e-03
Ga 3.134643e+00 1.775302e+00 -5.233062e+00 -3.282071e-04 5.032921e-04 1.774344e-03
Al 3.142420e+00 1.790646e+00 -1.471048e-01 -3.223289e-03 -1.267368e-03 -4.121943e-03
Al 6.286757e+00 -3.671412e+00 4.931597e+00 -2.431875e-04 -1.000324e-03 6.516807e-04
Ga 6.290891e+00 -3.680852e+00 -5.240951e+00 4.185973e-04 1.082593e-04 1.570964e-03
Al 6.294018e+00 -3.694214e+00 -1.335746e-01 3.082820e-04 2.644177e-03 -5.460519e-03
Al 4.713238e+00 -9.500020e-01 4.934166e+00 -1.337723e-03 8.978299e-04 1.911151e-04
Al 4.717476e+00 -9.472913e-01 -5.247293e+00 -2.035903e-03 -8.507300e-04 1.443666e-03
Al 4.718942e+00 -9.445132e-01 -1.322419e-01 2.503940e-04 -2.093817e-04 -3.693145e-03
Al -3.199701e+00 1.787990e+00 4.937066e+00 1.158221e-03 -1.799637e-03 -7.645107e-04
Al -3.181400e+00 1.786566e+00 -5.223101e+00 5.961056e-04 -2.244577e-03 -5.203585e-04
Al -3.181123e+00 1.783625e+00 -1.580251e-01 -2.295803e-03 8.429625e-04 -4.173435e-03
Al -2.773572e-02 -3.683960e+00 4.944493e+00 2.719525e-04 -2.558717e-03 3.015674e-03
Al -1.177509e-02 -3.686365e+00 -5.232128e+00 4.043142e-04 9.344094e-04 1.922379e-03
Al -2.584563e-02 -3.685960e+00 -1.594550e-01 7.411853e-04 -1.638770e-04 1.108192e-03
Al -1.612833e+00 -9.600610e-01 4.924816e+00 -6.586663e-04 4.786037e-03 -2.126779e-03
Al -1.598119e+00 -9.539846e-01 -5.241545e+00 -7.670833e-03 4.918648e-03 6.180541e-03
Al -1.601390e+00 -9.343538e-01 -1.404010e-01 -9.877035e-04 -1.818175e-04 7.883228e-04
N 1.584781e+00 8.541983e-01 4.311609e+00 3.148195e-03 -2.624893e-03 -1.095071e-03
N 1.519045e+00 8.522965e-01 -5.848540e+00 -3.006058e-03 -1.228384e-03 -2.985068e-04
N 1.550849e+00 9.078152e-01 -7.866745e-01 5.593447e-04 3.863634e-03 9.410887e-03
N -2.965497e-02 3.645745e+00 4.306785e+00 -3.978990e-05 3.572750e-03 -3.593067e-03
N -5.816102e-02 3.577300e+00 -5.852732e+00 -3.192888e-03 -2.334520e-03 -1.139181e-03
N -2.330722e-02 3.596252e+00 -7.618578e-01 1.184641e-03 -3.168479e-04 1.558256e-03
N 3.138362e+00 -1.863498e+00 4.332228e+00 1.106986e-03 -7.826572e-04 -8.462702e-04
N 3.139660e+00 -1.864055e+00 -5.844913e+00 3.288040e-04 -1.531617e-03 1.851867e-03
N 3.181394e+00 -1.881802e+00 -7.884093e-01 3.575804e-03 -1.221652e-03 1.316795e-03
N -4.765788e+00 8.740973e-01 4.328936e+00 8.651258e-04 -1.098887e-03 -2.734243e-03
N -4.723277e+00 8.515724e-01 -5.856424e+00 3.576291e-03 -4.835244e-04 -2.521303e-03
N -4.757271e+00 8.710363e-01 -7.627854e-01 8.657214e-04 -1.167254e-03 2.338397e-03
N -6.343170e+00 3.600403e+00 4.333234e+00 5.156821e-04 6.548252e-04 -2.084781e-03
N -6.290580e+00 3.623959e+00 -5.879543e+00 -1.094576e-03 -1.615218e-03 -2.787345e-03
N -6.330157e+00 3.602257e+00 -7.565293e-01 -1.104913e-03 -2.138389e-04 1.327310e-03
N -3.181338e+00 -1.863226e+00 4.325676e+00 4.427886e-04 -4.308833e-04 -3.893360e-03
N -3.173685e+00 -1.824037e+00 -5.859070e+00 -7.342328e-04 2.221377e-03 -3.524094e-03
N -3.165356e+00 -1.856594e+00 -6.910244e-01 -2.106378e-03 -1.617504e-03 4.166592e-04
N -1.653447e+00 8.553409e-01 4.316820e+00 8.828777e-04 -1.076858e-03 -6.810615e-03
N -1.616500e+00 8.543529e-01 -5.801295e+00 2.725230e-03 7.042351e-03 4.828141e-03
N -1.608841e+00 8.835252e-01 -7.638940e-01 2.588544e-03 -2.313184e-03 1.566702e-03
N -3.186700e+00 3.609490e+00 4.371545e+00 1.418424e-03 -1.870009e-04 3.331791e-04
N -3.184244e+00 3.602752e+00 -5.838044e+00 1.721530e-03 -4.219315e-04 -1.010773e-03
N -3.181520e+00 3.609929e+00 -7.645740e-01 1.339290e-03 -7.444811e-04 9.285200e-04
N -9.449508e-03 -1.859202e+00 4.421464e+00 -6.159273e-03 -1.530329e-03 -8.010980e-03
N -5.886006e-02 -1.860408e+00 -5.769892e+00 1.622771e-02 -2.372786e-03 -2.554085e-03
N -5.189574e-02 -1.869886e+00 -7.237711e-01 -1.029152e-03 -9.767051e-04 3.129843e-03
N -1.862084e-02 1.783283e+00 1.782889e+00 -2.191022e-03 -1.929199e-03 2.398751e-03
N 8.190635e-03 1.808849e+00 6.891895e+00 3.016883e-03 -2.893134e-03 -2.625848e-06
N -1.744227e-02 1.781357e+00 -3.299310e+00 -1.846728e-03 -4.712677e-04 -2.946850e-04
N 3.173830e+00 -3.663561e+00 1.745071e+00 3.647129e-04 3.238155e-03 6.610829e-03
N 3.135894e+00 -3.683172e+00 6.867418e+00 -1.249272e-03 3.717504e-04 -9.476894e-04
N 3.142228e+00 -3.688208e+00 -3.309747e+00 -1.020509e-03 2.546636e-04 7.584257e-04
N 1.605840e+00 -9.233746e-01 1.857477e+00 -1.591233e-03 -4.617319e-03 -4.537401e-03
N 1.623928e+00 -9.365341e-01 6.912226e+00 -1.019008e-02 2.954324e-03 -2.105335e-02
N 1.606324e+00 -9.256316e-01 -3.317903e+00 8.179201e-04 8.983419e-04 9.720323e-04
N 3.129350e+00 1.784231e+00 1.776786e+00 7.629417e-04 1.129012e-04 2.492720e-03
N 3.125236e+00 1.778592e+00 6.861602e+00 -7.487797e-04 -2.336993e-04 -2.501785e-03
N 3.133714e+00 1.783989e+00 -3.257085e+00 -5.911319e-04 -8.131099e-04 2.420177e-03
N 6.293203e+00 -3.678427e+00 1.776469e+00 2.882294e-04 -7.339472e-04 6.149809e-03
N 6.283591e+00 -3.679661e+00 6.859508e+00 8.287914e-05 2.334921e-04 -1.306408e-03
N 6.298471e+00 -3.726397e+00 -3.268374e+00 -1.514383e-03 -2.137356e-03 2.439908e-03
N 4.715090e+00 -9.467426e-01 1.786684e+00 -1.846379e-03 3.479705e-04 3.430345e-03
N 4.714286e+00 -9.492441e-01 6.858145e+00 -7.323761e-04 3.710846e-04 -1.856339e-03
N 4.687775e+00 -9.307980e-01 -3.323937e+00 -3.723399e-03 2.782583e-03 -1.513251e-03
N -3.188674e+00 1.739432e+00 1.753841e+00 3.059972e-04 -2.249604e-03 2.097552e-03
N -3.223513e+00 1.805578e+00 6.849881e+00 -4.046620e-03 2.463138e-03 -2.530043e-03
N -3.185689e+00 1.785421e+00 -3.298437e+00 3.406023e-05 -1.752550e-04 1.253011e-03
N -5.998149e-02 -3.699508e+00 1.767356e+00 -2.523045e-03 5.903156e-04 -2.352115e-03
N -2.456821e-02 -3.716923e+00 6.856266e+00 -4.168278e-04 -3.336661e-03 -2.593281e-03
N -1.891692e-02 -3.720378e+00 -3.312047e+00 -2.362461e-04 -3.915410e-03 -7.289816e-04
N -1.640875e+00 -9.222834e-01 1.792941e+00 1.654970e-03 -2.014572e-03 -4.388744e-03
N -1.621829e+00 -9.586096e-01 6.805218e+00 -7.443176e-03 -3.623969e-03 8.672681e-03
N -1.601882e+00 -9.052617e-01 -3.331946e+00 -9.768854e-04 3.447215e-03 1.708317e-03
