108
Energy=-2.267684e+06 Lattice="9.620499e+00 0.000000e+00 0.000000e+00 -4.810910e+00 8.329446e+00 0.000000e+00 -5.128746e-04 -2.818110e-03 1.559743e+01" Stress="-6.187255e-05 -7.920950e-05 -1.087685e-04 -7.858044e-05 -9.745354e-05 -1.141614e-04 -9.614950e-05 -1.170238e-04 -4.681605e-06" Properties=species:S:1:pos:R:3:forces:R:3 Config_type=AlGaN_super3_40_0_10.xyz
Al 1.579836e+00 8.949117e-01 2.446662e+00 2.089031e-04 -4.660068e-05 -2.351960e-05
Al 1.576628e+00 8.777493e-01 7.643084e+00 -4.632450e-05 -3.566848e-05 -3.699063e-05
Al 1.575772e+00 8.895166e-01 -2.731024e+00 -4.798844e-05 -1.421969e-05 2.257893e-05
Al -6.652446e-03 3.661817e+00 2.450264e+00 7.077914e-05 1.351735e-04 4.336351e-05
Ga -2.175050e-02 3.660465e+00 7.634809e+00 -2.374007e-05 3.170389e-06 -4.142347e-05
Ga -1.754953e-02 3.654207e+00 -2.728755e+00 -2.320748e-05 2.724884e-05 -3.726137e-05
Ga 3.195816e+00 -1.884683e+00 2.478315e+00 1.516776e-04 1.238313e-04 3.815273e-05
Ga 3.180941e+00 -1.893954e+00 7.627176e+00 -5.917684e-05 3.316740e-05 -2.928334e-05
Ga 3.180145e+00 -1.889160e+00 -2.749248e+00 -6.630515e-05 1.083165e-04 1.732942e-05
Al -4.840212e+00 8.730597e-01 2.467142e+00 2.218636e-04 4.504908e-06 1.266025e-05
Ga -4.846246e+00 8.755964e-01 7.636439e+00 2.706073e-05 4.828330e-05 1.798808e-05
Ga -4.844556e+00 8.855948e-01 -2.739966e+00 -6.414874e-06 2.348533e-05 4.359517e-05
Ga -6.461452e+00 3.658514e+00 2.457657e+00 1.413121e-04 5.831115e-06 -1.236560e-05
Ga -6.443465e+00 3.662563e+00 7.637457e+00 5.876567e-05 2.469657e-05 -1.214588e-05
Ga -6.439940e+00 3.660780e+00 -2.738416e+00 -7.208041e-05 2.652173e-05 1.076114e-04
Al -3.244209e+00 -1.901732e+00 2.466645e+00 9.218196e-05 7.586615e-05 -1.736472e-05
Ga -3.228554e+00 -1.896864e+00 7.618682e+00 3.100278e-05 3.820291e-05 -5.949182e-05
Ga -3.229931e+00 -1.895951e+00 -2.727311e+00 -7.002157e-05 5.900240e-05 1.204836e-05
Ga -1.617939e+00 8.895101e-01 2.446063e+00 2.168647e-04 8.456834e-05 8.377473e-05
Ga -1.609543e+00 8.766268e-01 7.639716e+00 6.843316e-05 -3.224656e-05 -2.188588e-05
Ga -1.609044e+00 8.899970e-01 -2.725025e+00 1.179370e-05 1.299565e-05 -1.224291e-04
Ga -3.224085e+00 3.656746e+00 2.474069e+00 1.743270e-04 5.450626e-06 -3.623213e-05
Ga -3.223718e+00 3.677927e+00 7.656039e+00 -2.949235e-05 2.908546e-05 -5.523088e-05
Ga -3.229213e+00 3.672617e+00 -2.763951e+00 -2.654056e-05 -2.585544e-05 -6.347771e-05
Ga -2.407644e-02 -1.881481e+00 2.459723e+00 1.647796e-04 8.250943e-06 -6.074956e-05
Al -1.769116e-02 -1.888184e+00 7.656814e+00 3.476448e-05 1.637003e-05 -6.202322e-05
Ga -1.638980e-02 -1.888195e+00 -2.755064e+00 -4.760749e-05 6.985210e-05 -7.559287e-05
Ga -1.048382e-02 1.830120e+00 5.037597e+00 -6.355792e-05 1.065565e-04 -7.486347e-05
Ga -1.571195e-02 1.817319e+00 -5.347721e+00 -8.143238e-05 3.591419e-05 -6.112527e-05
Al -5.364886e-03 1.822434e+00 -1.292175e-01 2.987871e-04 6.040598e-06 1.174227e-04
Al 3.206533e+00 -3.740152e+00 5.032598e+00 -6.666671e-05 3.603559e-05 3.928404e-05
Al 3.179940e+00 -3.740732e+00 -5.349759e+00 -7.849376e-05 3.118576e-05 -1.052985e-05
Ga 3.200828e+00 -3.752800e+00 -1.255257e-01 1.626786e-04 1.882388e-04 2.156432e-05
Ga 1.588354e+00 -9.629278e-01 5.066005e+00 -9.471708e-05 7.814190e-05 -1.140201e-05
Ga 1.578718e+00 -9.700956e-01 -5.364384e+00 -4.033727e-05 4.991830e-05 8.503873e-06
Ga 1.576755e+00 -9.483247e-01 -1.414404e-01 1.419265e-04 1.898457e-04 3.158725e-05
Ga 3.176190e+00 1.801177e+00 5.034858e+00 -8.931613e-05 1.068365e-05 1.101979e-05
Ga 3.174336e+00 1.815519e+00 -5.345569e+00 2.136183e-05 2.842422e-05 1.104044e-05
Ga 3.163319e+00 1.811511e+00 -1.262425e-01 1.837950e-04 6.075831e-05 -9.757292e-05
Al 6.368016e+00 -3.733708e+00 5.024190e+00 -4.894155e-05 3.396535e-05 -3.885387e-05
Ga 6.387981e+00 -3.742405e+00 -5.351530e+00 1.283208e-05 8.709950e-05 2.856261e-05
Al 6.379212e+00 -3.746545e+00 -1.180384e-01 2.541522e-04 7.897549e-05 1.270049e-04
Al 4.792562e+00 -9.783135e-01 5.021515e+00 -8.682048e-05 4.382425e-06 8.435174e-06
Ga 4.784026e+00 -9.762821e-01 -5.350117e+00 -5.517545e-05 2.787505e-05 -3.069219e-05
Ga 4.794342e+00 -9.727933e-01 -1.113496e-01 2.048746e-04 1.418889e-04 -5.872006e-05
Ga -3.237606e+00 1.809709e+00 5.044356e+00 1.008608e-04 -2.996631e-06 -7.058620e-05
Ga -3.228780e+00 1.826915e+00 -5.349951e+00 2.762931e-05 4.243387e-05 -6.160603e-05
Ga -3.227803e+00 1.812990e+00 -1.269954e-01 1.285422e-04 1.542883e-04 1.187760e-04
Ga -2.324486e-02 -3.739986e+00 5.064278e+00 2.592196e-05 1.670686e-04 2.765880e-06
Al -1.597991e-02 -3.734005e+00 -5.366826e+00 1.309727e-05 4.911221e-05 -3.196571e-05
Ga -3.136371e-02 -3.743319e+00 -1.359396e-01 1.768420e-04 6.762232e-05 1.579390e-04
Ga -1.641038e+00 -9.811966e-01 5.046146e+00 -1.106232e-05 1.106850e-04 -8.425744e-05
Ga -1.620151e+00 -9.757364e-01 -5.357772e+00 -7.535235e-05 4.967317e-05 -6.729115e-05
Ga -1.633955e+00 -9.696515e-01 -1.263898e-01 1.827512e-04 -4.903493e-05 1.102155e-04
N 1.574879e+00 8.808309e-01 4.356732e+00 1.091517e-04 -4.218810e-05 -4.875629e-06
N 1.579944e+00 8.883316e-01 -6.041078e+00 7.353831e-05 -4.646173e-05 -9.224052e-05
N 1.536893e+00 9.132616e-01 -8.071555e-01 -1.027982e-04 -8.112517e-05 -4.014616e-05
N -2.093850e-02 3.707126e+00 4.381886e+00 5.432337e-05 -1.368742e-04 4.903223e-05
N -6.695799e-02 3.688921e+00 -5.976650e+00 4.699203e-05 -8.884407e-05 4.677758e-05
N 2.054396e-02 3.638541e+00 -7.360824e-01 -1.645839e-04 -1.168893e-04 4.181609e-06
N 3.219846e+00 -1.912869e+00 4.463431e+00 7.058885e-05 -1.699966e-05 -3.990619e-05
N 3.185572e+00 -1.940899e+00 -5.979821e+00 6.092474e-05 -2.004792e-05 1.739680e-05
N 3.185299e+00 -1.893036e+00 -7.660446e-01 -1.084028e-04 -1.286868e-04 -6.576714e-05
N -4.836434e+00 8.375949e-01 4.387047e+00 7.876851e-05 -6.624037e-05 1.146163e-05
N -4.836937e+00 8.846486e-01 -5.983145e+00 2.772143e-05 -8.607436e-05 5.498019e-05
N -4.838034e+00 8.847380e-01 -7.637497e-01 -1.347966e-04 -1.637911e-04 -1.119284e-04
N -6.482482e+00 3.687486e+00 4.440233e+00 4.689109e-05 -1.021518e-04 -2.624640e-05
N -6.398417e+00 3.686645e+00 -5.971829e+00 -5.117256e-05 -7.186841e-05 -1.028705e-05
N -6.483392e+00 3.687217e+00 -7.454497e-01 -1.482110e-04 -7.544459e-05 -3.506549e-05
N -3.271775e+00 -1.919044e+00 4.395006e+00 9.360072e-05 -2.279028e-05 5.455277e-05
N -3.232291e+00 -1.892471e+00 -6.004028e+00 6.125010e-06 -6.238704e-05 8.143854e-05
N -3.232774e+00 -1.942848e+00 -7.466560e-01 -1.276890e-04 -6.161209e-05 -4.478957e-05
N -1.621460e+00 8.865690e-01 4.420593e+00 9.977978e-05 -9.650205e-05 4.517223e-05
N -1.623735e+00 8.880883e-01 -5.982111e+00 9.766763e-05 -8.013715e-05 2.568812e-05
N -1.578290e+00 9.138192e-01 -7.327548e-01 -1.717760e-04 -1.401739e-04 5.886001e-05
N -3.189192e+00 3.688948e+00 4.447612e+00 1.222793e-04 -6.678110e-05 2.260201e-05
N -3.225761e+00 3.716256e+00 -5.948637e+00 9.648385e-05 -9.178148e-05 6.936735e-05
N -3.227641e+00 3.667722e+00 -7.818413e-01 -1.708258e-04 -1.575358e-04 6.149825e-05
N -1.850101e-02 -1.889218e+00 4.423424e+00 6.445503e-05 -1.141113e-04 3.415700e-05
N -2.166090e-02 -1.935106e+00 -6.017143e+00 3.869693e-05 -2.582891e-05 2.611336e-05
N -2.376506e-02 -1.890271e+00 -7.771382e-01 -1.366758e-04 -1.241595e-04 1.008102e-04
N 2.724490e-02 1.839248e+00 1.805930e+00 -3.665893e-04 2.066513e-05 -8.882513e-05
N 2.453296e-02 1.789422e+00 7.018630e+00 5.764600e-06 3.372367e-05 8.965443e-05
N 2.293368e-02 1.789077e+00 -3.363938e+00 4.343894e-05 -1.166485e-06 5.131899e-05
N 3.227844e+00 -3.765783e+00 1.853166e+00 -9.025031e-05 -7.577024e-05 1.175624e-04
N 3.188894e+00 -3.747803e+00 6.948508e+00 9.003261e-06 4.166753e-05 -5.868035e-05
N 3.194497e+00 -3.742674e+00 -3.427772e+00 -3.856467e-05 4.922206e-06 -9.438514e-06
N 1.586314e+00 -9.162938e-01 1.840473e+00 -2.792062e-04 -2.327251e-05 -2.819873e-05
N 1.538372e+00 -9.414440e-01 7.056022e+00 -5.051114e-05 2.668158e-05 7.622168e-05
N 1.581747e+00 -9.108523e-01 -3.371592e+00 -4.355492e-05 3.130051e-05 2.265212e-05
N 3.184879e+00 1.761012e+00 1.863958e+00 -2.287119e-04 -3.151655e-05 9.086359e-05
N 3.137878e+00 1.783160e+00 7.019337e+00 1.865739e-05 -1.064477e-05 5.936154e-05
N 3.136171e+00 1.788423e+00 -3.356592e+00 -1.695720e-05 -4.484427e-05 -2.916925e-05
N 6.346681e+00 -3.715023e+00 1.811550e+00 -2.721772e-04 -8.296682e-05 -1.763764e-04
N 6.386511e+00 -3.746405e+00 6.943570e+00 -3.350447e-05 3.322636e-05 4.716097e-05
N 6.389208e+00 -3.742337e+00 -3.379249e+00 1.297707e-05 -3.127643e-05 -4.303715e-05
N 4.829719e+00 -9.435922e-01 1.872600e+00 -2.378921e-04 -1.141726e-04 1.313994e-04
N 4.788831e+00 -9.664230e-01 6.942001e+00 -2.369523e-05 -3.148717e-05 -1.454848e-05
N 4.790440e+00 -9.671977e-01 -3.376609e+00 7.348000e-07 -5.716078e-05 3.460641e-05
N -3.275477e+00 1.787231e+00 1.853496e+00 -1.108205e-04 -4.846910e-06 -1.441897e-04
N -3.231527e+00 1.812517e+00 7.021875e+00 -5.993036e-05 1.042147e-05 1.638670e-05
N -3.226355e+00 1.807866e+00 -3.370891e+00 -2.032699e-05 3.902371e-05 4.641485e-05
N -2.368619e-02 -3.745849e+00 1.835122e+00 -1.760502e-04 3.580429e-05 -1.949863e-04
N -2.168338e-02 -3.694747e+00 7.041348e+00 4.465653e-06 -1.038965e-05 8.135665e-06
N -2.771019e-02 -3.739751e+00 -3.440713e+00 -1.476611e-05 -2.021149e-06 -7.227605e-06
N -1.674345e+00 -9.936794e-01 1.852887e+00 -1.303262e-04 4.511067e-05 -1.551327e-04
N -1.582224e+00 -9.952126e-01 7.026742e+00 -8.060563e-05 -1.915248e-05 4.886956e-05
N -1.628484e+00 -9.631068e-01 -3.376388e+00 8.553408e-06 -8.843709e-05 9.007471e-05
