108
Energy=-2.084582e+06 Lattice="9.596182e+00 0.000000e+00 0.000000e+00 -4.799416e+00 8.310416e+00 0.000000e+00 1.019430e-03 1.216048e-03 1.554672e+01" Stress="1.950433e-05 -7.636485e-06 -4.447992e-05 -2.262293e-05 -6.818245e-06 1.533005e-05 -1.047150e-05 3.335863e-05 -3.221686e-05" Properties=species:S:1:pos:R:3:forces:R:3 Config_type=AlGaN_super3_36_1_13.xyz
Al 1.588869e+00 8.859433e-01 2.455714e+00 3.264913e-05 -8.571058e-06 6.018612e-05
Al 1.580268e+00 8.822185e-01 7.619868e+00 8.336995e-06 -4.059115e-07 1.712866e-05
Ga 1.557692e+00 8.748931e-01 -2.752473e+00 1.019881e-05 2.190579e-05 7.832432e-05
Al -2.931411e-02 3.654223e+00 2.455206e+00 4.367504e-05 1.640844e-05 8.294651e-05
Al -8.572148e-03 3.645334e+00 7.630889e+00 1.356538e-05 2.034518e-05 3.396409e-05
Ga -3.291902e-02 3.639228e+00 -2.754116e+00 -2.454244e-05 -1.533629e-05 5.321900e-05
Al 3.165262e+00 -1.893317e+00 2.460062e+00 6.268426e-06 3.223072e-05 6.923924e-05
Ga 3.165402e+00 -1.873011e+00 7.619755e+00 1.995348e-05 1.890579e-05 3.638515e-05
Ga 3.153547e+00 -1.892359e+00 -2.748208e+00 -1.458396e-05 -1.311673e-05 7.143223e-05
Ga -4.833168e+00 8.984840e-01 2.430315e+00 -3.547459e-06 3.069242e-05 5.840431e-05
Al -4.835675e+00 8.886483e-01 7.612090e+00 3.455552e-05 -4.568458e-06 4.798704e-06
Ga -4.810939e+00 8.968217e-01 -2.708446e+00 1.797545e-05 3.629282e-05 4.936590e-05
Ga -6.431569e+00 3.633746e+00 2.461107e+00 -2.094159e-05 -1.797303e-05 8.902053e-05
Ga -6.439401e+00 3.638321e+00 7.610234e+00 1.518928e-05 -4.932961e-06 4.746417e-05
Ga -6.416784e+00 3.657176e+00 -2.738589e+00 3.238662e-05 -1.548378e-05 5.688753e-05
Ga -3.231307e+00 -1.898186e+00 2.460701e+00 -1.413170e-05 -2.266770e-05 5.779582e-05
Ga -3.231961e+00 -1.899494e+00 7.628660e+00 6.738073e-06 1.376111e-05 5.393188e-05
Ga -3.211531e+00 -1.888373e+00 -2.748663e+00 1.542491e-05 2.033988e-05 3.075971e-05
Ga -1.617511e+00 9.057439e-01 2.438919e+00 -3.473340e-05 -3.648331e-06 1.368042e-04
Ga -1.615273e+00 8.989085e-01 7.635765e+00 -1.670366e-05 -1.464552e-06 9.939531e-05
Al -1.616885e+00 8.943321e-01 -2.742277e+00 -5.628816e-06 -3.752778e-06 2.495917e-05
Al -3.206312e+00 3.653480e+00 2.433488e+00 -2.553335e-05 -1.302848e-05 7.383021e-05
Ga -3.217815e+00 3.646532e+00 7.629809e+00 -2.405283e-05 -5.210041e-05 5.673469e-05
Al -3.220896e+00 3.649121e+00 -2.728172e+00 8.748789e-06 -1.285884e-05 3.009100e-05
Ga 5.054246e-04 -1.882325e+00 2.454062e+00 -3.360561e-05 -1.345913e-05 1.053604e-04
Ga -3.924811e-03 -1.872119e+00 7.627452e+00 -4.295106e-05 -1.703656e-05 4.781189e-05
Al -1.348659e-02 -1.882147e+00 -2.744829e+00 5.370655e-06 9.553955e-06 2.771783e-05
Ga 9.794927e-03 1.814423e+00 5.034200e+00 4.753420e-05 1.904372e-05 6.583990e-05
Al -1.037111e-02 1.806426e+00 -5.349283e+00 -1.240615e-05 -2.037052e-05 1.869822e-05
Ga -1.836486e-02 1.804642e+00 -1.307428e-01 5.369371e-05 3.391266e-05 -6.417296e-05
Ga 3.186358e+00 -3.731031e+00 5.019657e+00 2.954130e-05 2.319827e-05 8.060648e-05
Ga 3.188180e+00 -3.738589e+00 -5.334234e+00 1.026132e-05 7.601903e-06 7.948206e-05
Ga 3.168712e+00 -3.744321e+00 -1.261091e-01 4.315515e-05 2.127978e-05 -7.206036e-05
Al 1.588829e+00 -9.430527e-01 5.020481e+00 2.126093e-06 -2.640975e-06 3.226099e-05
Al 1.565551e+00 -9.487508e-01 -5.330207e+00 -1.440690e-05 -1.582536e-05 2.037645e-05
Ga 1.581010e+00 -9.519472e-01 -1.313971e-01 1.650840e-05 -8.589277e-06 -5.523455e-05
Al 3.159468e+00 1.795960e+00 5.048189e+00 3.513008e-05 -7.691630e-06 -3.642426e-06
Ga 3.157445e+00 1.798049e+00 -5.356549e+00 -1.005459e-05 -1.394299e-05 2.571457e-05
Al 3.176257e+00 1.805483e+00 -1.362488e-01 -3.489034e-05 -3.185468e-08 4.974128e-06
Al 6.366815e+00 -3.749946e+00 5.037131e+00 9.014830e-06 1.361039e-05 -1.249621e-05
Al 6.365111e+00 -3.747740e+00 -5.341446e+00 2.009500e-05 1.620107e-06 6.964688e-06
Ga 6.377456e+00 -3.745493e+00 -1.300496e-01 -2.114992e-05 1.809790e-06 4.708206e-05
Ga 4.761192e+00 -9.586846e-01 5.033168e+00 9.197643e-06 -2.336570e-05 3.256326e-05
Ga 4.767542e+00 -9.590005e-01 -5.341755e+00 -2.921062e-06 -4.549742e-05 5.669004e-05
Ga 4.771312e+00 -9.524445e-01 -1.277489e-01 -2.506395e-05 -6.145684e-05 8.639187e-05
Ga -3.235822e+00 1.812136e+00 5.036837e+00 2.086310e-05 -1.334808e-05 1.239884e-05
Ga -3.220386e+00 1.803862e+00 -5.312604e+00 3.746132e-05 1.485315e-05 2.727386e-05
Al -3.220115e+00 1.817020e+00 -1.596843e-01 8.631630e-06 1.152378e-05 -1.774156e-05
Ga -2.544747e-02 -3.737894e+00 5.021802e+00 1.944362e-05 -4.660788e-06 6.187183e-05
Ga -2.564082e-02 -3.723777e+00 -5.308956e+00 1.050005e-05 -1.794160e-06 6.486646e-05
Ga -1.431776e-02 -3.747298e+00 -1.526059e-01 2.648320e-05 -1.453831e-06 -3.696564e-05
Ga -1.616984e+00 -9.694032e-01 5.045200e+00 2.442585e-05 -2.120127e-05 5.548166e-05
Ga -1.608880e+00 -9.589245e-01 -5.310828e+00 2.468408e-05 -4.765866e-05 6.343650e-05
Ga -1.617442e+00 -9.508260e-01 -1.689959e-01 -7.405596e-06 -3.246663e-05 -1.706928e-06
N 1.624364e+00 8.639379e-01 4.382295e+00 -5.919607e-05 2.322980e-05 2.824762e-06
N 1.531814e+00 8.531154e-01 -5.992950e+00 4.918651e-05 1.340394e-05 8.149063e-06
N 1.615705e+00 9.076012e-01 -7.706793e-01 -2.875402e-05 2.452019e-06 -1.137124e-04
N 1.770065e-02 3.675647e+00 4.368191e+00 -3.610900e-05 -4.203382e-05 -3.071592e-05
N 1.994385e-02 3.627629e+00 -5.983023e+00 -4.908944e-05 2.066761e-05 -1.161061e-05
N -2.450719e-02 3.650833e+00 -7.797930e-01 -2.001363e-06 -1.137343e-05 -6.793606e-05
N 3.132877e+00 -1.864468e+00 4.379254e+00 4.119071e-05 -1.925923e-05 -1.207321e-05
N 3.124489e+00 -1.861405e+00 -5.944069e+00 4.531005e-05 -1.317626e-05 -5.730417e-05
N 3.173272e+00 -1.889666e+00 -7.724887e-01 1.117297e-05 8.843971e-06 -9.900653e-05
N -4.868173e+00 9.150376e-01 4.412291e+00 2.416151e-05 2.257893e-06 -3.130771e-05
N -4.819819e+00 8.893089e-01 -6.019681e+00 -2.333851e-06 2.558182e-05 -6.542113e-06
N -4.821022e+00 9.338905e-01 -7.204123e-01 1.922005e-05 -1.503209e-05 -8.762513e-05
N -6.466552e+00 3.619171e+00 4.453891e+00 1.432184e-05 1.519501e-05 -4.394776e-05
N -6.461090e+00 3.678376e+00 -5.951298e+00 3.097656e-05 -2.407595e-05 -3.564923e-05
N -6.423020e+00 3.604921e+00 -7.562488e-01 -3.680458e-06 3.967841e-05 -8.268908e-05
N -3.221613e+00 -1.937182e+00 4.439456e+00 -2.322987e-05 3.877342e-05 -2.573464e-05
N -3.218799e+00 -1.935945e+00 -5.933686e+00 -4.766409e-06 3.652849e-05 -5.027341e-05
N -3.225061e+00 -1.892009e+00 -7.739466e-01 1.234100e-05 -7.299152e-06 -4.672861e-05
N -1.619306e+00 8.904169e-01 4.414422e+00 -4.053629e-05 7.450351e-06 -9.701690e-05
N -1.584075e+00 9.094167e-01 -5.935100e+00 -2.872670e-05 2.741246e-05 -9.576600e-05
N -1.655467e+00 9.173471e-01 -8.110571e-01 3.405653e-05 -2.208398e-05 -8.731372e-05
N -3.218770e+00 3.650532e+00 4.347645e+00 -1.542595e-05 -2.213914e-05 -3.851316e-05
N -3.226502e+00 3.652786e+00 -5.951895e+00 -3.129577e-05 -2.153536e-05 -7.931870e-05
N -3.216720e+00 3.609390e+00 -8.087047e-01 -2.575647e-05 2.643334e-05 -9.677040e-05
N 2.331236e-02 -1.859560e+00 4.428163e+00 -3.715666e-05 -4.310890e-06 -5.830791e-05
N 1.961183e-02 -1.862978e+00 -5.941802e+00 -2.454680e-05 3.284867e-06 -4.431517e-05
N -1.156330e-02 -1.885618e+00 -8.238136e-01 4.015209e-06 -1.211664e-05 -8.573040e-05
N 2.602186e-02 1.830916e+00 1.859104e+00 -4.644872e-05 2.875729e-05 3.384684e-05
N 2.567416e-02 1.833052e+00 7.026810e+00 -1.541493e-05 3.593759e-06 -1.079767e-04
N -6.278037e-02 1.782141e+00 -3.422264e+00 4.076734e-05 2.949681e-05 4.985112e-06
N 3.178637e+00 -3.732683e+00 1.873709e+00 -2.088397e-05 -1.650162e-05 7.852351e-05
N 3.223543e+00 -3.758683e+00 7.011010e+00 -3.635551e-05 4.237703e-05 -7.547780e-05
N 3.133941e+00 -3.761335e+00 -3.357359e+00 3.996886e-05 2.008532e-05 -5.118794e-05
N 1.621175e+00 -9.342428e-01 1.851362e+00 -1.625326e-05 -5.034838e-06 3.380021e-05
N 1.578239e+00 -9.075067e-01 6.942186e+00 1.082828e-05 -1.831009e-05 -2.265845e-05
N 1.532607e+00 -9.825027e-01 -3.412298e+00 2.734889e-05 5.181315e-06 -1.062229e-05
N 3.128250e+00 1.784906e+00 1.777212e+00 4.723490e-05 3.009242e-05 1.184983e-05
N 3.168280e+00 1.753559e+00 6.981369e+00 -3.913157e-05 4.521511e-05 -1.109840e-05
N 3.175958e+00 1.800546e+00 -3.381641e+00 -1.541700e-05 9.321456e-06 -4.131335e-05
N 6.334443e+00 -3.760643e+00 1.840455e+00 2.786510e-05 1.927558e-05 -6.261877e-05
N 6.326908e+00 -3.760384e+00 6.955998e+00 1.780059e-05 6.733284e-06 -2.720822e-05
N 6.372175e+00 -3.739482e+00 -3.426947e+00 -2.239379e-05 1.105549e-06 -7.059980e-07
N 4.731741e+00 -9.877209e-01 1.851927e+00 2.404571e-05 -3.307944e-06 -8.930174e-05
N 4.773130e+00 -9.168193e-01 7.014303e+00 -3.153266e-05 -3.790796e-05 -3.424895e-05
N 4.771291e+00 -9.541750e-01 -3.364663e+00 -1.419825e-05 -1.862754e-05 -6.189508e-05
N -3.218210e+00 1.857753e+00 1.765896e+00 1.629554e-05 -1.894956e-05 4.576094e-05
N -3.263720e+00 1.783545e+00 7.010907e+00 2.186361e-05 5.556287e-05 -1.991394e-05
N -3.184238e+00 1.828974e+00 -3.326736e+00 -7.064275e-05 -7.319952e-06 -3.673519e-05
N 1.625219e-02 -3.758784e+00 1.837122e+00 -3.164050e-05 1.933139e-05 4.313746e-05
N -2.253109e-02 -3.733042e+00 6.994834e+00 5.316654e-06 1.467767e-05 -5.316453e-05
N 2.024193e-02 -3.710004e+00 -3.318931e+00 -5.707230e-05 -3.012759e-05 -7.352560e-05
N -1.619176e+00 -9.619330e-01 1.812275e+00 -1.314933e-05 -1.723685e-05 -1.063974e-05
N -1.623564e+00 -9.609520e-01 7.013820e+00 1.148934e-05 -4.306040e-05 -4.925951e-05
N -1.577094e+00 -9.350561e-01 -3.320873e+00 -6.417084e-05 -1.766862e-05 -7.032851e-05
