108
Energy=-2.862766e+06 Lattice="9.706299e+00 0.000000e+00 0.000000e+00 -4.860052e+00 8.393563e+00 0.000000e+00 -6.944483e-02 -3.240965e-02 1.576261e+01" Stress="-2.733196e-04 1.048766e-04 -2.179007e-03 9.791934e-05 3.281737e-04 -8.399459e-04 -2.165074e-03 -8.209345e-04 1.531112e-03" Properties=species:S:1:pos:R:3:forces:R:3 Config_type=AlGaN_super3_53_0_7.xyz
Al 1.553053e+00 8.536019e-01 2.479199e+00 6.047057e-04 1.360627e-05 8.789438e-04
Ga 1.550770e+00 8.704634e-01 7.730035e+00 1.017922e-03 -7.181116e-04 8.564294e-04
Ga 1.622174e+00 9.156488e-01 -2.774091e+00 8.486807e-04 -8.884893e-04 1.022609e-03
Ga -5.888824e-02 3.645222e+00 2.487472e+00 -2.994911e-04 1.119804e-03 -1.105232e-03
Ga -6.410981e-02 3.664156e+00 7.730165e+00 4.518166e-04 -1.166762e-04 6.994050e-04
Ga 5.448118e-03 3.710957e+00 -2.769381e+00 2.876631e-04 -1.786517e-04 1.484803e-03
Ga 3.172948e+00 -1.937349e+00 2.485926e+00 3.279856e-04 -4.820588e-04 -4.937535e-04
Ga 3.177981e+00 -1.927073e+00 7.729950e+00 5.786043e-04 -5.007010e-04 8.373809e-04
Ga 3.248765e+00 -1.880931e+00 -2.776035e+00 2.920885e-04 -7.136925e-04 7.261666e-04
Ga -4.929937e+00 8.541027e-01 2.485623e+00 6.868644e-04 -5.936941e-04 -8.947069e-04
Ga -4.921896e+00 8.744679e-01 7.731609e+00 5.354450e-04 -8.164474e-04 6.454196e-05
Ga -4.851575e+00 9.213015e-01 -2.774671e+00 2.751877e-04 -9.940604e-04 -5.197085e-05
Ga -6.542136e+00 3.644231e+00 2.484741e+00 -1.435153e-04 3.380998e-04 -4.720116e-04
Ga -6.536464e+00 3.668415e+00 7.731500e+00 3.201116e-05 -1.786675e-04 3.769909e-04
Ga -6.465858e+00 3.715179e+00 -2.773321e+00 -2.202865e-04 -3.583298e-04 4.288758e-04
Ga -3.293863e+00 -1.941578e+00 2.487866e+00 5.823213e-05 -1.570780e-04 -7.565262e-04
Ga -3.292526e+00 -1.924456e+00 7.734091e+00 2.139000e-04 -5.629294e-04 5.983197e-04
Ga -3.222561e+00 -1.878748e+00 -2.779253e+00 -7.613650e-06 -8.492172e-04 2.531526e-04
Ga -1.675649e+00 8.630962e-01 2.473348e+00 1.380051e-03 -7.039166e-04 9.197943e-04
Ga -1.686555e+00 8.775385e-01 7.732072e+00 1.440263e-03 -9.559343e-04 -1.129742e-04
Ga -1.617976e+00 9.229707e-01 -2.777169e+00 1.241510e-03 -1.143239e-03 -5.704742e-04
Ga -3.306351e+00 3.654452e+00 2.488277e+00 8.631535e-04 1.876981e-04 -1.083619e-03
Ga -3.304492e+00 3.672739e+00 7.735089e+00 8.158024e-04 -3.316351e-04 9.147827e-05
Ga -3.233693e+00 3.719942e+00 -2.776949e+00 6.423854e-04 -4.213562e-04 -1.331149e-04
Ga -5.847348e-02 -1.931936e+00 2.484900e+00 1.194050e-03 -4.482744e-04 -9.007936e-04
Ga -5.969918e-02 -1.920770e+00 7.731034e+00 1.010182e-03 -6.990102e-04 3.114269e-04
Ga 1.170858e-02 -1.874597e+00 -2.775296e+00 7.912391e-04 -8.833237e-04 2.731570e-04
Ga -5.636989e-02 1.789204e+00 5.091576e+00 -9.082858e-04 1.766391e-04 1.257074e-03
Ga 8.265897e-03 1.838624e+00 -5.402071e+00 -1.137718e-03 6.815198e-04 6.306519e-04
Ga 3.691014e-03 1.840844e+00 -1.397740e-01 -3.563157e-04 2.052944e-03 1.756949e-03
Ga 3.180660e+00 -3.802081e+00 5.110406e+00 -1.035593e-03 2.078643e-04 -7.796845e-05
Ga 3.252220e+00 -3.755979e+00 -5.401532e+00 -9.711804e-04 2.419331e-04 1.609894e-04
Ga 3.250399e+00 -3.734803e+00 -1.451817e-01 -2.160856e-03 -2.694258e-03 1.889571e-03
Ga 1.564972e+00 -9.990152e-01 5.097900e+00 -1.608094e-03 1.485942e-03 1.193504e-05
Ga 1.635678e+00 -9.595244e-01 -5.401943e+00 -1.543219e-03 8.773128e-04 -8.317496e-05
Ga 1.638086e+00 -9.367264e-01 -1.340889e-01 -3.410870e-03 -1.664273e-03 8.322149e-04
Ga 3.163260e+00 1.791866e+00 5.094666e+00 -4.734042e-04 3.008053e-04 1.001200e-03
Ga 3.239018e+00 1.841253e+00 -5.404160e+00 -2.954876e-04 5.088448e-04 7.894071e-04
Ga 3.236509e+00 1.860337e+00 -1.357900e-01 -2.738005e-03 -2.459269e-03 1.472138e-03
Ga 6.412889e+00 -3.798728e+00 5.110311e+00 6.861451e-05 9.602131e-05 2.920418e-04
Ga 6.482782e+00 -3.754566e+00 -5.402252e+00 -1.534830e-04 8.437701e-05 4.810271e-04
Ga 6.484384e+00 -3.733120e+00 -1.437390e-01 -2.874447e-03 -2.893065e-03 1.124019e-03
Ga 4.797086e+00 -1.003227e+00 5.110378e+00 -6.695221e-04 7.129635e-04 7.459454e-05
Ga 4.866580e+00 -9.567642e-01 -5.402151e+00 -7.026663e-04 7.679573e-04 -5.075360e-06
Ga 4.869344e+00 -9.359942e-01 -1.479296e-01 -2.741220e-03 -2.158256e-03 1.439235e-03
Ga -3.301538e+00 1.798551e+00 5.104776e+00 -5.219631e-04 1.208337e-04 8.494699e-04
Ga -3.232376e+00 1.844654e+00 -5.405847e+00 -7.520447e-04 3.893245e-04 8.519943e-04
Ga -3.232153e+00 1.866321e+00 -1.541877e-01 -3.306845e-03 -1.953003e-03 2.845971e-03
Ga -5.928686e-02 -3.795941e+00 5.107356e+00 -6.085326e-04 5.222225e-05 6.506206e-04
Ga 1.089618e-02 -3.749445e+00 -5.403565e+00 -6.246607e-04 2.425422e-05 5.760476e-04
Ga 1.366930e-02 -3.728494e+00 -1.483750e-01 -2.933490e-03 -2.843175e-03 1.549923e-03
Ga -1.674842e+00 -9.981790e-01 5.107493e+00 -1.058761e-03 8.616882e-04 2.640041e-04
Ga -1.603550e+00 -9.534011e-01 -5.404210e+00 -1.134959e-03 6.514323e-04 3.301269e-04
Ga -1.605223e+00 -9.349159e-01 -1.521815e-01 -3.162746e-03 -2.907377e-03 2.087856e-03
N 1.551522e+00 8.631470e-01 4.411789e+00 9.532781e-04 -9.930141e-04 -1.996849e-03
N 1.620562e+00 9.090339e-01 -6.045383e+00 1.025180e-03 -7.300916e-04 -4.303383e-04
N 1.621640e+00 9.234482e-01 -7.871117e-01 4.403243e-04 -5.206382e-04 -1.144526e-03
N -6.426969e-02 3.661068e+00 4.470753e+00 4.736423e-04 1.904124e-05 -5.370055e-04
N 5.500537e-03 3.704881e+00 -6.044263e+00 4.082268e-04 -1.774390e-04 -6.334780e-04
N 3.808461e-03 3.717632e+00 -7.756150e-01 1.122675e-04 -9.752112e-04 -2.113906e-03
N 3.178015e+00 -1.935109e+00 4.468880e+00 8.828099e-04 -3.733511e-04 -1.599327e-05
N 3.248087e+00 -1.888882e+00 -6.045473e+00 6.192253e-04 -4.681686e-04 -3.051437e-04
N 3.247942e+00 -1.868599e+00 -7.897577e-01 -7.166488e-05 -9.716736e-04 9.575415e-04
N -4.921071e+00 8.643318e-01 4.468524e+00 9.844447e-04 -3.594927e-04 -3.051928e-04
N -4.851640e+00 9.118361e-01 -6.044789e+00 7.595386e-04 -5.641666e-04 -4.096925e-04
N -4.853380e+00 9.320299e-01 -7.891440e-01 2.214526e-04 -8.194530e-04 6.853846e-04
N -6.537266e+00 3.662630e+00 4.469315e+00 3.885119e-04 9.174220e-05 -5.415655e-04
N -6.466465e+00 3.708095e+00 -6.043738e+00 2.222404e-04 -6.102156e-05 -6.007970e-04
N -6.466304e+00 3.724994e+00 -7.853350e-01 1.476512e-05 -4.417587e-04 1.778653e-04
N -3.293826e+00 -1.932092e+00 4.470530e+00 5.622199e-04 -2.424426e-04 -2.821946e-04
N -3.223636e+00 -1.886555e+00 -6.042334e+00 4.381808e-04 -3.381010e-04 -3.337496e-04
N -3.223908e+00 -1.868769e+00 -7.954614e-01 -6.337981e-05 -7.354586e-04 7.207861e-04
N -1.687785e+00 8.692552e-01 4.461741e+00 1.492922e-03 -6.856952e-04 -4.304653e-04
N -1.617600e+00 9.157165e-01 -6.044836e+00 1.482692e-03 -8.170861e-04 -3.102141e-04
N -1.620265e+00 9.307337e-01 -7.932672e-01 7.703962e-04 -1.029348e-03 1.395297e-03
N -3.304737e+00 3.665765e+00 4.470464e+00 1.084843e-03 -1.435437e-04 -2.666215e-04
N -3.233907e+00 3.712430e+00 -6.042302e+00 9.491377e-04 -2.652068e-04 -3.408681e-04
N -3.233164e+00 3.731842e+00 -7.937460e-01 3.556006e-04 -6.945917e-04 7.540535e-04
N -6.207428e-02 -1.928848e+00 4.467672e+00 1.313977e-03 -5.790499e-04 -1.362571e-04
N 9.654935e-03 -1.882584e+00 -6.045490e+00 1.183960e-03 -5.613208e-04 -3.524097e-04
N 1.245067e-02 -1.862121e+00 -7.893742e-01 8.106213e-04 -1.003683e-03 8.546370e-04
N -1.348176e-02 1.770282e+00 1.857871e+00 -3.349613e-04 -1.490729e-03 -5.836099e-04
N -5.994248e-02 1.796039e+00 7.082933e+00 -1.113773e-03 7.110502e-04 -6.136035e-04
N 8.165774e-03 1.843723e+00 -3.414376e+00 -9.882158e-04 7.070387e-04 -7.678263e-04
N 3.177255e+00 -3.814238e+00 1.848888e+00 1.620012e-03 3.051939e-03 -2.214970e-03
N 3.179932e+00 -3.797260e+00 7.094428e+00 -7.101912e-04 4.611584e-04 -3.014284e-04
N 3.251677e+00 -3.751039e+00 -3.414775e+00 -6.156904e-04 5.471314e-04 -4.550570e-04
N 1.562086e+00 -9.676165e-01 1.863237e+00 8.316422e-04 3.487829e-03 -1.101425e-03
N 1.564743e+00 -9.967873e-01 7.085583e+00 -1.325286e-03 7.853684e-04 -5.196969e-04
N 1.635524e+00 -9.540395e-01 -3.417809e+00 -1.291339e-03 1.106166e-03 -2.787419e-04
N 3.127251e+00 1.757428e+00 1.861284e+00 2.104893e-03 3.095349e-03 -1.682808e-03
N 3.166863e+00 1.799889e+00 7.085265e+00 -1.459086e-04 4.050268e-04 -7.330427e-04
N 3.239491e+00 1.847782e+00 -3.416840e+00 -3.089614e-04 4.080218e-04 -5.213148e-04
N 6.409593e+00 -3.809836e+00 1.844511e+00 3.251076e-03 2.954577e-03 -1.370802e-03
N 6.412804e+00 -3.793378e+00 7.095264e+00 -8.361625e-05 2.328955e-04 -5.344245e-04
N 6.482573e+00 -3.749467e+00 -3.414063e+00 -1.832592e-04 2.895361e-04 -6.132064e-04
N 4.793674e+00 -1.017788e+00 1.841388e+00 2.197798e-03 3.767589e-03 -1.448595e-03
N 4.797396e+00 -9.966276e-01 7.094090e+00 -6.111886e-04 6.758504e-04 -2.482815e-04
N 4.866718e+00 -9.501119e-01 -3.416621e+00 -5.734524e-04 9.542664e-04 -2.638923e-04
N -3.306637e+00 1.784735e+00 1.840597e+00 2.751912e-03 2.906852e-03 -2.053156e-03
N -3.301595e+00 1.804251e+00 7.091644e+00 -5.653629e-04 4.507174e-04 -3.303526e-04
N -3.231966e+00 1.850444e+00 -3.418729e+00 -5.744127e-04 4.072710e-04 -1.477032e-05
N -6.356956e-02 -3.809872e+00 1.842439e+00 2.428299e-03 3.185827e-03 -1.162768e-03
N -5.916580e-02 -3.790858e+00 7.092888e+00 -3.120839e-04 2.749593e-04 -2.637642e-04
N 1.084415e-02 -3.744233e+00 -3.416277e+00 -4.637993e-04 3.380862e-04 -3.528911e-04
N -1.677938e+00 -1.014146e+00 1.838274e+00 2.019419e-03 4.349887e-03 -1.616845e-03
N -1.674497e+00 -9.933131e-01 7.092750e+00 -9.580762e-04 7.476805e-04 -3.324397e-04
N -1.602931e+00 -9.481374e-01 -3.418600e+00 -9.639700e-04 9.429618e-04 2.027517e-05
