108
Energy=-528215.292409 Lattice="9.409297 0.000000 0.000000 -4.707172 8.146671 0.000000 -0.006538 0.005042 15.082745" Stress="0.000002 -0.000000 -0.000002 -0.000000 0.000001 0.000001 -0.000002 0.000001 0.000002" Properties=species:S:1:pos:R:3:forces:R:3
Al 1.543513 0.866611 2.367627 0.000182 0.000035 -0.000161
Al 1.540396 0.868586 7.389291 0.000111 -0.000101 -0.000071
Al 1.548088 0.864952 -2.666251 0.000106 -0.000064 0.000033
Al -0.026728 3.581885 2.367784 -0.000007 -0.000027 -0.000141
Al -0.026177 3.582523 7.389625 0.000036 -0.000002 -0.000051
Al -0.020759 3.581821 -2.665985 0.000001 -0.000005 -0.000065
Al 3.112135 -1.850914 2.367271 0.000131 -0.000056 -0.000069
Al 3.113011 -1.846170 7.389443 0.000059 0.000002 -0.000048
Al 3.117531 -1.850600 -2.666015 0.000017 -0.000003 -0.000052
Al -4.732134 0.866869 2.367266 0.000212 0.000032 -0.000127
Al -4.731406 0.867233 7.389280 0.000141 -0.000083 -0.000099
Al -4.725442 0.866276 -2.666726 0.000120 -0.000021 -0.000098
Al -6.306832 3.576316 2.380843 0.000456 0.000158 0.000057
Al -6.299865 3.584960 7.388284 0.000003 0.000005 -0.000053
Al -6.299176 3.578847 -2.677073 0.000080 0.000049 -0.000130
Al -3.160554 -1.850010 2.366521 0.000126 0.000139 -0.000047
Al -3.167418 -1.849285 7.379158 0.000064 0.000041 -0.000083
Al -3.162160 -1.854262 -2.652124 0.000053 0.000023 -0.000168
Al -1.594532 0.866335 2.366143 0.000210 -0.000010 -0.000026
Al -1.595061 0.875119 7.379431 0.000225 -0.000097 -0.000089
Al -1.590518 0.873887 -2.652258 0.000249 -0.000075 -0.000113
Al -3.155060 3.577687 2.382090 0.000178 0.000066 -0.000249
Al -3.165181 3.584390 7.388570 0.000169 -0.000059 -0.000047
Al -3.152956 3.578845 -2.676555 0.000140 0.000021 0.000031
Al -0.024270 -1.840927 2.380127 0.000102 0.000086 0.000044
Al -0.020562 -1.849894 7.378061 0.000137 0.000040 -0.000034
Al -0.012398 -1.847960 -2.661520 0.000184 -0.000009 -0.000038
Al -0.025053 1.772951 4.874756 -0.000151 0.000067 -0.000051
Al -0.016443 1.776598 -5.177700 -0.000141 0.000074 -0.000082
Al -0.020184 1.773086 -0.149347 -0.000065 0.000033 0.000369
Al 3.114170 -3.658645 4.882763 -0.000090 0.000114 -0.000064
Al 3.119645 -3.661135 -5.184123 -0.000118 0.000098 -0.000082
Al 3.126342 -3.659326 -0.150473 -0.000417 -0.000024 0.000450
Al 1.546475 -0.941490 4.879039 -0.000172 0.000173 -0.000057
Al 1.559500 -0.945922 -5.181552 -0.000238 0.000136 -0.000056
Al 1.555401 -0.936165 -0.145366 -0.000337 0.000105 0.000037
Al 3.109070 1.770911 4.883591 0.000013 0.000080 -0.000071
Al 3.115565 1.768536 -5.184059 -0.000019 0.000033 -0.000068
Al 3.110927 1.766344 -0.151806 -0.000226 -0.000351 0.000617
Al 6.246444 -3.659594 4.879195 0.000049 0.000044 -0.000088
Al 6.248773 -3.667414 -5.181865 0.000022 0.000070 -0.000047
Al 6.245256 -3.660819 -0.147095 -0.000304 0.000000 0.000588
Al 4.678508 -0.942418 4.874576 -0.000058 0.000142 -0.000108
Al 4.677694 -0.946142 -5.177029 -0.000075 0.000135 -0.000081
Al 4.683811 -0.942700 -0.148367 -0.000358 0.000034 0.000204
Al -3.164574 1.771783 4.879090 -0.000011 0.000025 -0.000098
Al -3.161973 1.775876 -5.181847 -0.000004 0.000065 -0.000055
Al -3.155291 1.767248 -0.147297 -0.000209 0.000006 0.000601
Al -0.025065 -3.659768 4.874322 -0.000014 0.000060 0.000103
Al -0.014735 -3.667975 -5.179248 -0.000013 0.000117 -0.000107
Ga -0.019436 -3.661126 -0.142135 0.000148 0.000086 0.000405
Al -1.594742 -0.941595 4.880928 -0.000097 0.000168 -0.000119
Ga -1.588426 -0.945543 -5.176619 -0.000185 0.000173 -0.000034
Al -1.592114 -0.936182 -0.149703 -0.000163 0.000038 0.000235
N 1.543094 0.868259 4.282470 0.000115 -0.000192 0.000070
N 1.545966 0.864950 -5.775813 0.000128 -0.000153 0.000050
N 1.546801 0.867481 -0.747955 0.000046 -0.000246 0.000019
N -0.027560 3.583802 4.282290 0.000017 -0.000135 0.000093
N -0.020771 3.579114 -5.777365 -0.000007 -0.000112 0.000045
N -0.020988 3.582286 -0.748130 0.000005 -0.000117 0.000014
N 3.111591 -1.849563 4.282303 0.000063 -0.000141 0.000040
N 3.119066 -1.850802 -5.777298 0.000062 -0.000095 0.000062
N 3.116957 -1.848802 -0.746204 0.000026 -0.000079 -0.000017
N -4.733029 0.868765 4.282289 0.000121 -0.000142 0.000124
N -4.725337 0.863251 -5.775814 0.000108 -0.000115 0.000080
N -4.725956 0.868427 -0.747044 0.000032 -0.000208 0.000129
N -6.304159 3.579609 4.292121 0.000054 -0.000067 -0.000007
N -6.294038 3.581265 -5.774716 0.000002 -0.000069 0.000073
N -6.336675 3.559274 -0.766962 -0.000056 -0.000058 0.000177
N -3.161416 -1.848408 4.283427 0.000065 -0.000060 0.000088
N -3.198714 -1.874245 -5.795449 0.000051 -0.000085 0.000045
N -3.159182 -1.850944 -0.737034 -0.000008 -0.000108 0.000112
N -1.596076 0.868210 4.283117 0.000255 -0.000169 0.000110
N -1.588972 0.914674 -5.795316 0.000253 -0.000151 0.000066
N -1.590310 0.872194 -0.738939 0.000168 -0.000231 0.000257
N -3.159092 3.581736 4.292377 0.000103 -0.000107 0.000095
N -3.158007 3.580964 -5.776170 0.000125 -0.000108 0.000089
N -3.116619 3.559110 -0.766150 0.000102 -0.000119 -0.000082
N -0.025390 -1.843118 4.293154 0.000171 -0.000135 0.000029
N 0.022343 -1.874635 -5.794426 0.000237 -0.000117 0.000070
N -0.016110 -1.801940 -0.755259 0.000126 -0.000091 -0.000045
N -0.023891 1.771694 1.772005 -0.000240 -0.000012 -0.000293
N -0.023422 1.774535 6.788287 -0.000191 0.000053 0.000102
N -0.020569 1.770292 -3.258935 -0.000200 0.000035 0.000001
N 3.112603 -3.661089 1.770834 0.000212 0.000126 -0.000431
N 3.113291 -3.657764 6.798369 -0.000161 0.000044 0.000060
N 3.121149 -3.659179 -3.267195 -0.000147 0.000032 0.000085
N 1.545453 -0.944484 1.773749 -0.000080 0.000203 -0.000145
N 1.547549 -0.940606 6.791929 -0.000248 0.000091 0.000061
N 1.552485 -0.944700 -3.265388 -0.000254 0.000102 0.000055
N 3.110509 1.771378 1.770119 0.000130 0.000300 -0.000616
N 3.109724 1.772832 6.799030 -0.000083 0.000013 0.000056
N 3.116058 1.767956 -3.267612 -0.000123 -0.000010 0.000077
N 6.249018 -3.661415 1.774124 0.000349 0.000101 -0.000694
N 6.247684 -3.660098 6.791965 -0.000032 -0.000034 0.000047
N 6.251729 -3.658149 -3.265959 -0.000062 -0.000021 0.000101
N 4.679798 -0.944579 1.771872 0.000099 0.000178 -0.000238
N 4.677528 -0.940574 6.787899 -0.000147 0.000050 0.000107
N 4.686435 -0.945389 -3.258678 -0.000166 0.000048 0.000125
N -3.163444 1.772069 1.773779 0.000107 0.000070 -0.000551
N -3.166321 1.774173 6.791903 -0.000105 0.000075 0.000047
N -3.157149 1.767950 -3.265988 -0.000121 0.000019 0.000066
N -0.021936 -3.660142 1.836367 -0.000750 -0.000285 -0.000219
N -0.025207 -3.660386 6.789547 -0.000037 0.000021 0.000059
N -0.018592 -3.659720 -3.259493 -0.000092 0.000027 -0.000049
N -1.592123 -0.945176 1.771821 0.000018 0.000232 -0.000222
N -1.594126 -0.941576 6.797370 -0.000136 0.000073 0.000045
N -1.589871 -0.943967 -3.203701 -0.000158 0.000096 0.000136
