108
Energy=-1.260623e+06 Lattice="9.492982e+00 0.000000e+00 0.000000e+00 -4.750302e+00 8.214945e+00 0.000000e+00 -1.222203e-03 -7.944009e-04 1.530981e+01" Stress="-9.801366e-04 -3.329408e-04 3.684108e-05 -3.331811e-04 -1.838350e-03 1.179712e-04 4.071613e-05 1.118817e-04 -1.421061e-04" Properties=species:S:1:pos:R:3:forces:R:3 Config_type=AlGaN_super3_18_2_18.xyz
Al 1.570398e+00 8.789023e-01 2.404063e+00 5.793775e-04 7.045987e-04 -4.617249e-04
Al 1.553539e+00 8.799275e-01 7.503932e+00 3.523371e-05 1.062123e-04 2.974708e-04
Al 1.559554e+00 8.816357e-01 -2.703634e+00 -5.648976e-05 -3.476129e-04 -2.733197e-04
Al -2.580118e-02 3.618649e+00 2.415534e+00 -1.749688e-04 -6.558667e-04 -3.405372e-05
Al -2.803509e-02 3.605356e+00 7.483301e+00 -2.504211e-04 1.776893e-05 3.023660e-04
Al -1.451730e-02 3.600673e+00 -2.696133e+00 -5.332896e-04 -2.611435e-04 -3.623700e-04
Al 3.150634e+00 -1.873924e+00 2.403653e+00 -1.784469e-03 -1.721422e-05 -2.641300e-06
Al 3.148224e+00 -1.874853e+00 7.518692e+00 -2.676940e-04 1.429560e-04 1.086973e-04
Ga 3.144590e+00 -1.861674e+00 -2.713652e+00 -1.365290e-04 1.721749e-04 1.436258e-04
Al -4.779378e+00 8.816069e-01 2.403758e+00 -1.466097e-03 -1.090560e-03 2.030175e-03
Al -4.783177e+00 8.702946e-01 7.498927e+00 -5.808701e-05 -3.942894e-04 9.163277e-05
Al -4.783103e+00 8.775033e-01 -2.695021e+00 1.717835e-04 -2.175215e-06 -6.565094e-05
Ga -6.366170e+00 3.594868e+00 2.429177e+00 -2.883009e-04 -9.755625e-05 6.352963e-05
Al -6.349463e+00 3.610126e+00 7.472868e+00 -2.276422e-04 -4.245320e-05 4.858436e-04
Al -6.361509e+00 3.598288e+00 -2.693858e+00 3.770345e-05 5.687567e-05 1.070493e-04
Al -3.196756e+00 -1.878727e+00 2.432265e+00 -4.863684e-04 -3.404473e-04 -2.618861e-04
Al -3.188720e+00 -1.868196e+00 7.492040e+00 -3.563495e-04 1.144433e-04 2.460006e-04
Ga -3.198682e+00 -1.875080e+00 -2.705196e+00 -3.164244e-05 2.258322e-04 -1.329468e-05
Ga -1.608314e+00 8.916609e-01 2.420870e+00 5.861801e-04 -3.590752e-04 -1.195328e-04
Al -1.594836e+00 8.780244e-01 7.484384e+00 2.159503e-04 -4.446315e-05 -3.960661e-06
Ga -1.598437e+00 8.977359e-01 -2.687145e+00 3.730543e-04 -2.608046e-04 -5.038649e-05
Al -3.172537e+00 3.620929e+00 2.420764e+00 2.145788e-04 -1.623129e-03 -7.155632e-04
Al -3.188653e+00 3.627308e+00 7.503104e+00 8.616222e-05 -2.650967e-04 2.847695e-04
Ga -3.187210e+00 3.611652e+00 -2.707975e+00 2.248211e-04 -1.768636e-04 2.810325e-05
Ga -1.033931e-02 -1.858436e+00 2.440497e+00 1.098881e-04 -1.338348e-04 -5.478494e-05
Al -2.082637e-02 -1.872809e+00 7.495829e+00 -1.287316e-04 -1.919158e-04 1.860487e-04
Ga -6.916096e-03 -1.863990e+00 -2.713228e+00 4.339396e-05 1.174824e-04 -1.941108e-04
Al -1.106477e-02 1.797870e+00 4.961345e+00 -3.466548e-04 -1.492321e-04 -1.685936e-04
Al -1.887722e-02 1.791709e+00 -5.269628e+00 4.868028e-05 2.750502e-04 2.090194e-04
Al -6.710522e-03 1.800002e+00 -1.414741e-01 -2.874203e-04 8.421166e-07 4.606008e-04
Al 3.149674e+00 -3.699168e+00 4.961372e+00 -3.177001e-04 2.430568e-04 -4.034663e-05
Al 3.149934e+00 -3.688243e+00 -5.284613e+00 -6.407939e-05 4.704103e-05 4.062061e-04
Al 3.159058e+00 -3.703647e+00 -1.286134e-01 -6.313341e-04 -6.089003e-04 3.268158e-04
Ga 1.563263e+00 -9.466784e-01 4.978818e+00 -2.598890e-04 1.689827e-04 2.240679e-04
Al 1.567142e+00 -9.534078e-01 -5.295254e+00 -1.038285e-04 -5.133616e-05 2.967082e-04
Al 1.571974e+00 -9.369634e-01 -1.293211e-01 -3.398400e-04 3.634257e-04 3.009497e-04
Al 3.125066e+00 1.791694e+00 4.974454e+00 7.137104e-05 -2.436624e-04 -2.963037e-04
Ga 3.132427e+00 1.781527e+00 -5.255000e+00 1.013800e-04 -7.597649e-05 3.677556e-04
Al 3.127750e+00 1.779106e+00 -1.643320e-01 3.078104e-04 2.496641e-04 4.332479e-04
Al 6.304378e+00 -3.698708e+00 4.972989e+00 -2.813753e-04 1.121512e-04 3.595161e-05
Ga 6.299292e+00 -3.701338e+00 -5.276998e+00 -8.674812e-05 -2.063712e-04 4.648227e-05
Al 6.294774e+00 -3.712795e+00 -1.401012e-01 -4.638034e-04 1.924377e-04 2.329807e-04
Ga 4.723417e+00 -9.627100e-01 4.954442e+00 5.573396e-05 4.574275e-04 -2.399350e-04
Al 4.711930e+00 -9.547941e-01 -5.277576e+00 -5.158437e-05 8.760024e-05 -5.150678e-06
Ga 4.717284e+00 -9.458376e-01 -1.138012e-01 7.553309e-05 -1.768309e-04 7.382175e-05
Ga -3.196469e+00 1.802260e+00 4.975726e+00 1.132854e-04 -3.525324e-04 2.831965e-04
Ga -3.189074e+00 1.793108e+00 -5.287802e+00 1.599074e-04 -1.140768e-05 2.987593e-04
Al -3.197331e+00 1.797066e+00 -1.265039e-01 4.604778e-04 2.980594e-04 1.728536e-04
Al -2.152218e-02 -3.695724e+00 4.976441e+00 -1.710747e-04 3.786757e-05 -2.165235e-04
Al -1.436292e-02 -3.685616e+00 -5.281528e+00 9.231575e-05 -8.469796e-05 1.244427e-04
Ga -1.924297e-02 -3.702945e+00 -1.348235e-01 2.358134e-04 -1.004491e-04 7.101939e-04
Al -1.607765e+00 -9.621691e-01 4.985211e+00 -4.359215e-04 -1.430099e-04 9.001087e-05
Ga -1.593596e+00 -9.484804e-01 -5.289422e+00 5.047232e-06 1.280586e-05 1.868054e-04
Ga -1.602300e+00 -9.462122e-01 -1.298708e-01 -5.315721e-05 2.130271e-04 6.091143e-04
N 1.557243e+00 9.208556e-01 4.324715e+00 7.060895e-04 9.580316e-05 1.009997e-04
N 1.516439e+00 8.587847e-01 -5.894069e+00 3.862377e-05 3.510477e-05 -1.866854e-04
N 1.552146e+00 8.679745e-01 -7.712193e-01 1.066753e-04 2.343346e-05 3.257848e-05
N -2.352140e-02 3.612675e+00 4.347588e+00 -2.332660e-04 8.122449e-05 -1.714700e-04
N -6.463688e-02 3.584395e+00 -5.912400e+00 -2.604473e-04 -1.270829e-04 -1.476031e-04
N -2.556707e-02 3.609553e+00 -7.658003e-01 -3.411754e-04 1.183666e-04 -5.672786e-05
N 3.135900e+00 -1.917066e+00 4.312686e+00 1.546938e-05 -2.419145e-04 -3.147745e-04
N 3.147068e+00 -1.870222e+00 -5.871453e+00 -6.190465e-05 5.754715e-05 -2.580381e-04
N 3.104579e+00 -1.892551e+00 -7.234728e-01 -3.105647e-04 2.727112e-05 -2.926133e-05
N -4.818320e+00 9.028499e-01 4.320964e+00 -1.197554e-04 1.827444e-04 -9.833395e-04
N -4.781178e+00 8.294423e-01 -5.910799e+00 1.152015e-04 -1.918352e-04 -4.312187e-04
N -4.768179e+00 9.162615e-01 -7.722884e-01 -8.907888e-05 2.590435e-04 3.321214e-04
N -6.357646e+00 3.608704e+00 4.415405e+00 2.573589e-04 4.334664e-05 8.306353e-05
N -6.311564e+00 3.630679e+00 -5.923043e+00 1.709671e-04 8.078713e-05 -5.545858e-04
N -6.395899e+00 3.589733e+00 -7.705466e-01 9.670179e-05 -1.042967e-04 -8.901297e-05
N -3.144626e+00 -1.896866e+00 4.346787e+00 4.576495e-04 -7.956597e-05 3.545992e-04
N -3.227091e+00 -1.845795e+00 -5.909309e+00 -3.378984e-04 2.683305e-04 -3.475403e-04
N -3.192598e+00 -1.913073e+00 -7.374434e-01 5.889175e-05 -3.519553e-04 1.485928e-04
N -1.568965e+00 8.532202e-01 4.400450e+00 6.202166e-04 1.960815e-04 -2.437851e-05
N -1.558588e+00 9.046334e-01 -5.918087e+00 1.764442e-04 -2.019302e-04 -2.553735e-04
N -1.605695e+00 9.318653e-01 -7.052217e-01 5.211990e-04 -5.628071e-05 3.196591e-04
N -3.186039e+00 3.661884e+00 4.337310e+00 2.257089e-04 4.201605e-04 -9.918258e-06
N -3.186148e+00 3.668012e+00 -5.893261e+00 -4.755517e-05 1.692525e-06 -1.739649e-04
N -3.143417e+00 3.592590e+00 -7.308801e-01 5.835439e-04 2.124803e-04 4.436961e-04
N -6.074813e-02 -1.884868e+00 4.409860e+00 4.329005e-04 -3.663312e-04 -6.302089e-05
N 2.053005e-02 -1.891037e+00 -5.899977e+00 1.389797e-04 -9.677311e-05 -1.718255e-04
N 2.655744e-02 -1.840772e+00 -7.410190e-01 1.557737e-04 -4.350928e-05 2.783525e-04
N 2.302095e-02 1.813346e+00 1.782463e+00 2.302521e-04 6.447440e-04 -2.489690e-04
N -1.563195e-02 1.787131e+00 6.875354e+00 -1.051440e-04 1.643951e-04 -2.263447e-04
N 2.044962e-02 1.810396e+00 -3.340821e+00 7.329462e-05 4.480366e-04 4.463258e-06
N 3.152362e+00 -3.696285e+00 1.797774e+00 -4.741226e-04 -4.117561e-05 -1.966462e-04
N 3.144988e+00 -3.690168e+00 6.885519e+00 -1.565958e-04 1.009764e-04 -3.314371e-04
N 3.192610e+00 -3.717532e+00 -3.365040e+00 3.572469e-04 -1.717826e-04 4.271001e-06
N 1.601841e+00 -9.242068e-01 1.791864e+00 7.614140e-04 -4.390406e-04 -2.110906e-04
N 1.568823e+00 -9.518783e-01 6.955969e+00 1.301412e-04 1.127500e-04 1.554664e-04
N 1.566208e+00 -9.019376e-01 -3.376054e+00 -1.650802e-04 7.895691e-04 -4.987421e-05
N 3.140982e+00 1.741151e+00 1.758971e+00 -8.209464e-04 -5.719357e-04 -6.176681e-04
N 3.133664e+00 1.779241e+00 6.891185e+00 8.402472e-05 -1.143898e-04 -2.279993e-04
N 3.138192e+00 1.785026e+00 -3.265576e+00 4.100991e-05 -6.875233e-05 3.204034e-04
N 6.265644e+00 -3.675422e+00 1.783931e+00 2.780452e-04 8.930141e-04 1.649059e-04
N 6.301865e+00 -3.692354e+00 6.891971e+00 1.714043e-04 -3.197427e-05 -5.000463e-05
N 6.307912e+00 -3.744406e+00 -3.296565e+00 1.168368e-04 -1.062066e-04 3.481324e-05
N 4.728427e+00 -9.511286e-01 1.869463e+00 5.329215e-04 7.201443e-04 -4.226413e-04
N 4.719346e+00 -9.569408e-01 6.929969e+00 7.812873e-05 3.209803e-04 4.141844e-04
N 4.724229e+00 -9.012704e-01 -3.358918e+00 -2.780495e-04 -2.235659e-05 -1.097659e-04
N -3.235715e+00 1.813740e+00 1.797395e+00 1.112268e-03 1.265142e-03 -1.167929e-03
N -3.196295e+00 1.791459e+00 6.953842e+00 5.876028e-04 2.622697e-04 2.096627e-04
N -3.232303e+00 1.761395e+00 -3.315560e+00 6.284633e-05 -4.118471e-05 -5.035884e-05
N 1.342425e-02 -3.714505e+00 1.832801e+00 3.196554e-04 -1.839217e-05 -6.509026e-04
N -1.626742e-02 -3.693286e+00 6.888445e+00 1.788165e-04 -5.757758e-05 -8.223692e-05
N -6.677332e-02 -3.716949e+00 -3.357873e+00 -1.182893e-04 -2.647790e-04 -2.369087e-04
N -1.646409e+00 -9.752142e-01 1.836002e+00 -6.746365e-06 7.695886e-05 -1.019362e-03
N -1.605975e+00 -9.548501e-01 6.904937e+00 -1.965600e-04 -6.555211e-05 -1.536953e-04
N -1.604560e+00 -9.445033e-01 -3.322632e+00 -1.351162e-04 6.530077e-05 2.355770e-04
