108
Energy=-1260622.890304 Lattice="9.489331 0.000000 0.000000 -4.748587 8.213640 0.000000 0.001754 0.006057 15.308908" Stress="-0.000010 -0.000003 0.000001 -0.000003 -0.000014 0.000002 0.000001 0.000002 -0.000003" Properties=species:S:1:pos:R:3:forces:R:3
Al 1.563330 0.864482 2.388363 -0.002069 0.003084 0.000435
Al 1.557427 0.885817 7.499788 -0.000015 -0.000793 -0.000000
Al 1.559750 0.880972 -2.688756 0.000443 0.000321 0.000938
Al 0.000795 3.603900 2.429319 -0.005685 -0.001244 0.000610
Al -0.015902 3.611361 7.495666 -0.000399 0.000748 0.000074
Al -0.026198 3.601808 -2.715118 0.000016 0.000062 -0.000002
Al 3.152528 -1.850174 2.411802 -0.001443 -0.003245 0.000677
Al 3.154687 -1.860005 7.507316 -0.000124 -0.000421 -0.000220
Ga 3.157468 -1.868774 -2.707278 0.000032 0.000135 0.000306
Al -4.771095 0.873804 2.405806 -0.001459 -0.001266 0.000574
Al -4.774419 0.875091 7.515688 0.000351 0.000001 0.000581
Al -4.767227 0.875860 -2.719161 0.000100 0.000332 -0.000010
Al -6.367505 3.604072 2.382847 0.003390 0.000067 0.002174
Al -6.366869 3.606475 7.522185 -0.000094 0.000130 0.000181
Ga -6.361471 3.592620 -2.697714 -0.000193 0.000073 0.000453
Al -3.193949 -1.878599 2.444862 0.000013 0.001410 -0.000108
Ga -3.187112 -1.865078 7.512819 -0.000037 -0.000175 0.000198
Al -3.189004 -1.859101 -2.741793 -0.000134 0.000002 -0.000211
Ga -1.605620 0.886315 2.403003 0.000776 0.000094 0.000772
Al -1.604283 0.884164 7.508270 0.000336 -0.000172 0.000316
Al -1.618403 0.883894 -2.704413 0.000346 -0.000027 -0.000087
Ga -3.197225 3.607943 2.419872 0.000432 0.000345 0.000291
Ga -3.174006 3.611418 7.504036 0.000412 0.000024 -0.000121
Al -3.176972 3.592776 -2.709733 0.000008 -0.000215 0.000276
Al -0.014957 -1.869634 2.385310 0.000118 -0.000553 -0.000110
Al -0.019492 -1.847354 7.523349 -0.000041 0.000012 0.000304
Ga -0.026930 -1.850296 -2.689303 0.000000 -0.000317 0.000586
Al -0.026274 1.807800 4.974036 -0.000788 -0.000490 -0.000589
Ga -0.029569 1.790222 -5.256292 0.000054 0.000165 0.000768
Al -0.017964 1.780335 -0.166524 -0.000006 0.000383 -0.000491
Al 3.171024 -3.688598 4.946832 -0.000645 0.000043 0.001207
Al 3.160427 -3.695367 -5.256879 -0.000091 0.000161 0.000519
Ga 3.138115 -3.709630 -0.140454 -0.000050 0.000208 0.000997
Ga 1.574865 -0.951162 4.962915 -0.000464 -0.000083 0.000423
Ga 1.573995 -0.947308 -5.271063 -0.000338 0.000148 0.000532
Al 1.561474 -0.939659 -0.128988 -0.000426 0.000238 -0.000639
Ga 3.140997 1.792615 4.953966 0.000070 -0.000571 0.000156
Al 3.142622 1.778365 -5.266427 -0.000208 -0.000020 0.000379
Al 3.137187 1.772150 -0.137851 0.000557 0.000207 -0.001173
Al 6.295813 -3.696058 4.951898 -0.000701 0.000177 0.000443
Al 6.294300 -3.690790 -5.255769 0.000001 -0.000041 0.000229
Ga 6.302257 -3.698466 -0.131834 -0.000265 -0.000234 -0.000956
Al 4.725609 -0.948404 4.953064 -0.000566 -0.000032 0.000079
Al 4.731745 -0.945887 -5.258542 -0.000481 -0.000123 0.000460
Ga 4.726896 -0.934369 -0.134973 -0.000141 0.000292 -0.000386
Al -3.190612 1.782292 4.976521 0.001013 -0.001339 -0.000087
Al -3.195293 1.771806 -5.246619 0.000206 0.000240 0.000069
Al -3.203776 1.793141 -0.175923 0.000071 -0.000150 -0.000402
Ga -0.029873 -3.688864 4.969667 0.000091 0.000181 0.000257
Ga -0.029353 -3.696205 -5.261765 0.000187 -0.000054 0.000403
Al -0.013242 -3.700306 -0.143644 0.000063 -0.000290 -0.000028
Ga -1.607372 -0.940320 4.959648 0.000059 -0.000025 0.000107
Al -1.620749 -0.941029 -5.252434 0.000386 -0.000344 -0.000105
Ga -1.604761 -0.943912 -0.140291 -0.000201 0.000015 -0.000459
N 1.511528 0.900949 4.311219 0.000670 -0.000142 -0.000991
N 1.591024 0.901944 -5.910211 0.000575 0.000233 0.000126
N 1.561230 0.870164 -0.757598 0.000292 0.000009 0.000527
N -0.016117 3.606367 4.349507 -0.000533 -0.000453 0.000053
N -0.022484 3.653596 -5.894699 -0.000143 0.000100 -0.000558
N -0.021106 3.565532 -0.807433 -0.000020 0.000360 0.000225
N 3.185453 -1.881276 4.328587 -0.000125 -0.000088 -0.000108
N 3.192162 -1.893219 -5.880693 0.000131 -0.000142 -0.000330
N 3.106581 -1.844891 -0.737193 -0.000022 -0.000005 0.000211
N -4.727366 0.858370 4.325185 0.000298 -0.000055 -0.000496
N -4.768884 0.872285 -5.867745 0.000289 0.000149 -0.000176
N -4.778161 0.918615 -0.798088 0.000076 0.000001 0.000382
N -6.389755 3.636759 4.302668 0.000148 -0.000485 -0.002165
N -6.400816 3.585122 -5.872029 -0.000072 -0.000042 -0.000172
N -6.315633 3.581718 -0.717782 -0.000172 -0.000202 0.000314
N -3.223168 -1.887123 4.358004 -0.000243 -0.000079 -0.000617
N -3.185939 -1.869036 -5.814003 -0.000074 0.000252 -0.000133
N -3.187048 -1.868236 -0.829991 0.000007 0.000021 0.000488
N -1.604989 0.933730 4.378956 0.000101 0.000844 0.000054
N -1.651325 0.855916 -5.882505 -0.000066 -0.000007 0.000053
N -1.612877 0.922713 -0.781165 0.000300 -0.000405 0.000201
N -3.150711 3.585937 4.401545 0.000832 0.001395 -0.000553
N -3.141225 3.583695 -5.832555 -0.000074 -0.000399 0.000098
N -3.225934 3.591248 -0.787781 -0.000123 -0.000375 -0.000023
N -0.015448 -1.860670 4.289508 0.000228 -0.000582 -0.000688
N -0.065816 -1.835536 -5.883965 -0.000288 -0.000164 0.000221
N 0.019364 -1.882857 -0.712775 -0.000018 -0.000445 0.000157
N 0.016366 1.812551 1.756316 0.001494 -0.000843 0.000490
N -0.024749 1.790647 6.900770 0.000063 0.000143 -0.000529
N -0.022770 1.777418 -3.269561 -0.000089 0.000136 0.000048
N 3.187811 -3.676325 1.842948 0.000929 0.000807 -0.000246
N 3.191824 -3.659343 6.869691 0.000430 -0.000160 -0.001239
N 3.146592 -3.740724 -3.336355 -0.000172 0.000181 0.000103
N 1.567274 -0.953753 1.796538 0.000198 0.000047 -0.000152
N 1.566755 -0.952492 6.950224 -0.000194 0.000889 -0.000132
N 1.565548 -0.903954 -3.305343 -0.000480 0.000157 -0.000111
N 3.140018 1.772656 1.788408 0.000115 0.000564 0.001417
N 3.143336 1.791460 6.938217 0.000102 -0.000203 -0.000640
N 3.133387 1.733875 -3.344631 0.000049 -0.000300 -0.000130
N 6.291423 -3.690879 1.853548 0.002952 0.002257 -0.002294
N 6.309741 -3.734670 6.871293 0.000036 -0.000075 -0.000595
N 6.264373 -3.675153 -3.339291 -0.000079 0.000020 0.000056
N 4.731508 -0.952034 1.852418 0.001163 0.000825 -0.001272
N 4.685923 -0.920189 6.875805 -0.000163 0.000098 -0.000551
N 4.760986 -0.922622 -3.344258 -0.000300 -0.000209 0.000065
N -3.236361 1.762296 1.740009 0.001286 0.000722 -0.000645
N -3.194548 1.738351 6.886572 0.000100 -0.000343 -0.000286
N -3.191899 1.782673 -3.321534 0.000281 -0.000180 0.000073
N -0.059343 -3.675800 1.774550 -0.000938 -0.000098 0.000067
N -0.066799 -3.660801 6.948431 -0.000069 -0.000183 -0.000186
N 0.014578 -3.711527 -3.295651 0.000240 0.000020 0.000118
N -1.613644 -0.997306 1.838294 -0.001058 -0.000561 0.000191
N -1.561710 -0.923534 6.930398 -0.000275 -0.000052 -0.000532
N -1.639058 -0.920148 -3.333064 -0.000068 -0.000029 0.000223
