108
Energy=-1.581051e+06 Lattice="9.534024e+00 0.000000e+00 0.000000e+00 -4.768895e+00 8.253109e+00 0.000000e+00 -4.894829e-04 1.148713e-02 1.540104e+01" Stress="1.005287e-04 -1.623361e-04 -1.315388e-05 -1.662757e-04 -4.580727e-04 5.114200e-04 -3.518819e-06 4.924653e-04 -5.633380e-04" Properties=species:S:1:pos:R:3:forces:R:3 Config_type=AlGaN_super3_25_1_55.xyz
Al 1.557063e+00 8.879713e-01 2.404740e+00 3.262188e-04 -2.685033e-04 -4.439428e-04
Al 1.562909e+00 8.998834e-01 7.561381e+00 -4.624571e-06 2.229563e-05 -5.427702e-06
Al 1.556701e+00 8.769264e-01 -2.710557e+00 1.210407e-05 -2.621870e-05 -1.969840e-05
Al -2.999070e-02 3.615997e+00 2.419963e+00 6.056299e-04 1.523441e-04 1.745178e-04
Al -2.792092e-02 3.618439e+00 7.551980e+00 2.298022e-05 6.132599e-05 -5.508565e-04
Ga -4.415839e-02 3.612907e+00 -2.715601e+00 -8.498359e-06 3.354644e-05 3.055670e-05
Al 3.164627e+00 -1.872634e+00 2.422267e+00 -7.491946e-05 4.489166e-05 1.387287e-05
Ga 3.154879e+00 -1.873627e+00 7.563237e+00 -6.599132e-05 -2.962743e-05 4.446048e-05
Al 3.148865e+00 -1.888267e+00 -2.727597e+00 -5.932842e-05 1.653173e-05 3.708316e-05
Al -4.786117e+00 8.776587e-01 2.408470e+00 2.803868e-04 4.970622e-05 -3.361048e-05
Al -4.787472e+00 9.030505e-01 7.564184e+00 -1.078972e-05 -5.597411e-05 -1.315682e-05
Ga -4.791448e+00 8.787424e-01 -2.717085e+00 7.919690e-05 7.172297e-06 1.887340e-05
Ga -6.374044e+00 3.626830e+00 2.422493e+00 -7.370157e-05 3.687657e-05 6.991667e-05
Ga -6.381449e+00 3.622594e+00 7.539760e+00 -6.528278e-05 7.999796e-05 -4.363668e-05
Ga -6.371133e+00 3.616981e+00 -2.699784e+00 6.015722e-07 -3.228042e-05 8.695145e-05
Al -3.215069e+00 -1.868914e+00 2.430870e+00 -5.412703e-05 -5.942372e-05 -2.744136e-05
Ga -3.204165e+00 -1.870088e+00 7.555915e+00 1.036502e-05 -1.558352e-05 4.402863e-05
Al -3.190890e+00 -1.863179e+00 -2.718776e+00 -2.092154e-05 -1.871474e-05 2.193190e-05
Al -1.611403e+00 9.004448e-01 2.427187e+00 4.224798e-04 2.394226e-05 7.003094e-04
Ga -1.615097e+00 9.092769e-01 7.560407e+00 2.159504e-04 -1.422288e-04 -3.427576e-05
Al -1.602616e+00 8.741171e-01 -2.740040e+00 1.664927e-04 -3.713725e-05 1.058561e-04
Al -3.200712e+00 3.621824e+00 2.428731e+00 1.610904e-04 3.029999e-06 3.213108e-04
Al -3.197979e+00 3.617333e+00 7.549096e+00 4.336959e-04 3.275950e-04 -1.822690e-04
Al -3.191229e+00 3.631017e+00 -2.723393e+00 1.508183e-06 -1.017293e-05 1.408146e-04
Ga -1.235893e-02 -1.877887e+00 2.411849e+00 4.755298e-05 2.764173e-05 3.212992e-05
Ga -1.734003e-02 -1.866539e+00 7.562292e+00 1.624588e-05 -6.621926e-05 4.423668e-05
Al -2.517765e-02 -1.868733e+00 -2.709353e+00 -6.940513e-06 4.260480e-06 7.234539e-05
Al -2.182840e-02 1.808048e+00 4.976948e+00 -8.249763e-05 4.776312e-04 -4.992313e-05
Al -2.585351e-02 1.787836e+00 -5.283882e+00 1.907800e-04 1.583428e-04 1.194690e-05
Al -1.814538e-02 1.784828e+00 -1.420861e-01 1.663309e-04 3.463653e-05 -6.214282e-05
Ga 3.156027e+00 -3.729926e+00 4.970545e+00 -1.927256e-05 -4.842516e-05 5.697957e-05
Al 3.151795e+00 -3.738276e+00 -5.287430e+00 -9.782971e-06 4.312397e-05 3.957167e-05
Ga 3.143521e+00 -3.717541e+00 -1.239568e-01 -6.082827e-05 1.012099e-04 -1.763514e-05
Ga 1.561921e+00 -9.407142e-01 4.980697e+00 -6.304009e-05 -9.579001e-05 4.919817e-05
Ga 1.561021e+00 -9.400274e-01 -5.250438e+00 -8.452299e-05 9.044780e-05 5.469614e-05
Ga 1.569134e+00 -9.455087e-01 -1.645991e-01 -1.167850e-04 1.495616e-04 -2.661706e-05
Ga 3.153710e+00 1.797889e+00 4.980549e+00 -2.433842e-05 4.072731e-05 2.136583e-05
Al 3.148791e+00 1.782368e+00 -5.294558e+00 -4.697867e-05 3.316291e-05 -5.511933e-06
Al 3.142801e+00 1.794245e+00 -1.281584e-01 -2.770577e-05 1.602350e-05 9.851053e-05
Al 6.325591e+00 -3.712687e+00 4.972296e+00 -1.224665e-04 -5.350956e-05 7.339592e-06
Ga 6.323749e+00 -3.722492e+00 -5.271625e+00 3.004425e-05 -2.912521e-05 1.101079e-04
Ga 6.338884e+00 -3.715936e+00 -1.381266e-01 3.159316e-05 4.187561e-05 2.173345e-06
Ga 4.752714e+00 -9.423799e-01 4.977023e+00 -4.598908e-05 -1.179810e-04 5.774027e-05
Ga 4.751530e+00 -9.473346e-01 -5.269686e+00 -2.853461e-05 -6.036572e-05 4.389459e-05
Ga 4.742114e+00 -9.585881e-01 -1.360632e-01 -1.134931e-04 5.230946e-05 -8.155568e-05
Al -3.205167e+00 1.809469e+00 4.971377e+00 4.562382e-04 2.056479e-04 -4.369552e-04
Al -3.193398e+00 1.798447e+00 -5.280358e+00 2.763700e-04 -8.955672e-05 5.750666e-04
Ga -3.193582e+00 1.805761e+00 -1.418718e-01 -3.511795e-05 3.708693e-05 -3.669479e-05
Al -1.533635e-02 -3.717637e+00 4.993941e+00 8.258912e-05 -2.980618e-05 -5.504431e-05
Ga -5.919751e-03 -3.722927e+00 -5.269068e+00 -3.572132e-05 -3.219995e-06 7.794723e-05
Al -1.287039e-02 -3.718140e+00 -1.633635e-01 3.056381e-05 -5.703858e-06 -1.005944e-06
Ga -1.615353e+00 -9.442217e-01 4.959973e+00 6.841032e-06 2.140896e-05 -5.159905e-05
Al -1.610740e+00 -9.422735e-01 -5.248071e+00 -1.016877e-05 -3.503237e-05 4.257824e-05
Ga -1.606878e+00 -9.471458e-01 -1.472288e-01 -8.580986e-05 -2.209355e-05 2.040324e-05
N 1.520910e+00 9.102296e-01 4.316305e+00 -5.618069e-05 1.028956e-04 7.441131e-05
N 1.559818e+00 9.222365e-01 -5.921298e+00 3.877131e-05 1.675168e-05 4.717060e-05
N 1.565546e+00 9.351339e-01 -7.856157e-01 -4.358723e-05 5.963354e-05 8.172598e-07
N 1.803015e-02 3.602008e+00 4.338404e+00 -1.321851e-05 -3.374198e-04 -4.109164e-05
N -6.408250e-02 3.594547e+00 -5.920817e+00 -2.902232e-05 -7.541702e-05 2.713248e-04
N -3.120637e-02 3.577140e+00 -7.413269e-01 -2.889357e-05 -9.258185e-06 -2.570525e-05
N 3.155141e+00 -1.872565e+00 4.327811e+00 3.872965e-05 2.728230e-05 -7.827965e-05
N 3.152229e+00 -1.925250e+00 -5.864658e+00 -1.642936e-05 -2.856907e-05 -2.344953e-06
N 3.159815e+00 -1.885788e+00 -8.171839e-01 -3.798478e-05 -3.217061e-05 7.198138e-06
N -4.750056e+00 9.099944e-01 4.319939e+00 -1.834681e-04 -1.528681e-04 -2.900382e-05
N -4.783141e+00 9.276928e-01 -5.909270e+00 -1.010800e-04 -7.380150e-05 -1.038080e-04
N -4.831833e+00 9.049905e-01 -7.411329e-01 6.453477e-05 7.468225e-05 -5.944710e-06
N -6.376229e+00 3.679753e+00 4.407207e+00 -2.196616e-05 -8.372374e-05 2.279883e-05
N -6.377879e+00 3.581551e+00 -5.886004e+00 9.983773e-06 -1.555760e-05 -7.971727e-05
N -6.338230e+00 3.596610e+00 -7.186143e-01 -3.106675e-06 7.280649e-06 -7.335602e-05
N -3.203775e+00 -1.918872e+00 4.337241e+00 -2.504571e-05 9.111039e-06 -7.954235e-05
N -3.152934e+00 -1.854535e+00 -5.874901e+00 -2.988328e-05 -4.573986e-06 1.610171e-06
N -3.197142e+00 -1.871651e+00 -8.130278e-01 7.223213e-06 1.000203e-05 -1.349435e-06
N -1.609986e+00 9.432685e-01 4.352748e+00 -3.712749e-05 -1.110850e-04 -2.222740e-04
N -1.613628e+00 8.759526e-01 -5.845970e+00 -4.340601e-05 -5.215524e-05 -3.013404e-05
N -1.568351e+00 9.052836e-01 -8.147427e-01 -8.046800e-05 -3.007355e-05 -9.726930e-05
N -3.249764e+00 3.609145e+00 4.344743e+00 -1.210652e-05 -5.448164e-05 -1.540104e-04
N -3.161916e+00 3.594846e+00 -5.929561e+00 -5.100923e-05 4.921004e-05 -2.139722e-04
N -3.233515e+00 3.647839e+00 -8.113807e-01 -1.242145e-05 -4.268142e-05 -1.712610e-04
N -1.990738e-02 -1.924027e+00 4.381379e+00 -1.248759e-05 -1.058608e-04 -1.067293e-05
N -6.432328e-02 -1.851878e+00 -5.864555e+00 1.581994e-05 -6.947571e-05 -4.120222e-05
N -2.620273e-02 -1.918411e+00 -7.918449e-01 -2.487538e-05 -9.436886e-05 6.272229e-06
N -2.829183e-02 1.791137e+00 1.786017e+00 1.751820e-04 3.051439e-06 -1.474917e-05
N 1.834929e-02 1.822038e+00 6.907438e+00 -3.410652e-05 -4.468590e-05 -3.733427e-05
N -1.742507e-02 1.742274e+00 -3.366469e+00 1.491877e-05 1.426408e-05 -1.868971e-05
N 3.152511e+00 -3.710365e+00 1.865291e+00 -1.671179e-04 -3.181768e-05 -2.884669e-05
N 3.157603e+00 -3.755557e+00 6.956001e+00 -4.485741e-04 -1.235642e-04 2.044559e-04
N 3.114851e+00 -3.694849e+00 -3.366306e+00 8.932538e-06 -1.745206e-05 9.679237e-06
N 1.612341e+00 -9.297616e-01 1.819147e+00 -6.314688e-05 1.772844e-04 2.756449e-05
N 1.569195e+00 -8.966942e-01 6.955261e+00 -1.037121e-04 8.039616e-05 2.131435e-05
N 1.564388e+00 -9.524046e-01 -3.263093e+00 -7.996234e-06 9.722205e-05 -1.306345e-05
N 3.151582e+00 1.748218e+00 1.790785e+00 -1.107122e-04 -5.951442e-05 9.599451e-05
N 3.154126e+00 1.744400e+00 6.960273e+00 7.186563e-05 -2.868132e-05 4.235743e-05
N 3.109223e+00 1.763513e+00 -3.379557e+00 2.120436e-05 -1.646050e-05 -4.169740e-05
N 6.291845e+00 -3.681913e+00 1.838024e+00 -1.828065e-04 -1.516176e-04 1.520489e-05
N 6.284526e+00 -3.725973e+00 6.896600e+00 6.717195e-05 -1.464014e-06 9.675331e-05
N 6.331089e+00 -3.670189e+00 -3.301618e+00 3.038819e-06 6.071606e-06 -8.978378e-06
N 4.745073e+00 -9.572835e-01 1.849505e+00 3.132776e-05 3.313994e-05 -1.561599e-05
N 4.743481e+00 -8.957993e-01 6.955236e+00 -1.327500e-05 2.620233e-05 -2.406219e-05
N 4.744744e+00 -1.002976e+00 -3.296395e+00 -7.969382e-05 2.121193e-05 -1.792860e-05
N -3.194442e+00 1.798436e+00 1.843753e+00 -6.188872e-04 1.756922e-05 -1.853894e-04
N -3.244629e+00 1.822340e+00 6.902485e+00 -1.458324e-04 -5.154511e-05 3.766432e-04
N -3.160862e+00 1.818344e+00 -3.353474e+00 -1.903180e-04 8.627568e-05 -3.597137e-04
N 2.673898e-02 -3.734502e+00 1.750079e+00 -1.137025e-04 -1.228781e-05 -4.879865e-05
N 2.537658e-02 -3.725469e+00 6.909915e+00 5.240666e-05 -6.669747e-05 2.584976e-05
N 2.106369e-02 -3.688160e+00 -3.294903e+00 1.660435e-06 -1.073225e-05 -2.414040e-05
N -1.654358e+00 -9.243686e-01 1.841685e+00 -2.153250e-06 -6.679784e-06 -6.318513e-05
N -1.611947e+00 -9.401829e-01 6.923406e+00 -7.532049e-05 -1.142987e-05 -3.263979e-05
N -1.609679e+00 -9.570139e-01 -3.323469e+00 -1.731939e-05 4.697305e-05 -1.363324e-06
