108
Energy=-1352173.738431 Lattice="9.504763 0.000000 0.000000 -4.754356 8.231706 0.000000 0.007186 0.012725 15.334984" Stress="-0.000000 -0.000000 0.000001 -0.000000 0.000000 0.000003 0.000001 0.000003 -0.000001" Properties=species:S:1:pos:R:3:forces:R:3
Al 1.565859 0.872773 2.397574 -0.000095 0.000129 -0.000060
Al 1.579953 0.885394 7.488430 0.000083 -0.000049 0.000056
Al 1.563149 0.879102 -2.672637 0.000051 0.000022 0.000029
Al -0.014094 3.618320 2.390702 -0.000079 0.000057 0.000028
Al -0.013641 3.630447 7.514200 -0.000009 0.000039 0.000057
Al -0.028516 3.614020 -2.687177 0.000042 -0.000043 0.000007
Al 3.146046 -1.853709 2.388561 -0.000006 0.000079 0.000052
Al 3.153383 -1.858678 7.514551 -0.000059 0.000112 0.000070
Ga 3.145821 -1.874283 -2.686917 -0.000044 0.000000 0.000090
Al -4.792587 0.866468 2.389681 0.000114 -0.000009 0.000129
Al -4.790174 0.877350 7.501170 0.000064 0.000054 -0.000024
Al -4.776144 0.879767 -2.672802 -0.000216 0.000244 -0.000038
Ga -6.378266 3.606613 2.405248 0.000010 0.000061 0.000140
Al -6.369153 3.610218 7.494775 0.000041 0.000003 0.000007
Al -6.373388 3.602678 -2.677789 0.000151 -0.000069 0.000093
Ga -3.216096 -1.875872 2.406612 0.000065 0.000009 0.000108
Al -3.203912 -1.871931 7.504800 0.000023 0.000017 -0.000077
Al -3.194699 -1.870150 -2.685310 0.000023 -0.000016 -0.000026
Ga -1.593480 0.894568 2.395504 0.000105 0.000034 -0.000012
Ga -1.598232 0.891411 7.524865 0.000037 0.000016 0.000028
Al -1.612953 0.878639 -2.688492 0.000119 0.000136 0.000110
Ga -3.178979 3.623451 2.385177 -0.000013 0.000012 0.000080
Al -3.181734 3.628489 7.531836 0.000007 -0.000010 0.000017
Al -3.178193 3.603760 -2.684474 -0.000090 0.000049 -0.000008
Al 0.003204 -1.854036 2.408886 0.000061 0.000047 0.000085
Ga -0.005462 -1.858577 7.541163 0.000042 0.000040 0.000024
Ga -0.024463 -1.858319 -2.714098 0.000058 0.000008 -0.000025
Al 0.011871 1.804215 4.956554 -0.000013 0.000185 -0.000098
Ga -0.016105 1.778476 -5.238868 -0.000034 0.000057 0.000003
Al -0.012358 1.800985 -0.166187 0.000003 -0.000004 0.000038
Ga 3.174801 -3.679469 4.964221 0.000030 -0.000052 -0.000017
Al 3.141577 -3.698862 -5.267534 -0.000007 -0.000020 0.000045
Al 3.163905 -3.699201 -0.142545 -0.000015 -0.000035 0.000022
Al 1.582280 -0.931587 4.943735 -0.000300 0.000057 -0.000016
Al 1.565923 -0.952899 -5.266314 -0.000050 -0.000008 0.000047
Al 1.575484 -0.939422 -0.123276 -0.000049 0.000094 0.000065
Al 3.134477 1.777426 4.956833 0.000009 0.000055 -0.000060
Ga 3.132100 1.772319 -5.250097 0.000048 -0.000099 0.000170
Al 3.139179 1.774330 -0.153187 -0.000006 -0.000054 0.000026
Al 6.303282 -3.705185 4.980351 0.000050 -0.000141 -0.000037
Ga 6.306880 -3.696817 -5.253684 0.000067 -0.000021 0.000051
Al 6.294171 -3.707797 -0.170912 -0.000027 0.000000 0.000051
Al 4.714137 -0.946939 4.965472 -0.000030 0.000183 -0.000050
Ga 4.724494 -0.965126 -5.260956 -0.000061 0.000010 0.000088
Al 4.720950 -0.947809 -0.150702 -0.000048 -0.000005 -0.000078
Ga -3.204222 1.785340 4.974900 -0.000057 -0.000048 0.000014
Ga -3.196044 1.786468 -5.237968 -0.000023 0.000029 0.000075
Al -3.195813 1.785109 -0.170556 0.000050 0.000079 -0.000017
Ga -0.026014 -3.688671 4.976428 0.000026 0.000048 0.000069
Ga -0.019302 -3.706008 -5.248101 0.000026 -0.000006 0.000011
Ga -0.019385 -3.706512 -0.158527 -0.000004 0.000145 0.000092
Ga -1.600512 -0.954337 4.955921 0.000002 -0.000006 0.000057
Al -1.616736 -0.960925 -5.240614 -0.000068 -0.000020 -0.000013
Ga -1.614061 -0.947218 -0.146007 0.000091 0.000103 0.000080
N 1.564839 0.880999 4.329397 -0.000031 0.000012 -0.000028
N 1.557012 0.824732 -5.929995 -0.000024 0.000013 -0.000035
N 1.562013 0.867416 -0.754044 0.000031 -0.000017 -0.000043
N 0.023971 3.601099 4.315482 0.000028 -0.000132 0.000104
N -0.064456 3.631604 -5.904106 0.000016 0.000004 -0.000035
N -0.031400 3.620289 -0.772012 0.000032 0.000020 -0.000021
N 3.150985 -1.816118 4.314426 0.000187 -0.000060 -0.000132
N 3.101332 -1.896566 -5.892586 0.000022 0.000022 -0.000023
N 3.139668 -1.870015 -0.703774 0.000035 -0.000050 -0.000009
N -4.816834 0.853540 4.319495 0.000053 -0.000173 0.000048
N -4.783461 0.869425 -5.926745 0.000090 0.000007 -0.000070
N -4.780094 0.873839 -0.758391 0.000015 -0.000024 -0.000048
N -6.404506 3.597190 4.389204 -0.000084 -0.000003 0.000047
N -6.368915 3.606220 -5.927033 -0.000053 0.000098 -0.000110
N -6.405951 3.587808 -0.765698 -0.000039 0.000108 -0.000097
N -3.239868 -1.893761 4.386862 -0.000017 -0.000029 0.000015
N -3.155740 -1.852930 -5.913728 0.000012 0.000042 0.000034
N -3.235434 -1.890168 -0.771217 0.000037 -0.000063 0.000086
N -1.559498 0.914737 4.368710 0.000069 -0.000045 -0.000044
N -1.607170 0.826672 -5.839668 0.000091 -0.000026 -0.000039
N -1.603495 0.921381 -0.771500 -0.000083 -0.000019 -0.000176
N -3.181886 3.625203 4.345093 0.000015 -0.000053 -0.000048
N -3.153453 3.633743 -5.894834 0.000043 -0.000033 -0.000061
N -3.140261 3.599439 -0.768103 0.000028 -0.000026 -0.000016
N 0.030772 -1.839653 4.319022 0.000069 0.000010 -0.000067
N -0.025789 -1.825110 -5.812545 -0.000000 0.000036 0.000004
N 0.025161 -1.836711 -0.749182 0.000004 -0.000029 -0.000101
N 0.026592 1.818412 1.756864 0.000139 -0.000124 0.000021
N 0.028062 1.825055 6.879009 -0.000026 0.000024 -0.000025
N -0.017164 1.786691 -3.250016 -0.000057 -0.000011 -0.000023
N 3.197520 -3.670582 1.776216 0.000118 -0.000018 -0.000059
N 3.154797 -3.688539 6.949096 0.000011 -0.000062 -0.000006
N 3.147389 -3.746868 -3.339498 -0.000051 0.000036 -0.000061
N 1.564966 -0.945684 1.796220 -0.000050 -0.000037 -0.000029
N 1.609497 -0.925911 6.868377 0.000096 -0.000041 0.000086
N 1.571949 -0.898760 -3.356576 0.000021 0.000020 -0.000129
N 3.143135 1.741419 1.766666 -0.000119 0.000029 -0.000096
N 3.148954 1.790767 6.880426 -0.000049 -0.000042 -0.000020
N 3.141675 1.782974 -3.259892 0.000070 -0.000029 0.000015
N 6.274371 -3.719076 1.737765 0.000012 0.000030 -0.000096
N 6.311923 -3.694146 6.903159 -0.000030 -0.000005 -0.000013
N 6.311808 -3.700613 -3.261896 -0.000080 0.000027 -0.000009
N 4.690092 -0.926349 1.763119 -0.000033 -0.000040 0.000068
N 4.726957 -0.948752 6.897399 -0.000063 -0.000020 -0.000053
N 4.767208 -0.929642 -3.279134 0.000021 -0.000120 -0.000131
N -3.236545 1.763110 1.745002 -0.000081 -0.000049 -0.000005
N -3.232074 1.819762 6.945219 -0.000039 -0.000054 0.000019
N -3.198517 1.786251 -3.252098 -0.000019 -0.000056 0.000043
N -0.028012 -3.650203 1.809988 -0.000023 -0.000132 -0.000136
N -0.016409 -3.733984 6.952153 -0.000031 -0.000030 -0.000014
N -0.023865 -3.757777 -3.263769 -0.000020 -0.000062 0.000069
N -1.570551 -0.976801 1.823407 -0.000165 -0.000159 -0.000107
N -1.638940 -0.973320 6.919471 -0.000097 -0.000040 0.000004
N -1.659136 -0.931577 -3.319516 -0.000096 -0.000116 -0.000008
