108
Energy=-1.672602e+06 Lattice="9.534365e+00 0.000000e+00 0.000000e+00 -4.789061e+00 8.254016e+00 0.000000e+00 -4.143975e-03 3.916650e-03 1.543372e+01" Stress="-6.956297e-03 -1.083136e-03 -1.433369e-04 -1.071727e-03 -4.204576e-03 7.622810e-04 -1.354156e-04 7.578223e-04 1.696935e-03" Properties=species:S:1:pos:R:3:forces:R:3 Config_type=AlGaN_super3_27_0_5.xyz
Al 1.585467e+00 9.265717e-01 2.353007e+00 -6.863409e-03 -1.701119e-02 1.129691e-02
Al 1.560587e+00 8.874303e-01 7.577398e+00 9.070780e-04 2.856313e-03 5.120682e-03
Al 1.569201e+00 9.091106e-01 -2.705192e+00 -7.703911e-03 -1.030255e-02 -1.360611e-03
Al -1.443521e-02 3.608741e+00 2.428495e+00 -5.527920e-03 5.071033e-03 1.123978e-03
Al -1.910002e-02 3.597533e+00 7.574154e+00 -2.242721e-04 1.049674e-03 3.203920e-03
Al -4.391353e-02 3.599245e+00 -2.730587e+00 2.036592e-03 1.575010e-03 1.713760e-03
Al 3.158539e+00 -1.820089e+00 2.404209e+00 5.030582e-03 -1.596531e-02 3.454340e-03
Ga 3.175314e+00 -1.855472e+00 7.580449e+00 1.209208e-03 -3.837205e-03 3.158114e-03
Ga 3.169558e+00 -1.871433e+00 -2.737555e+00 -1.724952e-03 -1.067474e-03 5.062929e-03
Al -4.791620e+00 9.055468e-01 2.411950e+00 -3.796112e-03 -1.598504e-02 -4.404924e-03
Al -4.816309e+00 8.732815e-01 7.562791e+00 2.258552e-03 3.520190e-03 5.283872e-03
Ga -4.802615e+00 8.717873e-01 -2.718051e+00 1.699547e-03 1.880934e-04 4.897506e-03
Al -6.389519e+00 3.613520e+00 2.395750e+00 -6.038608e-04 5.721350e-03 4.864806e-03
Al -6.401239e+00 3.605377e+00 7.588084e+00 8.150449e-04 8.101028e-04 2.159615e-05
Ga -6.398549e+00 3.601198e+00 -2.715769e+00 7.582800e-04 2.909655e-03 2.279626e-03
Ga -3.229848e+00 -1.871002e+00 2.420416e+00 -1.278444e-03 -8.687380e-04 7.365266e-04
Ga -3.206700e+00 -1.867130e+00 7.575868e+00 -1.977976e-04 -2.945398e-03 7.730052e-04
Al -3.208421e+00 -1.865204e+00 -2.732619e+00 3.295470e-03 -3.149825e-03 1.784985e-03
Ga -1.619113e+00 9.103509e-01 2.412285e+00 3.454117e-03 -1.916294e-03 4.711531e-03
Ga -1.616831e+00 9.014916e-01 7.573722e+00 7.983870e-04 2.735787e-03 2.416551e-03
Al -1.612958e+00 9.052404e-01 -2.712197e+00 2.802016e-03 -2.367677e-03 1.087568e-03
Ga -3.228541e+00 3.622082e+00 2.407144e+00 8.179553e-03 5.237159e-03 3.496369e-03
Ga -3.223095e+00 3.620956e+00 7.567654e+00 1.055663e-03 -5.656008e-04 2.006768e-04
Al -3.206714e+00 3.619068e+00 -2.700203e+00 -5.295800e-04 2.801871e-04 3.835282e-03
Ga 2.481250e-03 -1.870260e+00 2.385106e+00 2.167262e-03 1.252138e-03 3.846855e-03
Ga -1.162395e-02 -1.853658e+00 7.595921e+00 1.143785e-03 -4.954866e-03 1.659088e-03
Ga -6.801983e-03 -1.858333e+00 -2.713808e+00 2.169351e-03 -1.743133e-04 8.373594e-04
Al -3.314942e-02 1.788229e+00 4.998113e+00 1.054270e-03 2.663091e-03 4.623955e-03
Al -1.167712e-02 1.771742e+00 -5.289809e+00 4.350566e-03 2.597174e-03 6.316727e-03
Al -2.756449e-02 1.788733e+00 -1.696105e-01 1.729435e-04 1.729691e-03 -1.520771e-03
Ga 3.185858e+00 -3.729411e+00 4.999125e+00 -1.159477e-03 3.348963e-03 -2.777937e-03
Ga 3.176251e+00 -3.727230e+00 -5.279028e+00 2.598104e-03 4.372454e-03 2.128447e-03
Ga 3.161316e+00 -3.726787e+00 -1.514678e-01 1.308904e-03 7.498017e-03 5.176535e-03
Ga 1.592272e+00 -9.453375e-01 4.995773e+00 4.608747e-05 -5.138981e-04 2.218100e-03
Al 1.590924e+00 -9.368353e-01 -5.296549e+00 3.799347e-04 3.086937e-03 4.672062e-03
Al 1.583134e+00 -9.483244e-01 -1.593679e-01 2.300040e-03 -8.415805e-04 -8.935430e-03
Ga 3.143466e+00 1.782668e+00 4.990237e+00 -1.725205e-03 1.619667e-03 4.817409e-03
Al 3.135750e+00 1.774851e+00 -5.310479e+00 1.522042e-04 -4.059545e-03 -2.996904e-03
Al 3.149101e+00 1.782685e+00 -1.157736e-01 2.912439e-04 -3.516959e-04 -9.292698e-03
Ga 6.333086e+00 -3.722931e+00 5.006170e+00 8.031911e-04 1.814514e-03 6.044245e-04
Ga 6.333070e+00 -3.727861e+00 -5.292518e+00 1.713759e-03 1.594143e-03 1.879040e-03
Ga 6.333074e+00 -3.713895e+00 -1.590384e-01 -9.850581e-05 7.841044e-04 3.326181e-03
Al 4.751081e+00 -9.334845e-01 4.987168e+00 -2.408316e-03 -2.365002e-03 4.940827e-03
Al 4.747801e+00 -9.469592e-01 -5.295603e+00 -1.275496e-03 -5.243356e-04 3.975236e-03
Al 4.742947e+00 -9.420356e-01 -1.650396e-01 -3.612498e-03 -4.195009e-03 -2.396087e-03
Al -3.217946e+00 1.785196e+00 4.996859e+00 -1.128682e-03 1.194712e-03 4.981043e-03
Ga -3.211030e+00 1.788157e+00 -5.281639e+00 -3.960653e-03 -2.580198e-03 3.280463e-03
Al -3.217642e+00 1.795115e+00 -1.561932e-01 -1.769480e-03 -2.616043e-04 -8.117196e-03
Ga -1.939576e-02 -3.713798e+00 5.000256e+00 -1.148056e-03 1.656604e-03 3.024749e-03
Ga -3.912328e-03 -3.714560e+00 -5.286067e+00 -5.025761e-03 2.195844e-03 2.761138e-03
Al -1.043506e-02 -3.719891e+00 -1.430432e-01 -2.526160e-04 2.873693e-03 -6.108390e-03
Ga -1.607841e+00 -9.263202e-01 5.007903e+00 -1.653010e-03 -3.203069e-03 -1.675875e-03
Ga -1.597538e+00 -9.330161e-01 -5.263509e+00 -2.506436e-03 -4.172924e-03 1.960495e-03
Ga -1.606974e+00 -9.345620e-01 -1.736301e-01 -1.896531e-03 -2.084483e-03 -3.475918e-04
N 1.506510e+00 8.951833e-01 4.360756e+00 4.810831e-03 2.679236e-03 -2.058868e-02
N 1.554665e+00 8.696790e-01 -5.912474e+00 8.971848e-04 2.336295e-03 -5.237958e-03
N 1.555740e+00 8.805136e-01 -7.528450e-01 4.150594e-03 1.958374e-03 -4.890783e-03
N -2.808722e-02 3.568184e+00 4.353033e+00 5.605838e-04 -1.850441e-03 -4.602689e-03
N -3.271950e-02 3.564906e+00 -5.932892e+00 -3.945720e-04 -1.984480e-03 -3.717028e-03
N -3.776500e-02 3.577855e+00 -8.152692e-01 7.607146e-04 -1.691858e-03 1.109710e-04
N 3.209951e+00 -1.854678e+00 4.363923e+00 -6.265822e-04 3.253680e-03 -9.645905e-03
N 3.170007e+00 -1.836086e+00 -5.865604e+00 6.846838e-05 -1.588925e-03 -6.084721e-04
N 3.160525e+00 -1.831454e+00 -7.500998e-01 8.879774e-04 -1.232573e-03 -4.529839e-03
N -4.768590e+00 8.603002e-01 4.361584e+00 3.583849e-03 7.269211e-04 -1.104256e-02
N -4.829393e+00 8.400680e-01 -5.930046e+00 -1.043842e-03 5.087481e-03 -1.756989e-03
N -4.809337e+00 8.710066e-01 -7.141064e-01 1.004114e-03 5.069367e-03 -3.997489e-03
N -6.390809e+00 3.624903e+00 4.330533e+00 -1.303562e-04 -1.093862e-03 -7.644791e-03
N -6.388074e+00 3.576349e+00 -5.930087e+00 7.600091e-04 7.705274e-06 -5.744159e-04
N -6.357439e+00 3.597583e+00 -7.256831e-01 1.179891e-03 -2.120889e-03 -1.327128e-03
N -3.240941e+00 -1.842965e+00 4.404715e+00 1.894135e-03 -1.453104e-03 -9.231209e-04
N -3.229487e+00 -1.848546e+00 -5.887326e+00 9.346076e-04 -1.260170e-03 -1.276878e-04
N -3.239294e+00 -1.847012e+00 -8.147922e-01 -5.749231e-05 -7.333285e-04 1.387283e-03
N -1.624058e+00 9.405707e-01 4.416482e+00 -5.088661e-04 8.682276e-04 -4.963879e-03
N -1.578230e+00 9.104550e-01 -5.880632e+00 3.694286e-04 5.701366e-04 -3.613029e-03
N -1.619390e+00 9.359331e-01 -7.847170e-01 -5.535618e-04 2.072985e-03 -1.674249e-03
N -3.221632e+00 3.586625e+00 4.400378e+00 1.054441e-03 -3.529101e-03 -3.459156e-03
N -3.209047e+00 3.627118e+00 -5.904350e+00 2.015122e-04 -2.340429e-03 -4.110287e-03
N -3.255645e+00 3.610641e+00 -7.688580e-01 -1.004119e-03 -3.272843e-03 -1.970586e-03
N -7.600004e-03 -1.860559e+00 4.374299e+00 -1.446088e-03 -2.596142e-03 -4.478843e-03
N 2.746897e-02 -1.838159e+00 -5.866496e+00 -1.401011e-04 -3.310169e-03 -1.167437e-03
N 2.613522e-02 -1.883308e+00 -7.329550e-01 -2.813281e-04 -4.893354e-03 5.538097e-04
N 1.546645e-03 1.820217e+00 1.751117e+00 4.333524e-03 2.443350e-04 1.980246e-03
N 1.231550e-02 1.805176e+00 6.937899e+00 1.594122e-03 1.190185e-03 -5.245147e-03
N -2.110545e-02 1.783846e+00 -3.339197e+00 2.578578e-04 1.022551e-03 -1.871418e-03
N 3.218996e+00 -3.670614e+00 1.866221e+00 -3.170569e-03 -5.667443e-03 -4.762036e-03
N 3.211085e+00 -3.738496e+00 6.980117e+00 1.697358e-03 2.436969e-03 -1.725099e-03
N 3.162082e+00 -3.767283e+00 -3.296399e+00 7.696900e-04 9.791883e-04 -4.128145e-04
N 1.636179e+00 -9.728229e-01 1.709438e+00 -8.942349e-03 2.178042e-02 2.301124e-02
N 1.582501e+00 -9.097826e-01 6.979587e+00 -1.100665e-03 1.478905e-03 -3.588992e-03
N 1.582603e+00 -8.971785e-01 -3.380231e+00 -1.292829e-03 2.163065e-03 3.104328e-03
N 3.163250e+00 1.809143e+00 1.786787e+00 7.238044e-04 -2.859317e-03 7.298077e-03
N 3.144380e+00 1.788068e+00 6.998223e+00 -2.299594e-04 5.432887e-04 -2.213339e-03
N 3.103652e+00 1.749345e+00 -3.396129e+00 3.880365e-03 5.823204e-03 2.540397e-03
N 6.343517e+00 -3.755503e+00 1.852959e+00 1.048769e-03 -8.314462e-05 -6.880731e-03
N 6.341833e+00 -3.758142e+00 6.997549e+00 1.088343e-03 3.728069e-04 -1.783240e-03
N 6.303386e+00 -3.698349e+00 -3.308388e+00 -1.062300e-03 1.757678e-03 1.254608e-03
N 4.687111e+00 -9.675114e-01 1.720188e+00 9.872835e-03 1.951357e-02 1.880393e-02
N 4.751046e+00 -9.028199e-01 6.920340e+00 -7.535482e-04 -5.585501e-04 -7.086670e-03
N 4.792329e+00 -9.726831e-01 -3.375028e+00 -2.322181e-04 -1.409274e-05 -4.577030e-03
N -3.241947e+00 1.772156e+00 1.739400e+00 -2.200458e-03 7.302151e-04 6.729046e-03
N -3.252916e+00 1.771099e+00 6.928976e+00 -2.994036e-03 -2.173166e-03 -4.940527e-03
N -3.176668e+00 1.816512e+00 -3.296572e+00 -1.628161e-04 1.051568e-04 -2.790766e-04
N -5.057599e-02 -3.725966e+00 1.757437e+00 -2.324040e-03 -3.000864e-03 2.464890e-03
N -5.661508e-02 -3.723007e+00 6.982228e+00 -4.049777e-03 6.574897e-04 -1.552550e-03
N 2.563129e-02 -3.735481e+00 -3.313951e+00 -5.880597e-04 -3.740669e-04 4.343468e-04
N -1.608882e+00 -9.443758e-01 1.805649e+00 -3.324517e-03 -7.420605e-05 -1.773137e-03
N -1.599601e+00 -9.415286e-01 6.975738e+00 -2.709250e-03 -2.281458e-03 -4.249547e-03
N -1.637410e+00 -9.238018e-01 -3.287847e+00 -3.941467e-03 6.370555e-04 2.300935e-03
