108
Energy=-1535275.679562 Lattice="9.529273 0.000000 0.000000 -4.765472 8.251350 0.000000 0.002810 -0.003635 15.386996" Stress="0.000001 -0.000001 0.000001 -0.000001 0.000000 -0.000002 0.000001 -0.000002 -0.000001" Properties=species:S:1:pos:R:3:forces:R:3
Al 1.552167 0.876162 2.460664 0.000023 0.000021 -0.000022
Al 1.570871 0.890457 7.531467 0.000001 -0.000102 -0.000002
Al 1.567878 0.893713 -2.745074 0.000010 0.000003 0.000025
Al -0.029374 3.610439 2.451118 -0.000007 0.000024 -0.000015
Al -0.016494 3.619027 7.550302 -0.000002 0.000008 0.000032
Ga -0.016587 3.620010 -2.754511 -0.000014 0.000023 0.000036
Ga 3.144870 -1.876766 2.415443 0.000002 0.000060 0.000129
Al 3.160780 -1.874573 7.554671 0.000241 -0.000058 -0.000063
Ga 3.158362 -1.874243 -2.715613 0.000078 -0.000064 0.000077
Ga -4.782876 0.884583 2.453626 0.000065 0.000022 0.000023
Al -4.793309 0.883065 7.541057 -0.000014 0.000003 0.000157
Ga -4.810335 0.879879 -2.742679 0.000031 -0.000017 0.000017
Ga -6.385073 3.618761 2.474192 -0.000001 0.000016 0.000045
Al -6.377496 3.615773 7.537967 0.000043 0.000011 0.000003
Al -6.382307 3.618917 -2.767059 -0.000010 0.000001 0.000025
Ga -3.206231 -1.881460 2.444907 0.000015 0.000066 0.000016
Al -3.206370 -1.883330 7.565133 0.000043 -0.000030 -0.000009
Ga -3.198227 -1.876505 -2.754549 -0.000046 -0.000036 0.000050
Al -1.602317 0.900006 2.465081 0.000020 0.000037 -0.000052
Al -1.605811 0.891679 7.537568 0.000072 -0.000063 0.000102
Ga -1.592471 0.877488 -2.745168 0.000079 -0.000061 0.000026
Al -3.184124 3.617261 2.451256 -0.000006 -0.000035 0.000046
Al -3.199411 3.621478 7.544672 0.000146 0.000052 -0.000104
Ga -3.201793 3.639871 -2.737557 0.000039 -0.000030 0.000076
Ga -0.003854 -1.864795 2.451538 0.000028 0.000006 0.000048
Ga -0.015232 -1.883109 7.546942 -0.000039 0.000019 0.000043
Ga -0.027803 -1.874453 -2.740336 0.000005 -0.000074 0.000048
Al -0.012303 1.794303 4.995195 -0.000026 0.000124 -0.000098
Al -0.012521 1.801368 -5.322749 0.000004 0.000014 0.000042
Ga -0.013338 1.792093 -0.118660 -0.000011 -0.000041 0.000063
Ga 3.152430 -3.721762 5.007800 -0.000002 0.000000 0.000031
Al 3.160972 -3.703559 -5.334326 0.000126 0.000091 0.000043
Al 3.155886 -3.700190 -0.119956 -0.000014 0.000010 0.000053
Al 1.569108 -0.942309 5.016779 -0.000000 0.000029 0.000095
Ga 1.573886 -0.944455 -5.300178 -0.000031 -0.000008 0.000041
Al 1.577157 -0.946286 -0.156488 -0.000057 -0.000011 0.000018
Al 3.142255 1.795622 5.019151 0.000139 -0.000201 -0.000009
Al 3.141041 1.807130 -5.315783 -0.000088 0.000021 -0.000047
Ga 3.139339 1.783594 -0.149476 0.000014 -0.000083 0.000073
Al 6.331742 -3.728177 5.030061 0.000175 0.000027 -0.000036
Al 6.334544 -3.709804 -5.323237 0.000005 -0.000009 0.000079
Ga 6.320182 -3.707645 -0.154793 0.000135 -0.000008 -0.000004
Ga 4.737297 -0.952439 5.034428 -0.000033 0.000025 0.000025
Al 4.741409 -0.960903 -5.331868 0.000026 -0.000025 0.000043
Al 4.730306 -0.962776 -0.144539 -0.000031 -0.000023 -0.000021
Al -3.197888 1.805798 5.015986 -0.000125 0.000098 -0.000048
Ga -3.201806 1.798425 -5.326127 0.000045 -0.000050 0.000030
Ga -3.196255 1.798174 -0.129439 0.000010 -0.000061 -0.000028
Al -0.019498 -3.726356 5.009893 -0.000005 0.000047 -0.000108
Al -0.036136 -3.715605 -5.307763 -0.000061 -0.000034 0.000072
Ga -0.016544 -3.706750 -0.142351 0.000029 -0.000074 -0.000012
Ga -1.606453 -0.949384 5.011891 -0.000010 0.000016 0.000018
Al -1.620509 -0.956394 -5.324013 0.000098 -0.000029 -0.000171
Ga -1.611868 -0.952054 -0.125020 -0.000031 -0.000090 -0.000016
N 1.566693 0.872751 4.391668 0.000001 -0.000052 -0.000013
N 1.565484 0.928822 -5.946103 0.000084 0.000031 0.000016
N 1.558695 0.838661 -0.823945 0.000033 0.000016 -0.000024
N 0.021393 3.604760 4.374849 -0.000139 -0.000134 -0.000006
N -0.020123 3.626326 -5.917393 0.000021 -0.000006 -0.000009
N -0.070978 3.646250 -0.767589 -0.000112 -0.000062 -0.000012
N 3.113547 -1.851816 4.393345 -0.000024 0.000024 -0.000032
N 3.188384 -1.892477 -5.930326 -0.000014 -0.000096 -0.000050
N 3.155017 -1.880227 -0.711663 -0.000011 -0.000015 -0.000054
N -4.787996 0.924152 4.437257 -0.000063 0.000007 0.000030
N -4.837667 0.862401 -5.931550 0.000087 -0.000039 -0.000137
N -4.789766 0.832302 -0.757470 0.000031 0.000025 -0.000037
N -6.379659 3.623753 4.457118 -0.000026 0.000415 -0.000041
N -6.376076 3.627764 -5.926880 -0.000007 -0.000014 -0.000014
N -6.376148 3.625965 -0.841706 -0.000001 0.000004 -0.000011
N -3.203636 -1.927944 4.415566 0.000003 -0.000048 -0.000030
N -3.200453 -1.877022 -5.908500 0.000008 -0.000001 -0.000041
N -3.238503 -1.847166 -0.767582 -0.000017 -0.000011 0.000004
N -1.612462 0.930963 4.384871 0.000226 -0.000018 0.000017
N -1.565912 0.862564 -5.937788 -0.000032 -0.000108 -0.000013
N -1.604590 0.880668 -0.775061 0.000059 -0.000022 -0.000018
N -3.236920 3.601943 4.370873 -0.000064 0.000006 0.000014
N -3.206026 3.681326 -5.933749 -0.000005 -0.000129 -0.000049
N -3.154268 3.656056 -0.758560 0.000023 -0.000017 -0.000025
N 0.026072 -1.899088 4.437014 -0.000037 -0.000084 -0.000033
N -0.057734 -1.898088 -5.871553 -0.000080 0.000081 0.000031
N 0.014362 -1.848960 -0.754203 -0.000000 -0.000037 -0.000026
N -0.017878 1.789586 1.877803 0.000007 0.000094 0.000056
N -0.019215 1.795768 6.920383 -0.000004 -0.000005 -0.000070
N 0.021621 1.771135 -3.407361 -0.000013 0.000036 -0.000015
N 3.157458 -3.762272 1.810585 -0.000069 0.000106 -0.000030
N 3.158556 -3.712578 6.988974 -0.000120 0.000077 0.000052
N 3.155209 -3.701928 -3.421839 -0.000025 0.000008 -0.000076
N 1.563941 -0.897721 1.765863 -0.000027 0.000090 -0.000063
N 1.612854 -0.930456 6.930140 -0.000138 0.000158 -0.000030
N 1.572844 -0.907287 -3.328524 -0.000177 0.000096 -0.000053
N 3.105442 1.769429 1.834332 -0.000019 0.000073 -0.000001
N 3.151721 1.792624 6.933797 -0.000017 -0.000048 0.000001
N 3.108275 1.818124 -3.386979 -0.000000 -0.000033 0.000018
N 6.289868 -3.740407 1.824123 0.000085 0.000126 -0.000037
N 6.328388 -3.710839 6.952144 0.000065 -0.000025 -0.000002
N 6.369619 -3.729873 -3.403459 0.000006 -0.000036 -0.000079
N 4.744841 -0.952035 1.764913 -0.000090 -0.000004 -0.000037
N 4.745647 -0.958309 7.005969 -0.000185 -0.000075 0.000031
N 4.736297 -0.956609 -3.418799 -0.000026 0.000019 -0.000025
N -3.155751 1.815172 1.854789 -0.000013 0.000061 -0.000049
N -3.196261 1.795594 6.943421 -0.000020 -0.000032 0.000024
N -3.201159 1.795133 -3.359256 0.000005 -0.000011 -0.000001
N 0.014755 -3.737162 1.841106 -0.000036 0.000085 0.000005
N -0.018824 -3.761857 6.919145 -0.000139 -0.000032 0.000078
N -0.064367 -3.732985 -3.390716 0.000006 -0.000044 -0.000039
N -1.609376 -0.904720 1.857746 -0.000024 0.000062 0.000015
N -1.653594 -0.932770 6.981025 -0.000011 -0.000010 -0.000029
N -1.612343 -0.953366 -3.416231 -0.000043 -0.000011 0.000027
