108
Energy=-573990.755520 Lattice="9.412651 0.000000 0.000000 -4.706272 8.152007 0.000000 0.005240 -0.003375 15.096543" Stress="-0.000000 0.000000 0.000001 0.000000 0.000000 -0.000001 0.000001 -0.000001 0.000001" Properties=species:S:1:pos:R:3:forces:R:3
Al 1.547848 0.866466 2.373180 0.000087 0.000015 0.000029
Al 1.549750 0.867778 7.392293 0.000059 0.000006 0.000027
Al 1.548362 0.874905 -2.667712 0.000047 0.000003 0.000064
Al -0.019643 3.583620 2.368750 0.000023 0.000025 0.000052
Al -0.020808 3.582368 7.396475 0.000017 -0.000009 0.000041
Al -0.023536 3.584747 -2.669793 0.000044 -0.000008 0.000050
Al 3.118292 -1.852196 2.373119 0.000008 0.000038 0.000076
Al 3.120054 -1.854585 7.392213 0.000035 -0.000015 0.000033
Al 3.122241 -1.848774 -2.667561 0.000046 0.000030 -0.000015
Al -4.727143 0.865283 2.368400 0.000053 0.000036 0.000024
Al -4.732495 0.862922 7.385402 0.000041 -0.000008 0.000034
Al -4.737805 0.863591 -2.656145 0.000086 0.000004 -0.000024
Al -6.298566 3.582363 2.373273 0.000016 0.000024 0.000036
Al -6.295849 3.580223 7.391962 0.000017 0.000000 0.000023
Al -6.302860 3.578722 -2.668058 0.000046 0.000016 0.000009
Al -3.167111 -1.857945 2.387720 0.000115 0.000048 -0.000091
Al -3.158297 -1.852522 7.391326 0.000017 -0.000004 -0.000001
Al -3.174595 -1.851789 -2.678654 0.000055 -0.000000 -0.000002
Al -1.590494 0.875778 2.386576 -0.000037 -0.000210 -0.000048
Al -1.584413 0.863914 7.381163 0.000078 -0.000017 0.000020
Al -1.590451 0.877235 -2.663791 0.000121 -0.000015 0.000182
Al -3.157267 3.581474 2.372757 0.000010 -0.000054 0.000003
Al -3.155696 3.587833 7.381883 0.000042 -0.000013 0.000013
Al -3.158761 3.586381 -2.653126 0.000074 -0.000025 0.000025
Al -0.012729 -1.855685 2.384102 -0.000010 0.000002 -0.000009
Al -0.020582 -1.852391 7.393452 0.000046 -0.000045 0.000002
Ga -0.019321 -1.851674 -2.672699 0.000090 -0.000080 0.000031
Al -0.017892 1.774342 4.883379 0.000055 0.000001 0.000050
Al -0.015418 1.774034 -5.188882 0.000046 0.000004 0.000053
Al -0.017305 1.781204 -0.143444 0.000226 0.000005 -0.000331
Al 3.119731 -3.663896 4.879322 0.000072 0.000018 0.000045
Al 3.116645 -3.653521 -5.185172 0.000019 0.000018 0.000027
Al 3.115271 -3.659762 -0.147068 0.000086 -0.000142 -0.000090
Al 1.550574 -0.946216 4.886231 0.000056 -0.000013 0.000042
Al 1.550675 -0.939928 -5.200986 0.000006 0.000016 0.000013
Al 1.561736 -0.939726 -0.134755 -0.000106 0.000044 0.000023
Al 3.116257 1.771488 4.878993 0.000071 -0.000037 0.000022
Al 3.103740 1.774482 -5.184059 0.000047 -0.000041 0.000038
Al 3.112312 1.774210 -0.146558 0.000049 -0.000108 -0.000031
Al 6.253155 -3.666158 4.888256 0.000067 -0.000042 0.000029
Al 6.250926 -3.661905 -5.191150 0.000066 -0.000028 0.000001
Al 6.247719 -3.667631 -0.149443 0.000060 -0.000090 0.000004
Al 4.684489 -0.946731 4.883591 0.000032 -0.000049 0.000029
Al 4.676313 -0.950254 -5.188644 0.000005 -0.000026 0.000011
Al 4.674559 -0.945643 -0.144781 0.000108 -0.000131 0.000021
Al -3.160438 1.772251 4.885348 0.000047 -0.000031 -0.000012
Ga -3.163914 1.775601 -5.182785 0.000061 -0.000029 -0.000037
Al -3.165009 1.780613 -0.148816 0.000121 -0.000024 0.000334
Al -0.021469 -3.664439 4.882791 0.000064 -0.000044 0.000012
Al -0.028908 -3.660253 -5.198522 0.000068 -0.000022 -0.000007
Al -0.021194 -3.675748 -0.129978 0.000144 0.000094 -0.000146
Al -1.589023 -0.947763 4.879052 0.000030 -0.000030 -0.000003
Al -1.593918 -0.947128 -5.196555 0.000010 -0.000025 0.000019
Ga -1.599444 -0.941320 -0.127140 0.000056 -0.000163 0.000151
N 1.548182 0.864850 4.287739 -0.000042 0.000035 -0.000039
N 1.544866 0.871667 -5.789296 0.000010 0.000022 -0.000034
N 1.544972 0.867459 -0.745244 0.000058 -0.000029 -0.000067
N -0.018449 3.582967 4.284103 -0.000086 0.000022 -0.000065
N -0.025843 3.585557 -5.781024 -0.000046 0.000013 -0.000031
N -0.023506 3.585105 -0.748490 0.000012 -0.000014 -0.000031
N 3.117760 -1.852299 4.287671 -0.000073 0.000034 -0.000063
N 3.115636 -1.852150 -5.789642 -0.000009 0.000007 -0.000016
N 3.114495 -1.849895 -0.747357 0.000019 -0.000012 0.000033
N -4.726802 0.864847 4.285746 -0.000053 0.000050 -0.000014
N -4.774789 0.844662 -5.801304 0.000031 0.000079 0.000005
N -4.733301 0.865289 -0.737377 0.000048 -0.000027 0.000008
N -6.297321 3.582876 4.287984 -0.000097 0.000063 -0.000030
N -6.301663 3.582526 -5.787934 -0.000066 0.000033 -0.000020
N -6.297924 3.585705 -0.745608 -0.000019 -0.000013 -0.000015
N -3.162313 -1.856684 4.298051 -0.000051 0.000073 -0.000013
N -3.164461 -1.850244 -5.786648 -0.000022 0.000039 -0.000021
N -3.202857 -1.873221 -0.766031 0.000046 -0.000004 0.000021
N -1.589492 0.870906 4.298891 -0.000007 -0.000007 -0.000005
N -1.552201 0.847746 -5.806231 -0.000030 0.000002 0.000013
N -1.587536 0.914946 -0.754626 -0.000361 -0.000198 -0.000296
N -3.157424 3.582249 4.289081 -0.000081 0.000015 -0.000019
N -3.158647 3.633493 -5.807582 -0.000048 -0.000071 0.000012
N -3.161496 3.589698 -0.737248 -0.000018 -0.000006 0.000009
N -0.015377 -1.853953 4.296107 -0.000049 -0.000002 0.000008
N -0.024420 -1.848914 -5.782771 -0.000024 -0.000015 0.000012
N 0.018556 -1.873886 -0.703394 -0.000056 -0.000134 0.000044
N -0.020505 1.771764 1.775179 -0.000095 0.000112 0.000296
N -0.016491 1.774403 6.795651 -0.000064 0.000017 -0.000021
N -0.021746 1.774346 -3.268885 -0.000044 0.000017 -0.000075
N 3.117333 -3.662991 1.773675 -0.000096 0.000148 0.000090
N 3.121901 -3.663452 6.792251 -0.000052 0.000041 -0.000033
N 3.112523 -3.660869 -3.262441 -0.000026 0.000008 -0.000018
N 1.551820 -0.944001 1.781821 -0.000007 -0.000046 -0.000024
N 1.550524 -0.946322 6.803051 -0.000096 0.000047 -0.000017
N 1.590391 -0.917478 -3.289584 -0.000101 0.000014 -0.000024
N 3.115469 1.772064 1.773664 -0.000089 0.000090 0.000040
N 3.115807 1.772275 6.791687 -0.000036 -0.000024 -0.000042
N 3.113747 1.773759 -3.263326 -0.000063 -0.000001 -0.000006
N 6.254420 -3.662690 1.771385 -0.000095 0.000092 -0.000026
N 6.254057 -3.665349 6.802956 -0.000011 -0.000008 -0.000017
N 6.251899 -3.663452 -3.270751 -0.000047 0.000004 -0.000028
N 4.686356 -0.947781 1.775139 -0.000127 0.000082 -0.000015
N 4.686279 -0.948125 6.795575 -0.000069 0.000014 -0.000029
N 4.679924 -0.941047 -3.270672 -0.000049 -0.000046 0.000005
N -3.158222 1.771395 1.774275 -0.000067 0.000099 -0.000276
N -3.159640 1.771125 6.800918 -0.000044 0.000005 -0.000015
N -3.165493 1.775005 -3.207797 -0.000045 -0.000000 0.000000
N -0.021811 -3.667039 1.785343 -0.000093 0.000073 0.000023
N -0.022865 -3.663374 6.796706 -0.000016 0.000020 -0.000012
N -0.023666 -3.712456 -3.288276 -0.000081 0.000050 -0.000025
N -1.592680 -0.945727 1.847942 -0.000167 0.000305 -0.000007
N -1.588835 -0.949414 6.795078 -0.000064 0.000029 -0.000006
N -1.634570 -0.918347 -3.282453 -0.000038 0.000030 0.000024
