108
Energy=-2038805.807794 Lattice="9.587311 0.000000 0.000000 -4.820399 8.289254 0.000000 -0.001048 0.002019 15.452635" Stress="-0.000040 -0.000006 0.000001 -0.000006 -0.000042 0.000000 0.000001 0.000000 -0.000070" Properties=species:S:1:pos:R:3:forces:R:3
Al 1.562746 0.895904 2.422066 -0.001071 -0.000341 0.004012
Al 1.557852 0.861761 7.578701 0.004123 0.003396 0.001384
Ga 1.542993 0.878619 -2.720401 0.003130 -0.001565 0.001628
Al -0.026410 3.645131 2.285753 -0.007783 -0.003238 0.029731
Ga -0.040240 3.624216 7.583233 0.000561 0.001043 -0.000875
Al -0.035710 3.628335 -2.715693 0.001346 -0.001134 0.006235
Ga 3.184618 -1.892963 2.380710 -0.000907 -0.000847 0.007733
Al 3.173722 -1.869829 7.581602 0.002323 -0.002414 0.000717
Ga 3.185778 -1.895884 -2.698925 -0.000516 0.001127 0.003484
Ga -4.844506 0.887230 2.424599 0.003522 -0.000481 0.003168
Al -4.838362 0.873384 7.567607 0.001599 0.003998 0.000002
Ga -4.828699 0.874224 -2.697982 0.001149 0.001911 0.000976
Ga -6.434507 3.631304 2.390147 0.002746 0.001954 0.007711
Ga -6.417389 3.640279 7.579240 -0.000218 -0.001543 0.000797
Ga -6.426896 3.657888 -2.706606 0.002248 -0.001149 0.001549
Ga -3.211430 -1.884177 2.392554 0.001327 0.000062 0.008498
Ga -3.201534 -1.858898 7.576050 0.000609 -0.001617 0.000341
Ga -3.207791 -1.886638 -2.698961 0.002221 0.000566 0.002273
Ga -1.626229 0.909891 2.421224 0.002277 -0.000501 0.001962
Al -1.620033 0.879399 7.576283 -0.001533 0.000189 0.000613
Ga -1.617463 0.897155 -2.711476 0.000815 -0.002407 0.000148
Al -3.232328 3.662054 2.389378 -0.000977 -0.001233 0.008030
Ga -3.243994 3.661210 7.590615 0.001859 -0.002342 -0.000482
Ga -3.235651 3.665658 -2.712324 -0.001395 -0.001937 0.001472
Ga -0.016595 -1.863646 2.412709 0.002386 -0.003180 0.004500
Al -0.009498 -1.859446 7.569969 -0.001255 -0.002579 0.001431
Al -0.009504 -1.881284 -2.726604 -0.000486 -0.002606 0.004691
Ga -0.019152 1.778665 5.005985 -0.001376 0.005825 0.000315
Al -0.031777 1.791909 -5.320188 0.000435 0.000456 0.005219
Al -0.024343 1.797431 -0.143885 0.000186 0.004357 -0.003026
Ga 3.190572 -3.727976 4.998959 0.000508 -0.002397 0.001552
Ga 3.193424 -3.739340 -5.291837 -0.000512 0.002064 0.001699
Al 3.188235 -3.740221 -0.141093 0.001374 0.001441 -0.013127
Ga 1.591068 -0.956543 5.019142 -0.001850 0.001023 -0.000737
Ga 1.578545 -0.978998 -5.314312 -0.000081 0.003214 0.002449
Ga 1.586091 -0.980033 -0.118953 -0.001419 0.003560 -0.014086
Al 3.156041 1.791714 5.006502 -0.001647 0.003191 0.003080
Ga 3.158901 1.799484 -5.313893 -0.000855 -0.000265 0.003230
Ga 3.151714 1.801794 -0.119753 0.000070 -0.000001 -0.015634
Ga 6.387233 -3.726845 5.001285 -0.002731 -0.000633 -0.000202
Ga 6.383578 -3.737358 -5.284127 -0.000180 0.000387 0.000907
Al 6.372815 -3.726497 -0.141207 -0.000063 -0.000485 -0.015493
Ga 4.780163 -0.953652 5.012966 0.000332 -0.001899 0.001359
Ga 4.780972 -0.961256 -5.311446 -0.001858 0.000834 0.003254
Al 4.783688 -0.971928 -0.123507 -0.001234 -0.000101 -0.011094
Ga -3.236237 1.800002 5.005880 -0.000158 0.003881 0.001253
Ga -3.227335 1.807002 -5.318256 -0.000968 -0.000975 0.003031
Ga -3.220586 1.813395 -0.119043 -0.002488 0.000224 -0.009947
Ga -0.016581 -3.709818 4.985314 -0.000090 -0.002156 0.002188
Al -0.010362 -3.706697 -5.304351 -0.001714 -0.000696 0.004149
Al -0.002966 -3.711977 -0.147476 -0.002248 -0.000959 -0.003050
Al -1.604607 -0.945224 5.012027 -0.003924 -0.002694 0.002709
Ga -1.586713 -0.959762 -5.304713 -0.003131 0.002276 0.003119
Ga -1.597845 -0.969704 -0.135544 -0.003187 0.001615 -0.018351
N 1.598134 0.898214 4.356830 0.004999 -0.000232 -0.006105
N 1.528101 0.894335 -5.948249 -0.000680 0.000076 -0.002807
N 1.525581 0.893672 -0.747239 -0.000601 -0.000409 -0.001991
N -0.036191 3.633523 4.387554 0.001131 0.000591 -0.030448
N -0.033851 3.595587 -5.903422 0.000765 -0.001788 0.000582
N -0.037352 3.629533 -0.750945 0.000511 0.001161 -0.002829
N 3.186093 -1.884403 4.371869 -0.000606 0.001018 -0.005071
N 3.184814 -1.889774 -5.954114 0.000299 -0.000981 -0.004503
N 3.215436 -1.905639 -0.709929 0.004156 -0.002775 -0.000791
N -4.869930 0.899403 4.396843 -0.000768 0.002234 -0.000788
N -4.832027 0.880845 -5.968441 0.001729 0.000434 -0.004940
N -4.827778 0.842086 -0.727549 0.001709 -0.002779 0.000179
N -6.430236 3.604653 4.387052 0.001377 -0.004484 -0.003836
N -6.391029 3.663474 -5.897592 0.003340 0.002236 -0.000227
N -6.423064 3.682992 -0.719786 0.000083 0.004353 0.000229
N -3.175994 -1.856614 4.394725 0.004396 0.002144 -0.003407
N -3.201879 -1.880362 -5.910110 0.001283 -0.001170 -0.000757
N -3.240636 -1.896482 -0.714454 -0.002544 -0.002889 -0.001932
N -1.635128 0.847399 4.395206 0.000854 -0.002849 -0.001855
N -1.596775 0.907971 -5.949238 0.002410 -0.001147 -0.003535
N -1.592634 0.913531 -0.738796 0.002144 -0.001336 -0.000409
N -3.235218 3.657551 4.335496 -0.000177 -0.002145 -0.009162
N -3.271803 3.675639 -5.893288 -0.001937 0.000604 0.000601
N -3.237017 3.690460 -0.728528 -0.000063 0.001992 -0.001796
N -0.052747 -1.843300 4.389170 -0.000652 0.000962 -0.000061
N -0.017203 -1.914243 -5.958746 0.000856 -0.005070 -0.005104
N -0.013019 -1.915928 -0.796342 0.001830 -0.004852 -0.003247
N 0.012109 1.813263 1.768915 0.000710 0.002434 0.003785
N -0.028215 1.746794 6.981539 0.000506 -0.001765 0.001540
N -0.028621 1.830471 -3.377505 -0.001213 0.006443 -0.006608
N 3.159253 -3.769090 1.738370 0.009507 -0.001920 0.011952
N 3.186747 -3.691171 6.979207 -0.000534 0.005544 -0.000257
N 3.228965 -3.750987 -3.313153 0.002506 -0.001119 -0.000819
N 1.589520 -0.905966 1.809460 -0.002764 -0.000127 0.011131
N 1.587720 -0.964185 7.008294 -0.000671 0.000395 0.000175
N 1.554092 -0.997468 -3.327596 -0.000783 0.001281 -0.001209
N 3.122308 1.770129 1.796821 -0.002238 0.001103 0.013950
N 3.157166 1.760640 6.948557 -0.001433 -0.003757 -0.003570
N 3.161199 1.795335 -3.334341 -0.000291 0.001496 -0.001438
N 6.357499 -3.743684 1.735474 -0.002864 0.001040 0.009189
N 6.383809 -3.723851 6.969058 -0.000467 0.000969 -0.000970
N 6.345929 -3.745768 -3.307557 -0.003692 -0.002065 -0.000263
N 4.784656 -0.957138 1.753892 -0.001178 -0.000105 0.005698
N 4.747620 -0.938786 6.990826 -0.004726 -0.000726 0.000102
N 4.781816 -0.964324 -3.333922 -0.001261 -0.000834 -0.003694
N -3.237750 1.851310 1.820002 -0.000203 0.000850 0.009226
N -3.227748 1.772636 6.989907 -0.000498 -0.004210 0.002253
N -3.228642 1.802551 -3.336558 -0.001158 0.001163 -0.001499
N 0.020278 -3.733384 1.766439 0.000573 0.000525 0.001514
N -0.009521 -3.675712 6.961216 -0.000985 0.004538 -0.000832
N -0.010403 -3.673718 -3.367327 -0.000875 0.001008 -0.005464
N -1.609840 -0.946522 1.767670 -0.001287 0.000303 0.017607
N -1.571632 -0.930346 6.950688 0.001405 0.000754 -0.004365
N -1.567228 -0.977357 -3.320425 -0.001219 -0.000337 0.000380
