108
Energy=-1077520.242863 Lattice="9.472948 0.000000 0.000000 -4.755838 8.200222 0.000000 0.002038 -0.001587 15.269709" Stress="-0.000018 0.000010 -0.000006 0.000010 -0.000003 0.000003 -0.000006 0.000003 0.000018" Properties=species:S:1:pos:R:3:forces:R:3
Al 1.550428 0.847896 2.366933 0.020016 -0.014135 0.022024
Al 1.553637 0.863489 7.492376 0.003240 0.002965 -0.001899
Al 1.540126 0.860907 -2.706215 0.001529 0.012480 0.005239
Al -0.038062 3.638737 2.377712 0.001258 -0.014817 0.008439
Al -0.031259 3.600783 7.489027 0.000728 0.001024 0.000974
Al -0.032425 3.583884 -2.696599 0.002301 0.000216 0.001767
Al 3.109942 -1.868989 2.376320 -0.003249 -0.002538 0.010645
Al 3.155559 -1.858140 7.474028 0.001483 -0.003483 -0.003295
Ga 3.141767 -1.865270 -2.681087 0.003448 -0.000281 0.002865
Al -4.817973 0.932912 2.397553 0.051304 -0.033436 0.016392
Al -4.773236 0.875070 7.476989 0.000802 -0.000306 0.000452
Al -4.763094 0.889883 -2.679689 0.001507 -0.001193 -0.015779
Ga -6.344595 3.564606 2.404215 -0.001167 0.007133 0.006991
Al -6.357324 3.589835 7.488707 -0.002653 -0.000196 0.001161
Al -6.341761 3.602351 -2.694484 0.000396 0.001261 -0.008056
Ga -3.182462 -1.878869 2.387215 0.000506 0.003474 0.006647
Al -3.180811 -1.851900 7.469598 0.002640 -0.002603 -0.003219
Al -3.161726 -1.853368 -2.687175 0.003156 -0.002297 0.002408
Ga -1.584101 0.883607 2.378068 -0.000959 -0.000983 0.002761
Al -1.624405 0.875195 7.499860 0.002386 -0.000549 0.000364
Al -1.618091 0.885419 -2.701193 0.002460 -0.000884 0.001501
Al -3.175077 3.607390 2.375998 0.005853 0.004241 0.010851
Ga -3.189200 3.602760 7.499174 0.003937 -0.000167 -0.000388
Al -3.190908 3.599628 -2.703052 -0.002131 0.000413 0.002379
Al -0.024320 -1.827486 2.390391 0.005612 -0.005623 0.008715
Ga -0.025994 -1.845120 7.494752 0.003349 0.001279 -0.000099
Al -0.007348 -1.840250 -2.711259 -0.010780 -0.008820 0.005421
Ga -0.032276 1.775001 4.956382 0.002703 0.001385 -0.001459
Al -0.037840 1.778508 -5.250980 -0.000293 0.001716 0.002828
Al -0.039498 1.769434 -0.122587 0.002634 0.001835 -0.008640
Al 3.157930 -3.681728 4.928939 -0.004582 0.002284 0.002695
Al 3.141964 -3.710486 -5.229671 0.002426 0.004552 -0.001224
Al 3.146390 -3.706790 -0.148701 -0.001182 0.002461 -0.000845
Al 1.574517 -0.949567 4.924559 -0.000402 0.000603 0.002842
Ga 1.561684 -0.959950 -5.236598 0.000194 0.002276 -0.000767
Al 1.552354 -0.953730 -0.147255 0.000774 0.000089 0.000303
Al 3.130872 1.767831 4.949176 -0.004828 -0.002141 0.004291
Al 3.132277 1.788760 -5.249760 -0.001127 -0.001301 0.004138
Ga 3.129212 1.781343 -0.142978 -0.003180 -0.002689 -0.007949
Al 6.289794 -3.672581 4.965713 -0.001630 -0.003402 0.002721
Ga 6.313777 -3.686771 -5.245458 -0.001475 0.000104 0.002223
Al 6.294129 -3.693164 -0.174025 -0.004151 0.002947 -0.001965
Al 4.719431 -0.949695 4.946637 -0.004237 0.001487 -0.002008
Ga 4.747363 -0.948146 -5.261946 -0.004046 0.001026 0.003942
Ga 4.744337 -0.935456 -0.097118 -0.005401 -0.004815 -0.015221
Al -3.186197 1.772679 4.936860 -0.007496 0.005627 0.005093
Al -3.191354 1.792531 -5.237526 -0.001631 -0.001122 0.003436
Al -3.204078 1.775994 -0.152990 0.012295 0.009329 -0.016211
Ga -0.024941 -3.681859 4.940993 0.002456 0.001107 -0.002119
Al -0.006230 -3.691538 -5.229827 -0.004090 -0.001233 0.003650
Ga -0.017516 -3.666959 -0.125187 0.003802 0.001307 -0.005349
Al -1.608595 -0.927518 4.947917 0.001438 -0.010560 0.005092
Al -1.605818 -0.920608 -5.225043 0.003144 -0.004044 0.000111
Al -1.581304 -0.938469 -0.180860 -0.003059 -0.000340 -0.001614
N 1.574664 0.851967 4.312997 0.005135 -0.002022 -0.003229
N 1.545334 0.907278 -5.860485 0.001870 0.001943 -0.000597
N 1.513377 0.848201 -0.768490 -0.000362 0.000424 -0.001059
N -0.033707 3.640451 4.324350 0.001430 0.003072 -0.007549
N -0.063895 3.587744 -5.858351 -0.002206 -0.002630 -0.001544
N -0.038694 3.593702 -0.759423 0.000063 -0.002702 0.001592
N 3.140414 -1.861321 4.328176 0.000701 -0.001530 -0.003529
N 3.149623 -1.906860 -5.891237 -0.000538 -0.004228 0.004976
N 3.119904 -1.880719 -0.706503 -0.003301 -0.001566 0.000963
N -4.771117 0.880542 4.337079 0.003678 0.000155 -0.003971
N -4.769360 0.914160 -5.867391 0.001744 0.003581 -0.002924
N -4.721308 0.901040 -0.814749 -0.004570 -0.001705 0.012168
N -6.404346 3.573940 4.381190 -0.000339 0.000616 -0.003240
N -6.311862 3.584007 -5.855982 0.003948 -0.001962 -0.002907
N -6.384049 3.629356 -0.802442 0.001334 -0.002132 0.009176
N -3.174365 -1.861909 4.380940 0.000586 -0.000165 0.000389
N -3.117279 -1.840012 -5.904142 -0.000464 0.001136 0.003515
N -3.141050 -1.874094 -0.760345 0.004073 -0.002642 -0.001872
N -1.664150 0.842956 4.362890 0.004378 0.005552 -0.007785
N -1.625451 0.884764 -5.839745 0.002768 -0.001436 -0.001238
N -1.625694 0.881301 -0.763020 0.004769 -0.000101 0.001519
N -3.160306 3.586731 4.318655 0.004738 -0.004483 -0.004137
N -3.189590 3.609481 -5.797754 -0.000473 -0.001080 0.002803
N -3.170529 3.592791 -0.770140 0.002688 -0.002278 -0.004084
N -0.026568 -1.807851 4.328231 -0.001145 0.003445 -0.004068
N -0.060706 -1.888247 -5.805065 -0.001897 0.003693 0.001502
N -0.013850 -1.814606 -0.777575 0.000010 0.000180 -0.003687
N 0.105665 1.755267 1.810062 -0.036286 0.028679 -0.015757
N -0.028942 1.771486 6.928828 -0.001633 0.000706 0.003735
N -0.027822 1.770317 -3.313155 -0.001405 0.002348 -0.001021
N 3.140173 -3.684957 1.785501 0.003776 -0.001509 -0.002895
N 3.181747 -3.671594 6.863143 0.001474 0.002135 -0.004864
N 3.150442 -3.729913 -3.310137 -0.000164 -0.000484 -0.002902
N 1.549152 -0.957547 1.785019 0.000235 -0.000486 -0.003693
N 1.621804 -0.930990 6.858651 -0.006574 0.000062 -0.000844
N 1.516979 -0.919412 -3.263846 0.008316 -0.004353 -0.004936
N 3.171228 1.680419 1.836291 -0.033569 0.026785 -0.017909
N 3.125512 1.777182 6.879784 -0.000468 0.000096 -0.001323
N 3.126407 1.781234 -3.308053 -0.000686 -0.001679 0.000246
N 6.273404 -3.727083 1.746833 0.002800 0.001595 -0.005639
N 6.298445 -3.687362 6.895080 0.000018 0.000614 -0.001407
N 6.304408 -3.681363 -3.263012 -0.001770 0.000014 0.003354
N 4.646988 -0.958426 1.829787 0.011934 0.019423 0.008451
N 4.719869 -0.944959 6.880379 0.000320 0.001021 -0.003010
N 4.772021 -0.928467 -3.277604 -0.004099 0.002123 0.000673
N -3.159058 1.857679 1.699608 -0.020920 -0.017685 0.023015
N -3.187954 1.750350 6.867986 -0.001171 -0.003745 -0.003395
N -3.190114 1.786284 -3.308926 -0.000258 0.000039 -0.000738
N 0.042819 -3.655033 1.863931 -0.010855 -0.000802 -0.007170
N -0.049788 -3.699827 6.904069 -0.002552 -0.001211 -0.001498
N -0.010327 -3.677227 -3.301168 0.000263 0.000452 0.001222
N -1.562367 -0.973285 1.734417 -0.003807 0.001760 -0.000802
N -1.624405 -0.921738 6.871751 -0.004529 0.002634 -0.004953
N -1.590624 -0.936587 -3.299858 -0.003032 -0.000326 -0.000377
