108
Energy=-1.764153e+06 Lattice="9.557049e+00 0.000000e+00 0.000000e+00 -4.781986e+00 8.274560e+00 0.000000e+00 -2.689204e-03 -2.029983e-03 1.545902e+01" Stress="4.030028e-04 -1.937061e-04 -1.082213e-05 -1.963955e-04 -3.323300e-05 -7.976897e-05 -1.268560e-05 -8.217111e-05 1.413471e-04" Properties=species:S:1:pos:R:3:forces:R:3 Config_type=AlGaN_super3_29_2_28.xyz
Al 1.576270e+00 8.799306e-01 2.434564e+00 -7.046570e-05 2.543870e-05 -4.351315e-05
Al 1.576988e+00 8.894699e-01 7.567543e+00 -4.558653e-05 -8.717594e-05 -1.365565e-04
Al 1.566808e+00 8.876884e-01 -2.727834e+00 4.494430e-05 2.826712e-05 -5.403487e-05
Al -2.486058e-02 3.632820e+00 2.449545e+00 -2.280856e-05 -1.835938e-05 -1.321964e-05
Al -6.706664e-03 3.634263e+00 7.576223e+00 -2.505988e-05 -1.488429e-05 -6.702322e-06
Al -2.129283e-02 3.623802e+00 -2.746105e+00 -6.099307e-06 1.618580e-05 -3.407902e-05
Al 3.143096e+00 -1.880262e+00 2.429758e+00 -2.341758e-05 2.994313e-05 -3.667594e-05
Al 3.157128e+00 -1.874138e+00 7.583508e+00 -2.621590e-05 3.600108e-06 -2.164341e-05
Ga 3.151642e+00 -1.885083e+00 -2.722819e+00 -5.663241e-05 2.479222e-05 -2.948052e-05
Ga -4.816045e+00 9.009419e-01 2.449875e+00 2.597823e-05 3.328316e-05 -2.138100e-05
Ga -4.826397e+00 8.879167e-01 7.569469e+00 3.901433e-05 -4.684670e-05 -4.465587e-06
Ga -4.823828e+00 8.869727e-01 -2.728231e+00 3.969071e-06 1.468364e-05 -3.053679e-05
Al -6.404933e+00 3.621949e+00 2.448973e+00 -5.182006e-05 -1.469589e-04 -8.925411e-05
Al -6.415080e+00 3.626062e+00 7.564665e+00 -1.371737e-04 3.911255e-05 2.497042e-04
Ga -6.403036e+00 3.626362e+00 -2.737166e+00 -8.578189e-06 -7.679126e-06 -4.943952e-05
Ga -3.211635e+00 -1.896880e+00 2.454796e+00 -1.838975e-05 1.800028e-05 -3.813119e-05
Ga -3.223595e+00 -1.908009e+00 7.585742e+00 -4.330182e-05 -1.364067e-05 2.419046e-05
Ga -3.211591e+00 -1.894146e+00 -2.743539e+00 -3.990151e-05 -8.471252e-08 -3.820556e-06
Al -1.609190e+00 9.004822e-01 2.443050e+00 4.752260e-05 1.567767e-05 -8.904611e-06
Ga -1.603741e+00 8.986663e-01 7.590286e+00 4.518697e-06 -2.666974e-05 2.664219e-05
Ga -1.590908e+00 8.948274e-01 -2.733655e+00 4.457955e-05 -4.637394e-05 2.367654e-06
Al -3.204832e+00 3.637663e+00 2.460453e+00 1.516685e-05 -9.341444e-06 1.604263e-05
Ga -3.214869e+00 3.644205e+00 7.553478e+00 5.368370e-05 -6.147585e-05 2.600264e-05
Al -3.203663e+00 3.649492e+00 -2.720707e+00 3.043817e-06 -1.880649e-05 -3.610078e-06
Ga 4.698323e-03 -1.875492e+00 2.450439e+00 -2.234847e-05 1.382028e-05 -1.430144e-06
Ga -3.435683e-03 -1.886203e+00 7.550208e+00 -3.043204e-05 3.293372e-05 1.108529e-05
Al -5.319149e-03 -1.876683e+00 -2.705883e+00 -5.648433e-06 -1.039863e-05 -1.097148e-05
Ga -8.176207e-03 1.799495e+00 4.991841e+00 1.312430e-05 2.328695e-05 -1.757844e-05
Al 9.776475e-03 1.814645e+00 -5.311833e+00 7.021229e-06 1.631362e-05 -1.620015e-05
Ga 2.488209e-03 1.795999e+00 -1.242967e-01 2.202336e-05 1.777547e-05 1.094315e-05
Ga 3.161265e+00 -3.709688e+00 4.998716e+00 -1.392205e-05 -1.003089e-05 -1.194213e-05
Ga 3.190753e+00 -3.719757e+00 -5.312601e+00 -7.195605e-06 1.368039e-05 1.348793e-05
Ga 3.163972e+00 -3.720462e+00 -1.271352e-01 4.638246e-06 1.882399e-05 1.665657e-05
Al 1.584943e+00 -9.498083e-01 5.008421e+00 -1.398777e-06 9.490703e-05 -6.583615e-05
Ga 1.581063e+00 -9.322573e-01 -5.302158e+00 -5.882738e-05 -1.110610e-06 -6.001006e-05
Al 1.574697e+00 -9.410007e-01 -1.486452e-01 -8.181296e-06 1.652201e-05 -5.573809e-06
Al 3.152055e+00 1.813805e+00 5.005282e+00 -2.141780e-04 -9.243199e-05 -2.486998e-05
Al 3.141563e+00 1.801094e+00 -5.327726e+00 2.654982e-05 5.891330e-05 2.623195e-05
Al 3.143889e+00 1.791515e+00 -1.291600e-01 2.440241e-05 5.241067e-06 -5.503410e-05
Al 6.363471e+00 -3.741413e+00 5.011202e+00 -6.819441e-05 4.174639e-07 -7.756207e-05
Al 6.344865e+00 -3.737278e+00 -5.321188e+00 3.647290e-05 -4.094951e-05 -1.976666e-05
Ga 6.349642e+00 -3.737718e+00 -1.326887e-01 1.776090e-05 -7.848972e-07 -5.221698e-05
Ga 4.736353e+00 -9.556484e-01 5.006457e+00 -5.926821e-07 -3.911311e-05 -1.191678e-05
Al 4.748551e+00 -9.594965e-01 -5.319009e+00 -6.218555e-06 -2.870817e-05 -9.292600e-06
Ga 4.740229e+00 -9.526060e-01 -1.223157e-01 -2.167057e-05 1.210593e-05 1.168209e-05
Al -3.217966e+00 1.809650e+00 4.989706e+00 7.776682e-06 1.955700e-05 -2.221609e-05
Ga -3.219188e+00 1.797276e+00 -5.290518e+00 3.321165e-05 3.031400e-06 1.421001e-05
Ga -3.216033e+00 1.809732e+00 -1.306731e-01 6.040518e-05 -9.595666e-06 -2.025544e-05
Al -3.657887e-02 -3.736845e+00 4.989027e+00 1.033668e-04 -8.083198e-05 -2.828928e-04
Ga -3.665151e-02 -3.723798e+00 -5.294664e+00 -9.339769e-06 -2.864191e-05 -1.954084e-05
Ga -1.795559e-02 -3.721435e+00 -1.337182e-01 2.349356e-05 -2.608403e-05 2.337194e-06
Ga -1.612548e+00 -9.558528e-01 5.004406e+00 -7.029445e-06 1.323009e-05 -5.553583e-06
Ga -1.616042e+00 -9.637040e-01 -5.296509e+00 -7.596768e-06 -6.051673e-05 1.294953e-05
Ga -1.599749e+00 -9.596197e-01 -1.339225e-01 -1.324499e-05 -4.628532e-06 -5.272710e-06
N 1.616469e+00 8.522891e-01 4.358200e+00 1.404725e-04 5.872533e-05 7.980334e-05
N 1.570665e+00 9.268851e-01 -5.969831e+00 5.048256e-05 9.598751e-06 6.949414e-05
N 1.612328e+00 8.614599e-01 -7.938562e-01 -7.585279e-06 2.401470e-05 5.363853e-05
N 1.657730e-02 3.664208e+00 4.356422e+00 3.338993e-05 3.302723e-06 4.360039e-06
N 2.118789e-02 3.612814e+00 -5.960964e+00 -3.744190e-05 2.055680e-05 2.171564e-06
N -2.511253e-02 3.631886e+00 -8.252086e-01 6.900696e-06 3.304625e-05 3.170720e-06
N 3.113723e+00 -1.853682e+00 4.339488e+00 1.521551e-05 2.675580e-06 2.011249e-05
N 3.196590e+00 -1.854427e+00 -5.958738e+00 -2.373995e-05 3.383187e-06 3.181977e-05
N 3.122736e+00 -1.859387e+00 -7.464876e-01 7.960299e-06 1.672598e-05 1.438496e-07
N -4.812489e+00 9.337444e-01 4.428794e+00 2.534482e-05 -3.920635e-05 3.854412e-05
N -4.846771e+00 8.623988e-01 -5.902211e+00 4.189939e-05 -2.647343e-05 -3.078444e-05
N -4.849910e+00 9.062393e-01 -7.423215e-01 4.925503e-05 -9.097876e-06 3.535510e-05
N -6.402198e+00 3.631935e+00 4.375871e+00 8.120915e-06 -1.760939e-05 3.432079e-05
N -6.434436e+00 3.615524e+00 -5.957967e+00 -1.091551e-05 -7.607277e-06 -7.369249e-05
N -6.395462e+00 3.584423e+00 -7.579312e-01 -1.322556e-05 3.092278e-05 3.279718e-05
N -3.211765e+00 -1.932864e+00 4.423133e+00 1.442849e-05 -3.594387e-06 -1.438497e-05
N -3.248789e+00 -1.908781e+00 -5.887779e+00 -1.714840e-05 1.741050e-05 -2.326071e-05
N -3.211524e+00 -1.882661e+00 -7.630327e-01 -1.082122e-06 2.103557e-06 -1.630781e-05
N -1.656019e+00 9.088724e-01 4.353964e+00 3.908248e-05 -5.300445e-05 -1.598191e-05
N -1.570480e+00 9.116835e-01 -5.890889e+00 3.534953e-05 -3.366129e-05 2.988665e-05
N -1.608454e+00 8.874901e-01 -7.614468e-01 5.854940e-05 -6.635324e-07 -3.321197e-05
N -3.250873e+00 3.619006e+00 4.378431e+00 -3.895410e-05 1.361868e-05 4.804125e-05
N -3.212081e+00 3.641171e+00 -5.938550e+00 2.341146e-05 -3.921673e-05 7.866998e-06
N -3.207329e+00 3.642232e+00 -8.125190e-01 2.116040e-05 1.294116e-06 1.899600e-05
N 2.892824e-02 -1.900772e+00 4.433839e+00 -2.138356e-05 8.204413e-06 3.103926e-05
N -1.195053e-02 -1.879929e+00 -5.941131e+00 -2.094752e-05 -1.506655e-05 2.080060e-05
N 2.494179e-02 -1.857156e+00 -7.828512e-01 -6.822578e-06 1.082583e-05 -3.645883e-06
N -1.583247e-02 1.800254e+00 1.871067e+00 3.893264e-06 3.218245e-05 2.048531e-05
N 2.020560e-02 1.822234e+00 6.973796e+00 -3.123472e-06 4.707772e-05 5.298046e-05
N 3.121707e-02 1.823232e+00 -3.381925e+00 -2.513809e-05 3.952813e-05 4.890546e-05
N 3.163740e+00 -3.722916e+00 1.871706e+00 4.916530e-06 3.524223e-05 -1.600439e-05
N 3.211716e+00 -3.691231e+00 6.987296e+00 -3.513368e-05 4.025922e-05 1.737731e-05
N 3.169992e+00 -3.766202e+00 -3.326381e+00 7.152761e-06 3.550197e-05 2.939104e-05
N 1.609714e+00 -9.270932e-01 1.776845e+00 7.932827e-06 7.785053e-06 4.501878e-05
N 1.620610e+00 -9.281884e-01 6.934199e+00 1.308678e-05 2.883641e-05 7.464796e-05
N 1.530442e+00 -9.284489e-01 -3.318629e+00 -1.796287e-05 1.725457e-05 4.832113e-05
N 3.113613e+00 1.824226e+00 1.793722e+00 1.219551e-06 4.050591e-05 8.377709e-05
N 3.112908e+00 1.826767e+00 6.927955e+00 3.765880e-05 -9.546764e-05 -7.773556e-05
N 3.112806e+00 1.774231e+00 -3.408525e+00 7.752442e-06 -1.923726e-05 1.357053e-05
N 6.348678e+00 -3.772911e+00 1.844507e+00 1.332758e-05 3.621345e-05 8.744961e-05
N 6.349970e+00 -3.773161e+00 6.932931e+00 1.532111e-05 1.611694e-06 3.174094e-05
N 6.309464e+00 -3.749882e+00 -3.401611e+00 2.751677e-05 1.237776e-05 2.853678e-05
N 4.715145e+00 -9.788488e-01 1.850758e+00 -4.090903e-06 -3.202317e-05 1.684436e-05
N 4.711073e+00 -9.838322e-01 6.976247e+00 -3.622519e-05 -5.805313e-06 1.104590e-05
N 4.749346e+00 -9.587774e-01 -3.404722e+00 -5.774870e-06 4.794892e-06 2.309107e-05
N -3.169811e+00 1.828885e+00 1.851263e+00 -3.720046e-05 5.059517e-06 -2.798578e-05
N -3.208756e+00 1.794809e+00 6.900599e+00 4.742376e-06 7.663721e-08 -3.482517e-06
N -3.213637e+00 1.846947e+00 -3.319885e+00 2.724617e-05 -2.477070e-06 2.240220e-05
N -2.230065e-02 -3.767983e+00 1.857155e+00 1.672480e-05 5.819126e-05 1.269456e-05
N -7.495210e-02 -3.750884e+00 6.906469e+00 7.711833e-05 3.347890e-05 6.884709e-05
N 1.692796e-02 -3.691568e+00 -3.308070e+00 2.541066e-05 -1.552360e-05 1.842974e-05
N -1.609999e+00 -9.138871e-01 1.847504e+00 -2.379468e-05 -1.996165e-06 -6.116692e-06
N -1.621739e+00 -9.551826e-01 6.970111e+00 -1.631672e-05 -1.373294e-06 -3.803926e-06
N -1.567905e+00 -9.862774e-01 -3.320879e+00 -4.923473e-05 9.297527e-06 -1.467234e-05
