108
Energy=-1169071.864709 Lattice="9.482472 0.000000 0.000000 -4.742262 8.214045 0.000000 -0.000178 -0.003161 15.278492" Stress="0.000001 0.000000 0.000000 0.000000 0.000002 -0.000000 0.000000 -0.000000 -0.000000" Properties=species:S:1:pos:R:3:forces:R:3
Al 1.553707 0.873899 2.386960 0.000050 -0.000031 -0.000062
Al 1.563791 0.867859 7.478696 0.000300 0.000043 0.000169
Al 1.551828 0.861171 -2.678050 0.000137 -0.000154 -0.000173
Al -0.014309 3.597617 2.419101 0.000103 -0.000093 -0.000024
Al -0.032425 3.615186 7.457261 0.000114 0.000375 0.000223
Al -0.030367 3.604900 -2.680757 -0.000172 0.000153 0.000086
Al 3.136679 -1.852446 2.416942 0.000261 0.000714 -0.000080
Al 3.141847 -1.870653 7.486791 -0.000038 0.000177 0.000014
Al 3.131667 -1.858474 -2.717598 -0.000124 -0.000374 0.000011
Al -4.780301 0.865608 2.420280 -0.000105 -0.000282 -0.000155
Al -4.777363 0.861686 7.466562 0.000009 0.000007 0.000140
Ga -4.782070 0.859090 -2.689787 0.000041 -0.000111 0.000058
Al -6.358703 3.600257 2.425733 0.000846 0.000131 -0.000296
Ga -6.346467 3.601329 7.459270 0.000032 0.000070 0.000131
Ga -6.358818 3.597780 -2.683971 -0.000058 0.000129 -0.000024
Ga -3.184869 -1.863066 2.405916 -0.000161 0.000155 -0.000271
Al -3.188632 -1.859346 7.464393 0.000013 -0.000039 0.000134
Ga -3.183805 -1.855393 -2.678046 0.000017 -0.000032 0.000165
Al -1.584385 0.870174 2.422697 0.000107 -0.000269 0.000354
Ga -1.599223 0.866783 7.462193 0.000288 -0.000165 0.000036
Al -1.581562 0.864604 -2.687088 0.000161 -0.000177 0.000095
Ga -3.181925 3.613291 2.440613 -0.000005 0.000106 -0.000122
Al -3.174209 3.621423 7.451592 -0.000132 0.000001 0.000208
Ga -3.163615 3.622844 -2.691045 0.000279 0.000112 -0.000144
Al -0.018543 -1.849886 2.408176 0.000048 0.000112 -0.000063
Al -0.020095 -1.860370 7.484240 0.000202 0.000212 0.000019
Al -0.010566 -1.834277 -2.695115 0.000055 0.000170 0.000100
Al -0.018227 1.793009 4.931601 -0.000101 -0.000013 0.000124
Ga -0.008811 1.784453 -5.235692 -0.000177 -0.000056 0.000193
Al -0.011698 1.777765 -0.143167 0.000088 0.000282 -0.000464
Al 3.151291 -3.690716 4.948664 0.000110 0.000091 0.000004
Al 3.146448 -3.674204 -5.263979 -0.000323 0.000150 0.000621
Ga 3.167024 -3.670731 -0.127335 -0.000161 0.000191 -0.000177
Ga 1.557461 -0.950272 4.947227 -0.000194 0.000247 0.000325
Al 1.567337 -0.948357 -5.259132 -0.000091 0.000019 0.000146
Al 1.563777 -0.939886 -0.144617 -0.000128 -0.000035 0.000483
Al 3.136720 1.782935 4.925543 0.000027 -0.000040 0.000070
Al 3.132034 1.760652 -5.259983 0.000001 -0.000084 0.000373
Al 3.121427 1.774997 -0.111248 -0.000005 -0.000057 0.000376
Al 6.292627 -3.692418 4.944066 0.000015 0.000032 0.000036
Ga 6.283539 -3.676682 -5.261062 0.000172 0.000187 0.000226
Al 6.293738 -3.699384 -0.123878 -0.000085 -0.000057 0.000215
Al 4.719995 -0.950390 4.956073 -0.000044 0.000140 0.000075
Al 4.709758 -0.953753 -5.278011 0.000101 -0.000065 0.000061
Al 4.706124 -0.952981 -0.129489 -0.000133 -0.000109 0.000623
Al -3.190633 1.777642 4.942360 0.000010 0.000147 -0.000148
Ga -3.193015 1.780372 -5.262578 -0.000002 0.000064 -0.000013
Ga -3.177080 1.757404 -0.117341 0.000018 0.000117 0.000073
Al -0.032171 -3.685249 4.945932 0.000415 -0.000554 -0.000029
Ga -0.013067 -3.671921 -5.257689 -0.000009 0.000224 0.000044
Ga -0.042259 -3.669954 -0.123005 0.000140 -0.000055 0.000060
Al -1.605327 -0.956711 4.940158 0.000139 0.000112 -0.000124
Al -1.600733 -0.954879 -5.248255 0.000051 -0.000509 0.000334
Al -1.590351 -0.943539 -0.135550 -0.000079 0.000001 0.000575
N 1.553745 0.916428 4.299723 0.000106 -0.000043 -0.000199
N 1.593988 0.850851 -5.884751 0.000093 0.000029 -0.000371
N 1.562373 0.871264 -0.744123 0.000145 0.000125 0.000008
N -0.022068 3.609002 4.336146 -0.000126 -0.000059 -0.000053
N -0.066370 3.629255 -5.910575 -0.000069 -0.000178 -0.000437
N 0.016901 3.586466 -0.765345 0.000171 -0.000241 0.000200
N 3.179320 -1.883573 4.328042 0.000236 -0.000131 -0.000222
N 3.137140 -1.865745 -5.867474 -0.000122 0.000004 -0.000044
N 3.138030 -1.814637 -0.790150 -0.000001 0.000180 -0.000057
N -4.768656 0.865562 4.337741 0.000137 -0.000104 0.000019
N -4.808380 0.849956 -5.892544 -0.000125 0.000022 -0.000362
N -4.812028 0.849651 -0.713536 -0.000085 0.000132 0.000220
N -6.350238 3.610277 4.349787 0.000106 0.000014 -0.000032
N -6.345144 3.562742 -5.847548 -0.000076 -0.000304 -0.000250
N -6.386875 3.579183 -0.708722 -0.000160 -0.000079 0.000367
N -3.187463 -1.863686 4.384785 0.000064 -0.000024 0.000079
N -3.178533 -1.810939 -5.889853 -0.000075 0.000102 -0.000232
N -3.182702 -1.861897 -0.682529 0.000103 0.000003 0.000464
N -1.598738 0.871180 4.348325 0.000070 -0.000094 -0.000006
N -1.597221 0.827985 -5.851151 0.000156 0.000572 -0.000135
N -1.558819 0.848354 -0.769603 0.000006 -0.000169 0.000164
N -3.182459 3.614153 4.411429 -0.000314 -0.000322 0.000347
N -3.140594 3.637721 -5.905505 0.000354 -0.000013 -0.000278
N -3.179828 3.612743 -0.727056 0.000101 -0.000091 0.000468
N -0.060703 -1.883915 4.315905 -0.000231 0.000519 -0.000091
N -0.022941 -1.808520 -5.879390 0.000024 -0.000096 -0.000144
N -0.017148 -1.809052 -0.773515 -0.000026 0.000015 -0.000002
N -0.026693 1.787282 1.787591 -0.000072 -0.000134 0.000272
N 0.025075 1.807243 6.846470 -0.000161 -0.000192 -0.000242
N -0.015985 1.786722 -3.248335 0.000087 0.000116 0.000096
N 3.186309 -3.662373 1.844870 -0.000233 -0.000392 -0.000094
N 3.143819 -3.683486 6.862617 -0.000053 0.000119 0.000097
N 3.186901 -3.665187 -3.334817 -0.000025 0.000068 -0.000443
N 1.561219 -0.955381 1.790770 -0.000080 0.000103 -0.000366
N 1.560139 -0.953252 6.924674 -0.000060 -0.000540 0.000087
N 1.559846 -0.946626 -3.320824 -0.000053 0.000133 -0.000204
N 3.137462 1.785801 1.811422 -0.000001 -0.000004 -0.000339
N 3.133863 1.731199 6.835356 -0.000059 -0.000173 -0.000191
N 3.090619 1.755288 -3.347680 -0.000350 -0.000135 -0.000076
N 6.296405 -3.741100 1.794189 -0.000009 0.000089 -0.000629
N 6.256781 -3.666682 6.856174 -0.000243 0.000001 -0.000115
N 6.253414 -3.707179 -3.291255 -0.000052 -0.000086 -0.000015
N 4.673354 -0.929083 1.783752 -0.000343 -0.000061 -0.000356
N 4.713633 -0.954682 6.875802 -0.000188 -0.000070 -0.000131
N 4.683440 -0.977702 -3.361555 -0.000244 0.000127 -0.000130
N -3.180717 1.732458 1.858926 -0.000048 0.000079 -0.000184
N -3.229401 1.802706 6.858210 -0.000105 0.000044 -0.000110
N -3.145884 1.758645 -3.285955 0.000142 -0.000057 -0.000035
N -0.065772 -3.663847 1.849650 -0.000664 -0.000433 0.000200
N 0.014263 -3.659069 6.859204 0.000199 0.000034 -0.000017
N -0.024291 -3.637190 -3.282209 0.000024 0.000060 0.000047
N -1.559125 -0.923879 1.782863 0.000173 0.000220 -0.000769
N -1.598392 -1.003998 6.846001 -0.000052 0.000025 -0.000107
N -1.564038 -0.931216 -3.325235 -0.000015 -0.000024 -0.000277
