108
Energy=-1123296.478809 Lattice="9.476376 0.000000 0.000000 -4.739576 8.203163 0.000000 -0.002092 -0.036558 15.275725" Stress="0.000000 -0.000001 -0.000001 -0.000001 -0.000003 -0.000009 -0.000001 -0.000009 0.000004" Properties=species:S:1:pos:R:3:forces:R:3
Al 1.554226 0.867508 2.399033 0.000007 -0.000063 -0.000057
Al 1.554170 0.856473 7.463003 -0.000041 0.000153 0.000081
Al 1.559668 0.878331 -2.669860 -0.000062 0.000040 -0.000044
Al -0.039145 3.597421 2.386429 -0.000107 0.000030 -0.000174
Al -0.022655 3.578949 7.472439 0.000076 0.000002 0.000153
Al -0.016690 3.616133 -2.664619 0.000047 0.000102 0.000018
Al 3.129934 -1.878568 2.380332 -0.000027 0.000033 -0.000027
Al 3.131442 -1.876040 7.498335 0.000199 -0.000100 -0.000015
Ga 3.138305 -1.845245 -2.682359 0.000021 -0.000017 0.000003
Al -4.767299 0.868174 2.415217 0.000017 0.000178 0.000034
Al -4.762572 0.857030 7.481165 0.000037 0.000324 0.000083
Al -4.756778 0.880175 -2.698931 -0.000030 -0.000234 -0.000105
Ga -6.335582 3.594426 2.385000 0.000054 -0.000113 -0.000060
Al -6.340233 3.584358 7.485932 0.000096 -0.000187 0.000131
Ga -6.346060 3.614857 -2.673721 -0.000026 0.000034 -0.000019
Al -3.175714 -1.860467 2.400964 -0.000057 0.000103 0.000199
Ga -3.176702 -1.877507 7.503027 0.000043 0.000032 -0.000069
Al -3.184247 -1.855248 -2.707869 0.000039 -0.000140 0.000018
Al -1.594121 0.862241 2.401773 0.000047 -0.000082 -0.000020
Al -1.598211 0.854105 7.469387 -0.000013 -0.000245 0.000005
Ga -1.608380 0.883816 -2.680151 0.000039 -0.000076 -0.000034
Al -3.171814 3.609533 2.422223 0.000126 -0.000048 0.000032
Ga -3.185256 3.583776 7.466091 -0.000040 -0.000033 0.000029
Al -3.184789 3.606472 -2.694223 -0.000142 -0.000017 -0.000038
Al -0.024655 -1.863217 2.389058 0.000156 -0.000021 -0.000208
Al -0.023547 -1.875765 7.490336 -0.000157 0.000115 0.000056
Ga -0.019759 -1.849269 -2.683298 -0.000015 -0.000061 0.000010
Al -0.033589 1.772062 4.932214 -0.000084 -0.000036 0.000042
Ga -0.021626 1.791686 -5.245788 0.000003 0.000003 0.000011
Al -0.008173 1.786752 -0.131256 0.000109 -0.000018 -0.000070
Al 3.133461 -3.707939 4.934207 -0.000067 0.000089 -0.000009
Ga 3.140103 -3.670310 -5.235747 -0.000006 -0.000001 0.000019
Al 3.131175 -3.693897 -0.139462 0.000044 0.000040 0.000025
Ga 1.546215 -0.968039 4.935138 0.000036 -0.000023 -0.000090
Al 1.551248 -0.937526 -5.266874 -0.000016 0.000038 -0.000043
Al 1.544506 -0.939352 -0.111961 -0.000150 -0.000113 -0.000003
Al 3.139906 1.775364 4.956854 0.000151 -0.000141 -0.000132
Ga 3.143131 1.792901 -5.249956 -0.000031 -0.000013 -0.000014
Al 3.123648 1.777754 -0.146782 0.000005 -0.000011 -0.000085
Ga 6.293915 -3.708622 4.938077 0.000004 0.000079 0.000005
Al 6.299478 -3.664812 -5.241629 0.000011 0.000023 0.000195
Al 6.289387 -3.681065 -0.137141 0.000115 -0.000088 -0.000118
Ga 4.712266 -0.955992 4.933504 0.000024 -0.000025 -0.000070
Al 4.724365 -0.931033 -5.241647 0.000000 0.000022 0.000064
Ga 4.722616 -0.950604 -0.128706 -0.000041 -0.000075 -0.000129
Al -3.175884 1.771698 4.919246 -0.000047 -0.000002 -0.000097
Al -3.186834 1.785234 -5.245029 0.000022 0.000059 0.000006
Ga -3.185078 1.800244 -0.118065 0.000013 -0.000048 -0.000065
Al -0.019532 -3.695723 4.938637 0.000110 0.000144 0.000124
Al -0.027445 -3.662636 -5.252319 -0.000014 0.000070 0.000039
Al -0.012481 -3.677159 -0.130283 -0.000003 0.000051 -0.000018
Al -1.589242 -0.954325 4.933954 -0.000279 -0.000091 0.000154
Al -1.601124 -0.941737 -5.253395 0.000055 -0.000049 0.000140
Al -1.597126 -0.961300 -0.125008 0.000124 -0.000017 -0.000115
N 1.558360 0.912058 4.321382 0.000109 0.000035 0.000007
N 1.556519 0.845247 -5.908779 0.000030 -0.000025 -0.000064
N 1.553032 0.867765 -0.746984 0.000021 0.000015 -0.000011
N -0.068504 3.569175 4.302440 0.000059 -0.000024 0.000223
N 0.017342 3.641629 -5.896016 -0.000086 -0.000013 -0.000096
N -0.022243 3.608464 -0.740763 0.000039 -0.000003 0.000034
N 3.131383 -1.925532 4.287098 0.000021 0.000047 -0.000112
N 3.140450 -1.804149 -5.859378 -0.000026 0.000028 0.000045
N 3.090212 -1.877754 -0.702499 0.000079 -0.000064 -0.000102
N -4.768842 0.912073 4.321017 -0.000196 0.000094 0.000079
N -4.717653 0.864147 -5.879153 0.000007 -0.000041 0.000022
N -4.795264 0.897771 -0.790263 0.000013 0.000022 0.000143
N -6.297901 3.567997 4.356788 -0.000101 -0.000078 -0.000053
N -6.340502 3.667463 -5.868036 0.000013 -0.000013 -0.000050
N -6.339932 3.612607 -0.684887 -0.000102 0.000073 0.000004
N -3.136560 -1.851119 4.307068 0.000057 0.000094 -0.000180
N -3.179812 -1.848110 -5.797598 -0.000001 0.000020 -0.000019
N -3.137726 -1.882208 -0.781526 0.000006 0.000051 0.000081
N -1.596398 0.857333 4.324235 0.000035 0.000036 0.000025
N -1.641982 0.864391 -5.879032 -0.000048 0.000106 -0.000069
N -1.563951 0.850638 -0.702992 -0.000147 -0.000160 0.000022
N -3.182520 3.600247 4.345776 0.000018 0.000031 0.000061
N -3.221979 3.594505 -5.833008 0.000074 -0.000143 -0.000042
N -3.186378 3.653361 -0.778052 0.000017 -0.000027 0.000163
N -0.065570 -1.898888 4.301731 0.000021 -0.000032 0.000156
N -0.024301 -1.848640 -5.860927 0.000013 -0.000009 0.000009
N -0.020835 -1.857046 -0.698104 0.000057 0.000042 0.000035
N -0.019429 1.777367 1.789785 -0.000025 0.000053 0.000080
N -0.026773 1.766014 6.859968 -0.000043 0.000045 -0.000013
N 0.020975 1.817026 -3.263801 0.000039 -0.000030 0.000023
N 3.131180 -3.699580 1.779942 -0.000000 0.000010 0.000076
N 3.179266 -3.675025 6.854635 -0.000054 -0.000047 -0.000016
N 3.141792 -3.724968 -3.259851 0.000165 0.000003 -0.000067
N 1.552593 -0.948911 1.805654 -0.000020 0.000045 0.000086
N 1.555846 -0.974065 6.917428 -0.000233 -0.000009 -0.000101
N 1.555162 -0.890659 -3.349708 -0.000003 -0.000044 0.000107
N 3.135006 1.722774 1.762151 0.000148 -0.000059 0.000215
N 3.138817 1.766501 6.880663 -0.000005 0.000042 -0.000029
N 3.132369 1.745905 -3.270451 0.000029 0.000008 0.000006
N 6.249044 -3.663596 1.778642 0.000121 -0.000021 -0.000020
N 6.295804 -3.748451 6.905514 -0.000295 0.000135 -0.000097
N 6.252069 -3.659733 -3.316977 -0.000014 -0.000083 -0.000076
N 4.719306 -0.951844 1.849497 -0.000034 -0.000133 0.000150
N 4.673508 -0.947471 6.906123 -0.000006 -0.000141 -0.000028
N 4.754514 -0.917645 -3.318953 -0.000140 0.000280 -0.000014
N -3.183335 1.783058 1.862904 -0.000094 -0.000043 0.000007
N -3.180667 1.713959 6.836719 -0.000031 0.000036 0.000034
N -3.220404 1.813087 -3.323231 0.000062 0.000012 -0.000107
N 0.029907 -3.669640 1.779044 -0.000201 0.000097 -0.000002
N -0.065103 -3.673508 6.855202 0.000152 0.000082 -0.000116
N 0.014322 -3.696283 -3.338506 -0.000045 -0.000008 0.000014
N -1.604892 -0.956058 1.790272 -0.000035 -0.000011 0.000044
N -1.559084 -0.946508 6.853890 0.000184 0.000114 -0.000100
N -1.636362 -0.962146 -3.342866 0.000020 0.000030 -0.000116
