108
Energy=-1489500.081360 Lattice="9.501747 0.000000 0.000000 -4.756862 8.223996 0.000000 0.002703 -0.003184 15.343110" Stress="-0.000049 0.000000 0.000001 0.000000 -0.000054 -0.000001 0.000001 -0.000001 -0.000032" Properties=species:S:1:pos:R:3:forces:R:3
Al 1.565121 0.857833 2.363723 0.000595 0.003148 0.012328
Al 1.563715 0.875920 7.513078 0.000122 -0.000007 0.001556
Al 1.556356 0.881244 -2.714974 0.000287 -0.000946 0.002041
Al -0.030693 3.626317 2.431004 -0.001156 -0.000146 0.002500
Al -0.043838 3.615565 7.530402 0.005032 -0.002876 -0.008809
Al -0.027545 3.608261 -2.717004 -0.000010 -0.000016 0.001879
Al 3.168817 -1.880955 2.396499 -0.003720 0.001230 -0.000300
Al 3.160862 -1.873897 7.497020 0.000033 -0.000295 0.000987
Ga 3.166023 -1.871483 -2.689547 -0.000082 0.000082 0.001989
Al -4.789985 0.867489 2.446638 -0.004137 -0.003017 0.000463
Al -4.782577 0.873803 7.505385 0.001267 -0.000530 0.000694
Al -4.777060 0.876881 -2.713498 -0.000011 -0.000987 0.001559
Al -6.347615 3.613219 2.424713 -0.003979 0.001128 0.000888
Ga -6.361996 3.599908 7.509810 -0.001053 0.000779 0.000838
Ga -6.357238 3.614417 -2.707115 -0.000130 0.000351 0.000271
Al -3.205720 -1.878921 2.444554 0.003113 0.002823 -0.002562
Ga -3.199027 -1.864880 7.505961 -0.000079 -0.001091 0.000296
Al -3.193942 -1.859898 -2.712628 0.000112 -0.000001 0.001879
Ga -1.631240 0.887888 2.443961 0.003473 -0.001301 -0.002621
Al -1.614780 0.897400 7.557263 0.002153 -0.001175 -0.001431
Ga -1.624847 0.893996 -2.744451 0.002064 -0.001105 0.002941
Al -3.192383 3.634551 2.395991 0.001717 0.002872 0.008425
Al -3.182692 3.616143 7.525889 0.000459 -0.000466 0.000683
Al -3.200119 3.617105 -2.717648 0.000804 0.000573 0.002057
Al -0.014124 -1.877955 2.397235 0.000951 0.001780 -0.000060
Ga -0.008302 -1.859294 7.540058 0.000737 -0.000591 0.000353
Ga -0.021778 -1.867911 -2.714925 0.000526 -0.000266 0.002040
Ga -0.004367 1.797399 4.981398 0.000855 0.000334 0.000210
Al -0.027406 1.782224 -5.288046 0.000371 -0.000327 0.001800
Ga -0.020979 1.793375 -0.135197 -0.000741 0.000824 0.000846
Al 3.166017 -3.696156 4.970361 0.001560 0.001539 0.001167
Ga 3.143072 -3.717955 -5.284842 -0.002079 0.001754 0.003089
Al 3.144619 -3.692580 -0.153282 -0.000346 0.000075 0.002220
Ga 1.596826 -0.959177 4.952506 -0.001550 0.001269 0.000428
Ga 1.566045 -0.952123 -5.281137 -0.000669 0.000779 0.002001
Al 1.577615 -0.972565 -0.145186 -0.001465 0.001153 0.002526
Al 3.139129 1.777430 4.962706 -0.004577 -0.002104 -0.004237
Ga 3.143071 1.785560 -5.272188 0.000331 -0.000491 0.002047
Ga 3.147600 1.775009 -0.131483 -0.000044 0.000431 0.001010
Al 6.305145 -3.703294 4.939651 -0.000084 -0.000542 0.002145
Ga 6.310425 -3.694618 -5.260139 0.000898 0.000299 0.001727
Ga 6.301645 -3.680969 -0.125578 -0.000251 -0.000611 0.002137
Al 4.727799 -0.963158 4.961470 -0.001427 0.000495 0.000587
Ga 4.745566 -0.939677 -5.276452 -0.001516 0.000395 0.002292
Al 4.732185 -0.954768 -0.142335 -0.000550 0.000476 0.003061
Ga -3.209751 1.798477 4.996198 -0.000133 0.000719 -0.000649
Al -3.188219 1.792818 -5.262324 -0.005252 0.003008 -0.007542
Ga -3.218280 1.809194 -0.127884 -0.000317 -0.000708 0.002036
Ga -0.014127 -3.705036 4.949024 0.000153 0.000179 0.001159
Al -0.013733 -3.694557 -5.274775 0.000481 -0.000716 0.001537
Al -0.005256 -3.686856 -0.133468 0.000020 0.000129 0.001952
Ga -1.608284 -0.963556 4.974377 0.000196 -0.000115 0.000420
Al -1.603072 -0.942064 -5.270417 -0.000566 -0.000205 0.001060
Ga -1.608077 -0.963436 -0.125500 -0.000407 0.000630 -0.003261
N 1.581538 0.878941 4.287189 0.006664 0.003485 0.004619
N 1.523315 0.897557 -5.920608 -0.000436 0.000351 -0.001902
N 1.554758 0.827169 -0.792870 0.000450 -0.001398 0.000932
N -0.028909 3.653188 4.343739 -0.000822 0.001268 -0.000210
N -0.021672 3.570640 -5.919998 -0.000477 -0.000478 0.000389
N -0.062261 3.635307 -0.800972 -0.000747 0.000489 0.000039
N 3.198051 -1.902382 4.328225 0.001266 -0.000651 -0.002772
N 3.159616 -1.873279 -5.932606 0.000203 -0.000468 -0.002943
N 3.157017 -1.870723 -0.704453 0.000063 0.000330 0.001921
N -4.815022 0.848166 4.360021 -0.000132 -0.001412 -0.000552
N -4.746080 0.899646 -5.929288 0.003874 0.001042 0.000575
N -4.778458 0.832117 -0.799816 0.001186 -0.001633 0.000785
N -6.393262 3.585095 4.342855 -0.000134 0.000295 -0.000026
N -6.327828 3.638870 -5.863214 0.000774 0.000566 -0.000589
N -6.320699 3.641869 -0.735312 0.000285 0.000608 0.002270
N -3.225979 -1.889214 4.356823 -0.000390 -0.000013 -0.001696
N -3.149212 -1.848722 -5.875509 0.001364 0.000794 -0.000582
N -3.224447 -1.842667 -0.796607 -0.001068 0.000426 0.000064
N -1.614488 0.883562 4.388188 0.000080 -0.000893 -0.001434
N -1.614879 0.882258 -5.856420 0.000919 -0.000212 -0.000288
N -1.623081 0.884231 -0.767432 0.000350 -0.000347 0.000819
N -3.133828 3.644468 4.334608 -0.002501 -0.000807 -0.007278
N -3.236495 3.603509 -5.907739 0.001025 -0.003685 0.001067
N -3.199826 3.667686 -0.786984 0.000853 0.000165 0.000988
N -0.012206 -1.866187 4.304982 -0.000570 -0.000661 -0.002802
N -0.059673 -1.885043 -5.835906 -0.000597 -0.000651 0.000137
N 0.014611 -1.887704 -0.731329 0.001553 -0.000516 0.000659
N 0.003776 1.823933 1.851702 0.001355 -0.003591 -0.006603
N -0.018345 1.778433 6.963716 -0.002873 0.003264 0.001198
N 0.018140 1.809916 -3.360057 0.000183 0.000879 -0.000524
N 3.157948 -3.705262 1.784183 -0.002397 0.000296 -0.002390
N 3.149110 -3.699487 6.907560 -0.000408 0.000129 -0.001445
N 3.148763 -3.742448 -3.303672 -0.000873 -0.000771 0.000859
N 1.563371 -0.966047 1.792993 0.003795 0.000188 -0.003176
N 1.612160 -0.935400 6.937791 -0.000406 0.000874 -0.002051
N 1.578772 -0.914739 -3.311948 -0.000983 0.001957 0.000565
N 3.153153 1.798498 1.862336 -0.002943 -0.005535 -0.006554
N 3.140553 1.742234 6.885944 -0.000400 -0.001816 -0.003847
N 3.139119 1.742519 -3.295500 0.000290 -0.000893 0.001073
N 6.302426 -3.700826 1.883154 0.005246 0.002093 -0.006943
N 6.279976 -3.718985 6.862097 -0.003830 -0.001880 -0.000795
N 6.271888 -3.670815 -3.289010 -0.000562 0.000138 0.001275
N 4.742857 -0.949526 1.804363 -0.001077 0.000682 -0.002510
N 4.696278 -0.932467 6.880343 -0.001521 0.001348 -0.002311
N 4.769874 -0.927714 -3.302304 -0.000000 0.001037 0.000378
N -3.269285 1.819083 1.883756 0.006246 0.000269 -0.013213
N -3.195561 1.794949 6.972643 0.000397 -0.000821 -0.000210
N -3.247670 1.822995 -3.353440 -0.000007 -0.000112 0.000717
N -0.020058 -3.697045 1.800931 0.000141 0.000123 -0.001216
N 0.019793 -3.713546 6.917239 0.001194 -0.000383 -0.001088
N 0.018444 -3.713466 -3.364958 0.000858 -0.000837 -0.000664
N -1.605563 -0.988834 1.834442 -0.004659 -0.004008 0.005546
N -1.598152 -0.903778 6.939177 -0.000387 0.002640 -0.000609
N -1.642662 -0.972475 -3.358692 -0.001395 0.000118 -0.000304
