108
Energy=-2771214.570351 Lattice="9.687119 0.000000 0.000000 -4.843332 8.387900 0.000000 -0.002053 -0.000406 15.733253" Stress="0.000000 0.000000 -0.000000 0.000000 0.000000 0.000000 -0.000000 0.000000 0.000000" Properties=species:S:1:pos:R:3:forces:R:3
Al 1.589596 0.893101 2.478130 0.000042 0.000030 0.000011
Ga 1.585951 0.899146 7.719744 0.000002 -0.000019 0.000032
Ga 1.590698 0.892649 -2.772064 0.000006 0.000011 -0.000016
Ga -0.019271 3.679521 2.476805 0.000007 -0.000024 0.000000
Al -0.017951 3.689524 7.728185 -0.000003 -0.000006 -0.000003
Ga -0.015453 3.690224 -2.779687 0.000002 0.000007 0.000010
Ga 3.201918 -1.899161 2.479207 -0.000009 0.000018 -0.000044
Ga 3.207811 -1.910731 7.717203 0.000013 -0.000008 0.000012
Ga 3.205061 -1.904553 -2.770036 0.000002 -0.000030 -0.000018
Ga -4.877100 0.891162 2.474474 0.000017 -0.000018 -0.000100
Ga -4.868595 0.892677 7.719136 -0.000002 0.000002 0.000011
Ga -4.867629 0.893062 -2.765800 0.000006 -0.000038 -0.000023
Ga -6.487778 3.680275 2.479079 0.000021 0.000003 -0.000067
Ga -6.496978 3.689114 7.728780 0.000003 0.000005 0.000018
Ga -6.489993 3.690775 -2.782195 0.000004 0.000014 -0.000007
Ga -3.252677 -1.905943 2.480293 0.000005 -0.000002 0.000011
Ga -3.257830 -1.917907 7.733020 -0.000014 0.000008 0.000003
Ga -3.252286 -1.914196 -2.787314 -0.000001 0.000006 -0.000002
Ga -1.626525 0.892205 2.479351 0.000011 -0.000053 -0.000009
Ga -1.632527 0.900501 7.717840 -0.000022 -0.000024 -0.000046
Ga -1.634690 0.893824 -2.770130 0.000042 -0.000000 -0.000034
Ga -3.251477 3.689108 2.481435 0.000050 -0.000015 -0.000059
Ga -3.243982 3.687568 7.722120 0.000027 -0.000016 0.000024
Ga -3.250260 3.688390 -2.773491 0.000042 0.000041 -0.000031
Ga -0.020108 -1.897183 2.475554 -0.000013 -0.000019 0.000036
Ga -0.022775 -1.902896 7.719594 0.000025 0.000015 -0.000014
Ga -0.021102 -1.903181 -2.765902 0.000014 0.000015 -0.000029
Ga -0.016353 1.827266 5.101938 -0.000036 -0.000022 -0.000001
Ga -0.017428 1.839861 -5.404964 -0.000001 -0.000004 -0.000030
Ga -0.017225 1.822730 -0.136982 -0.000029 -0.000028 -0.000010
Ga 3.211489 -3.772100 5.114200 -0.000022 0.000017 -0.000046
Ga 3.223502 -3.770937 -5.405051 0.000002 -0.000003 -0.000001
Ga 3.207354 -3.768252 -0.148316 -0.000039 -0.000042 -0.000028
Ga 1.590069 -0.964130 5.085436 0.000002 -0.000006 -0.000027
Ga 1.592069 -0.972043 -5.391453 -0.000003 -0.000006 0.000012
Ga 1.592701 -0.965779 -0.132533 -0.000052 -0.000038 -0.000014
Ga 3.198107 1.821199 5.090338 0.000008 -0.000004 -0.000030
Ga 3.202648 1.832053 -5.392997 -0.000013 0.000013 0.000019
Ga 3.199713 1.823305 -0.137171 0.000049 -0.000008 -0.000013
Ga 6.428998 -3.770548 5.111282 0.000023 0.000011 -0.000024
Al 6.428128 -3.773087 -5.406603 -0.000002 0.000008 -0.000014
Ga 6.435433 -3.767174 -0.146375 -0.000028 -0.000030 0.000010
Ga 4.821269 -0.972725 5.102509 0.000025 0.000001 -0.000046
Ga 4.824713 -0.978545 -5.393115 0.000018 -0.000001 -0.000036
Ga 4.822645 -0.974251 -0.148784 -0.000054 -0.000011 0.000022
Ga -3.253335 1.823684 5.099166 0.000021 -0.000014 -0.000009
Ga -3.251504 1.823550 -5.390619 0.000020 -0.000020 0.000001
Ga -3.250573 1.825362 -0.144067 -0.000027 -0.000008 -0.000019
Ga -0.025595 -3.768431 5.102666 0.000014 -0.000001 -0.000038
Ga -0.032807 -3.767503 -5.392918 0.000026 -0.000008 0.000004
Ga -0.024010 -3.769185 -0.148238 -0.000046 -0.000054 -0.000029
Ga -1.639834 -0.973194 5.102715 0.000019 -0.000018 -0.000047
Ga -1.640820 -0.979243 -5.393365 0.000015 0.000008 -0.000000
Ga -1.639200 -0.972626 -0.148526 -0.000049 -0.000013 0.000019
N 1.587741 0.894827 4.404427 0.000001 0.000000 0.000007
N 1.592549 0.891890 -6.034346 0.000022 0.000004 0.000007
N 1.591200 0.892104 -0.791149 -0.000004 0.000012 0.000018
N -0.023615 3.688141 4.455901 0.000029 -0.000026 -0.000019
N 0.021714 3.712599 -6.074529 -0.000012 0.000002 -0.000020
N -0.019705 3.687036 -0.792480 -0.000015 -0.000001 -0.000008
N 3.206179 -1.907763 4.464043 0.000018 -0.000026 0.000076
N 3.205918 -1.902831 -6.035514 0.000004 -0.000012 0.000002
N 3.203382 -1.902559 -0.784688 -0.000001 -0.000025 0.000047
N -4.868385 0.891439 4.457139 -0.000009 -0.000005 0.000051
N -4.867234 0.892551 -6.032267 0.000028 -0.000022 -0.000029
N -4.868545 0.894329 -0.781042 -0.000021 0.000005 0.000081
N -6.484799 3.689862 4.462364 -0.000021 -0.000016 0.000059
N -6.524454 3.712754 -6.015291 -0.000014 -0.000016 0.000020
N -6.484206 3.687280 -0.793475 0.000030 0.000010 -0.000017
N -3.252737 -1.907081 4.463033 -0.000018 -0.000001 0.000045
N -3.251795 -1.954245 -6.011626 -0.000002 0.000011 -0.000014
N -3.251509 -1.907668 -0.800575 -0.000012 -0.000006 -0.000026
N -1.634576 0.892936 4.464224 0.000037 0.000010 0.000108
N -1.635406 0.892391 -6.032967 -0.000008 -0.000002 -0.000018
N -1.634058 0.894650 -0.784573 -0.000012 -0.000021 0.000027
N -3.250321 3.690718 4.465570 0.000015 0.000017 0.000039
N -3.251220 3.689571 -6.029586 -0.000007 0.000002 0.000040
N -3.251016 3.688628 -0.789906 -0.000027 -0.000013 -0.000009
N -0.025334 -1.904526 4.458438 0.000007 0.000002 0.000002
N -0.021643 -1.903134 -6.033970 -0.000011 -0.000016 -0.000014
N -0.019528 -1.901981 -0.781274 -0.000000 -0.000023 0.000060
N 0.020576 1.798889 1.853231 0.000021 -0.000008 0.000006
N -0.020780 1.875545 7.096341 -0.000023 0.000071 0.000019
N -0.022246 1.827039 -3.420516 -0.000021 -0.000020 0.000026
N 3.206708 -3.768721 1.835123 0.000012 0.000011 0.000007
N 3.251161 -3.795432 7.105226 0.000018 0.000003 -0.000018
N 3.210266 -3.769280 -3.419000 -0.000032 0.000010 0.000028
N 1.591942 -0.921831 1.858729 -0.000033 0.000040 -0.000037
N 1.591292 -0.968383 7.070426 -0.000068 0.000010 0.000015
N 1.591602 -0.972275 -3.410711 -0.000009 0.000012 -0.000029
N 3.160456 1.799305 1.854445 -0.000008 -0.000013 0.000034
N 3.202432 1.824681 7.075283 -0.000001 0.000005 0.000006
N 3.206353 1.823498 -3.411653 -0.000023 -0.000002 -0.000013
N 6.433973 -3.768400 1.833705 0.000038 0.000031 0.000052
N 6.389894 -3.793200 7.097367 -0.000022 0.000007 0.000019
N 6.431612 -3.771619 -3.478406 -0.000017 -0.000015 -0.000016
N 4.820636 -0.974696 1.834148 0.000036 0.000082 0.000043
N 4.822556 -0.973530 7.084316 -0.000010 0.000003 0.000028
N 4.819598 -0.971285 -3.410327 0.000006 0.000043 -0.000005
N -3.251291 1.822709 1.840071 -0.000014 0.000081 0.000009
N -3.253105 1.823810 7.079166 -0.000012 -0.000005 -0.000012
N -3.251901 1.822683 -3.408641 -0.000012 0.000008 -0.000005
N -0.025496 -3.769577 1.836777 0.000045 0.000035 0.000013
N -0.026779 -3.771332 7.086683 -0.000027 0.000022 0.000003
N -0.024070 -3.767459 -3.409896 -0.000012 -0.000023 -0.000002
N -1.639849 -0.972670 1.834481 0.000044 0.000096 0.000013
N -1.642683 -0.973403 7.086555 0.000001 0.000011 0.000022
N -1.635917 -0.972006 -3.410336 0.000004 0.000036 -0.000011
