108
Energy=-1.169071e+06 Lattice="9.487944e+00 0.000000e+00 0.000000e+00 -4.747821e+00 8.212349e+00 0.000000e+00 1.150218e-02 7.881409e-03 1.533440e+01" Stress="9.327575e-04 4.758599e-04 1.326354e-03 4.832460e-04 1.671242e-03 5.724737e-04 1.328669e-03 5.780752e-04 8.924647e-03" Properties=species:S:1:pos:R:3:forces:R:3 Config_type=AlGaN_super3_16_2_6.xyz
Al 1.559871e+00 8.850549e-01 2.425957e+00 -1.858585e-03 -2.712283e-03 -1.669331e-03
Al 1.561957e+00 8.644210e-01 7.518784e+00 -1.254778e-03 -6.150438e-03 -1.803958e-03
Al 1.574681e+00 8.531626e-01 -2.716530e+00 -1.116279e-02 1.653901e-03 3.582845e-03
Al -3.367877e-04 3.604156e+00 2.472927e+00 -3.502528e-03 -1.314634e-03 -1.106106e-02
Al -1.822156e-02 3.623598e+00 7.507061e+00 1.581454e-05 -4.348675e-04 -4.701569e-04
Al -2.669338e-02 3.602268e+00 -2.722308e+00 -2.989079e-04 -2.746103e-03 6.920528e-03
Al 3.177258e+00 -1.843240e+00 2.437658e+00 -7.568103e-03 -9.128043e-03 -5.119307e-03
Al 3.157828e+00 -1.866117e+00 7.522924e+00 -5.958409e-03 7.998007e-04 9.555545e-05
Al 3.139255e+00 -1.878430e+00 -2.738046e+00 3.336884e-03 2.722281e-03 4.084753e-03
Al -4.785765e+00 8.756802e-01 2.459315e+00 -1.512641e-03 -2.665581e-03 -5.780784e-03
Al -4.781916e+00 8.742955e-01 7.512648e+00 3.462030e-03 -8.153617e-04 1.290093e-03
Ga -4.799894e+00 8.587554e-01 -2.734249e+00 3.808600e-03 -1.693040e-04 4.835165e-03
Al -6.365123e+00 3.607417e+00 2.466003e+00 3.125775e-03 1.920181e-03 -7.469593e-03
Ga -6.345170e+00 3.607994e+00 7.512131e+00 -1.141665e-04 2.574032e-04 -5.467213e-04
Ga -6.370543e+00 3.597745e+00 -2.726367e+00 3.208228e-03 -1.878274e-05 5.014086e-03
Ga -3.173570e+00 -1.862919e+00 2.407584e+00 3.253051e-03 2.121958e-03 -1.847951e-03
Al -3.176478e+00 -1.852357e+00 7.511704e+00 1.732095e-04 -5.454866e-04 1.987911e-03
Ga -3.184712e+00 -1.862591e+00 -2.727488e+00 1.787998e-03 1.745440e-03 4.665070e-03
Al -1.591462e+00 8.832506e-01 2.479983e+00 -2.175777e-03 -3.471620e-03 -1.550558e-02
Ga -1.607316e+00 8.868400e-01 7.506950e+00 3.438523e-03 -1.459671e-03 2.932127e-06
Al -1.601711e+00 8.779728e-01 -2.725829e+00 3.269693e-03 -1.026155e-03 3.306432e-03
Ga -3.223016e+00 3.594427e+00 2.424856e+00 5.520513e-03 2.633036e-03 -1.148519e-04
Al -3.179995e+00 3.635297e+00 7.503779e+00 3.497286e-03 -1.254372e-03 4.396333e-04
Ga -3.179720e+00 3.631168e+00 -2.724211e+00 1.836227e-03 -1.759314e-03 2.399979e-03
Al 1.355055e-02 -1.859668e+00 2.417316e+00 -9.251984e-03 6.866064e-03 -1.785708e-02
Al -1.996990e-02 -1.854913e+00 7.521861e+00 -8.778872e-03 -6.681990e-03 7.139983e-03
Al -1.102319e-02 -1.830713e+00 -2.738029e+00 2.792837e-04 -2.276575e-03 5.877790e-03
Al -9.950291e-03 1.792443e+00 4.996240e+00 -5.835214e-04 -3.250174e-04 -4.239471e-03
Ga -1.575361e-02 1.776689e+00 -5.275969e+00 -1.625547e-03 9.644084e-04 5.419418e-03
Al -3.376498e-02 1.765626e+00 -1.560157e-01 4.785412e-03 5.153462e-03 5.026881e-03
Al 3.175541e+00 -3.686004e+00 5.001254e+00 -1.414719e-02 -5.337547e-03 -6.367333e-03
Al 3.153758e+00 -3.680371e+00 -5.279897e+00 -2.316901e-03 1.231066e-03 8.060068e-04
Ga 3.168878e+00 -3.689596e+00 -1.459687e-01 5.858306e-05 6.939797e-04 5.944817e-03
Ga 1.567097e+00 -9.653090e-01 4.960122e+00 -4.156552e-03 2.248843e-03 9.254923e-04
Al 1.583307e+00 -9.583412e-01 -5.283526e+00 -3.822300e-03 6.421322e-05 2.563767e-03
Al 1.578731e+00 -9.466412e-01 -1.674552e-01 -3.864065e-03 -3.378504e-04 8.469067e-03
Al 3.138936e+00 1.786179e+00 4.984176e+00 -1.410200e-04 2.799752e-04 -1.055042e-03
Al 3.127847e+00 1.764854e+00 -5.292454e+00 3.639056e-04 1.098054e-03 3.359283e-03
Al 3.116181e+00 1.775805e+00 -1.398406e-01 4.146124e-04 1.023002e-03 7.888790e-03
Al 6.309526e+00 -3.685065e+00 4.998343e+00 1.468324e-03 9.990728e-04 -7.939566e-04
Ga 6.282122e+00 -3.686397e+00 -5.287488e+00 9.834966e-04 1.671180e-03 2.388440e-03
Al 6.301860e+00 -3.703061e+00 -1.590508e-01 -2.220136e-03 1.037728e-03 4.246620e-03
Al 4.743931e+00 -9.474092e-01 4.998288e+00 -1.406177e-03 2.151574e-03 -3.650568e-04
Al 4.722637e+00 -9.528495e-01 -5.300613e+00 -1.538702e-03 -7.417849e-04 1.976316e-03
Al 4.721437e+00 -9.525271e-01 -1.629621e-01 -7.561643e-04 4.778019e-05 5.202395e-03
Al -3.194959e+00 1.785666e+00 4.996856e+00 -3.493045e-03 -9.307001e-04 -1.400783e-03
Ga -3.197145e+00 1.780540e+00 -5.288762e+00 -2.126400e-03 2.532919e-03 2.461742e-03
Ga -3.194112e+00 1.765656e+00 -1.529654e-01 2.619732e-04 -1.784724e-03 3.454895e-03
Al -2.618552e-02 -3.679828e+00 4.993218e+00 -2.802093e-03 3.838839e-03 -6.611287e-03
Ga -1.461505e-02 -3.670421e+00 -5.284963e+00 -2.583606e-04 -5.387719e-04 2.058278e-03
Ga -4.287632e-02 -3.671283e+00 -1.512212e-01 -1.961187e-03 1.390079e-03 2.330017e-03
Al -1.592262e+00 -9.501858e-01 4.987517e+00 8.474996e-04 -4.698849e-04 -6.078765e-03
Al -1.597331e+00 -9.388739e-01 -5.282415e+00 -1.712307e-03 -1.019086e-02 6.036690e-03
Al -1.590496e+00 -9.419409e-01 -1.808529e-01 -1.918278e-03 6.790129e-04 8.524136e-03
N 1.558052e+00 9.111021e-01 4.366596e+00 6.987137e-04 3.135836e-03 -4.800473e-03
N 1.584490e+00 8.517934e-01 -5.893829e+00 3.070457e-03 -4.766304e-03 -6.480946e-03
N 1.550902e+00 8.664654e-01 -7.683975e-01 2.359840e-03 4.570955e-04 -5.349104e-04
N -9.431137e-03 3.610299e+00 4.402614e+00 -8.480706e-04 8.846061e-04 -4.721327e-03
N -7.220415e-02 3.622751e+00 -5.925855e+00 3.194150e-04 -3.915854e-04 -1.998167e-03
N 6.076155e-03 3.585384e+00 -7.885746e-01 4.054892e-03 -4.244240e-03 -3.253350e-03
N 3.193639e+00 -1.875605e+00 4.377080e+00 4.614119e-03 -4.918307e-03 -5.299288e-03
N 3.149920e+00 -1.869602e+00 -5.884130e+00 -1.102001e-03 7.413369e-04 -3.151333e-03
N 3.150099e+00 -1.835343e+00 -7.909859e-01 -8.531181e-04 4.047915e-03 -5.895185e-03
N -4.775022e+00 8.794334e-01 4.396504e+00 1.660963e-03 -6.458006e-03 -4.211351e-03
N -4.812311e+00 8.565258e-01 -5.900020e+00 -1.436182e-03 -2.453630e-03 -4.328676e-03
N -4.817243e+00 8.522694e-01 -7.534531e-01 -3.947622e-03 -1.096557e-03 6.308210e-04
N -6.348511e+00 3.611013e+00 4.406933e+00 -3.935904e-03 2.325473e-03 -4.297627e-03
N -6.355433e+00 3.574368e+00 -5.867085e+00 6.879618e-04 -5.349745e-03 7.094762e-04
N -6.387782e+00 3.587118e+00 -7.493088e-01 -2.266217e-03 -5.112408e-03 1.262547e-03
N -3.174362e+00 -1.859262e+00 4.413849e+00 -1.068892e-04 -4.519511e-04 2.817955e-04
N -3.180744e+00 -1.826943e+00 -5.896730e+00 1.507145e-03 5.149420e-03 -4.004696e-03
N -3.183181e+00 -1.863899e+00 -7.368815e-01 4.608913e-04 -5.068592e-04 4.086066e-03
N -1.606654e+00 8.903276e-01 4.409609e+00 1.826272e-03 -2.542434e-03 -3.120199e-03
N -1.614298e+00 8.235543e-01 -5.867433e+00 2.702027e-03 4.485305e-03 -4.077528e-03
N -1.575364e+00 8.621522e-01 -7.941605e-01 5.705136e-04 -2.797615e-03 -4.319814e-03
N -3.262747e+00 3.572167e+00 4.394539e+00 2.465753e-02 1.462763e-02 1.203920e-02
N -3.146623e+00 3.638184e+00 -5.917869e+00 1.237713e-03 4.126623e-04 -1.702463e-03
N -3.194238e+00 3.619035e+00 -7.621625e-01 2.020286e-03 -1.365658e-03 2.078039e-04
N -4.922299e-02 -1.857231e+00 4.265382e+00 -4.603577e-03 -9.009802e-03 2.975223e-02
N -2.586986e-02 -1.817355e+00 -5.892899e+00 2.609218e-03 4.802356e-03 -2.320876e-03
N -2.173570e-02 -1.818247e+00 -7.964477e-01 4.923634e-03 4.278345e-03 -4.234726e-03
N -1.911185e-02 1.796820e+00 1.816030e+00 -2.993481e-03 -2.968332e-03 1.669231e-04
N 2.556923e-02 1.817459e+00 6.897169e+00 1.030853e-03 -1.572008e-03 2.282165e-03
N -2.426061e-02 1.788320e+00 -3.298866e+00 3.859408e-03 -3.781449e-03 4.213239e-03
N 3.180634e+00 -3.705911e+00 1.840515e+00 2.746643e-03 1.178128e-02 7.533822e-03
N 3.163202e+00 -3.681814e+00 6.923302e+00 -3.646478e-03 -2.164783e-04 -6.882889e-03
N 3.193302e+00 -3.674199e+00 -3.353969e+00 -1.095943e-03 1.152165e-03 -3.338874e-03
N 1.582873e+00 -9.478785e-01 1.823982e+00 2.809917e-03 3.068795e-05 -8.139418e-03
N 1.503457e+00 -1.009189e+00 6.940034e+00 2.660959e-02 1.960837e-02 2.216513e-03
N 1.581574e+00 -9.616530e-01 -3.339519e+00 -2.998252e-03 1.877758e-03 -3.038267e-03
N 3.133281e+00 1.792628e+00 1.838445e+00 1.660632e-03 4.194247e-04 -5.085963e-03
N 3.136905e+00 1.746736e+00 6.903396e+00 -1.816395e-03 -6.415112e-03 -4.562992e-03
N 3.089771e+00 1.758482e+00 -3.376462e+00 -8.033609e-04 -5.309681e-04 -3.961417e-03
N 6.308143e+00 -3.736817e+00 1.778138e+00 -1.669316e-03 -1.419816e-03 6.488424e-03
N 6.283246e+00 -3.664160e+00 6.913852e+00 -3.990851e-03 3.117709e-03 -3.274430e-03
N 6.266497e+00 -3.710553e+00 -3.323941e+00 -4.301513e-03 -5.886519e-04 -1.583418e-03
N 4.693685e+00 -9.231349e-01 1.775060e+00 -1.021832e-03 8.805342e-04 3.209620e-03
N 4.734592e+00 -9.471275e-01 6.926603e+00 -3.746818e-03 6.400202e-04 -2.485893e-03
N 4.695906e+00 -9.802609e-01 -3.385541e+00 -5.327244e-03 -1.177723e-03 -1.723254e-03
N -3.218946e+00 1.730446e+00 1.820661e+00 1.005394e-02 -3.336448e-03 1.011720e-02
N -3.221887e+00 1.813139e+00 6.915209e+00 -4.405588e-03 2.268703e-03 -2.745836e-03
N -3.170856e+00 1.772639e+00 -3.322838e+00 3.342640e-03 -2.929608e-03 1.422131e-03
N -6.632592e-02 -3.653166e+00 1.817705e+00 -4.753785e-03 -4.388404e-03 5.897860e-03
N 1.213653e-02 -3.661600e+00 6.914258e+00 1.484921e-03 3.505957e-03 -6.040724e-03
N -2.861864e-02 -3.646303e+00 -3.320874e+00 -4.485799e-04 5.225865e-03 1.234572e-03
N -1.559952e+00 -9.201706e-01 1.757956e+00 4.423957e-03 3.159981e-03 6.341799e-03
N -1.590322e+00 -9.826566e-01 6.902878e+00 -1.621368e-03 -3.924514e-03 -6.019977e-03
N -1.567045e+00 -9.305640e-01 -3.351335e+00 8.268607e-04 3.160645e-03 -3.025674e-03
