108
Energy=-5.282150e+05 Lattice="9.407412e+00 0.000000e+00 0.000000e+00 -4.735221e+00 8.128415e+00 0.000000e+00 -2.510863e-03 3.179081e-02 1.507825e+01" Stress="-2.819492e-03 -2.285003e-03 -1.338077e-04 -2.288552e-03 -6.129694e-03 1.338445e-03 -1.332704e-04 1.345258e-03 -1.840130e-03" Properties=species:S:1:pos:R:3:forces:R:3 Config_type=AlGaN_super3_2_2_5.xyz
Al 1.531706e+00 8.670409e-01 2.358021e+00 3.179186e-03 7.319132e-04 2.465494e-03
Al 1.530407e+00 8.729230e-01 7.385226e+00 2.106780e-03 2.286264e-03 4.085125e-04
Al 1.534837e+00 8.421813e-01 -2.667283e+00 2.382261e-03 2.240925e-03 1.586013e-03
Al -4.105376e-02 3.577368e+00 2.353393e+00 1.672499e-03 5.680722e-04 3.030886e-03
Al -4.046671e-02 3.583150e+00 7.384584e+00 1.360626e-03 1.621661e-04 3.101621e-04
Al -3.791723e-02 3.555635e+00 -2.666134e+00 1.283229e-03 5.481566e-04 1.149929e-03
Al 3.120961e+00 -1.834552e+00 2.363872e+00 9.752160e-04 -8.771557e-04 9.110176e-04
Al 3.123057e+00 -1.827682e+00 7.384707e+00 1.648868e-03 -1.063403e-03 6.799583e-04
Al 3.123459e+00 -1.858239e+00 -2.666251e+00 1.625088e-03 -1.120669e-03 2.452330e-04
Al -4.737806e+00 8.795280e-01 2.362150e+00 8.573502e-04 1.344688e-03 3.481183e-04
Al -4.737521e+00 8.779535e-01 7.387201e+00 1.108928e-03 1.724063e-03 -4.927829e-04
Al -4.734895e+00 8.504572e-01 -2.663731e+00 9.856575e-04 1.789388e-03 -2.910997e-04
Al -6.338390e+00 3.574319e+00 2.391058e+00 8.041640e-03 4.067724e-03 -2.343572e-04
Al -6.310194e+00 3.591713e+00 7.385418e+00 3.119914e-04 2.667871e-04 -1.569491e-03
Al -6.318032e+00 3.555282e+00 -2.681107e+00 1.138130e-03 7.760518e-04 -2.181118e-03
Al -3.148386e+00 -1.825953e+00 2.364884e+00 9.186060e-04 -1.732033e-03 1.615969e-04
Al -3.156468e+00 -1.824492e+00 7.379741e+00 1.476159e-03 -8.288172e-04 -5.281640e-04
Al -3.149459e+00 -1.853959e+00 -2.649484e+00 -3.962609e-04 -1.828897e-03 -1.095242e-03
Al -1.601310e+00 8.802691e-01 2.360826e+00 -5.614018e-04 -1.340146e-03 1.953246e-03
Al -1.602444e+00 8.957595e-01 7.380389e+00 2.871222e-04 -1.342699e-03 -1.120059e-04
Al -1.601838e+00 8.605196e-01 -2.650148e+00 1.915558e-04 1.479273e-03 6.634753e-04
Al -3.145460e+00 3.579722e+00 2.394129e+00 -1.100446e-02 3.822154e-03 -8.674343e-04
Al -3.175291e+00 3.597930e+00 7.385606e+00 -1.137082e-03 -1.469916e-03 -9.302252e-04
Al -3.161230e+00 3.561102e+00 -2.680279e+00 -2.137767e-03 -8.511324e-04 -2.013993e-03
Al -1.567095e-02 -1.799548e+00 2.409806e+00 9.258587e-05 -4.407224e-03 -2.394519e-03
Al -6.369080e-03 -1.818364e+00 7.378087e+00 -1.783529e-03 -2.794618e-03 -1.028338e-03
Al -5.509925e-03 -1.834212e+00 -2.668319e+00 1.396325e-04 -4.988449e-03 -2.845271e-03
Al -3.318072e-02 1.771377e+00 4.866599e+00 7.663392e-04 3.023431e-03 1.727113e-03
Al -3.001120e-02 1.750202e+00 -5.179402e+00 1.723902e-03 2.215043e-03 1.567869e-03
Al -3.156011e-02 1.747273e+00 -1.506490e-01 1.055102e-03 2.835137e-03 1.947582e-05
Al 3.131061e+00 -3.643731e+00 4.883226e+00 1.462093e-03 2.025783e-03 -1.928549e-04
Al 3.131944e+00 -3.670906e+00 -5.181349e+00 9.385073e-04 1.710367e-03 -9.330820e-04
Al 3.137862e+00 -3.668913e+00 -1.453994e-01 7.072107e-04 3.569893e-03 -2.107301e-03
Al 1.558899e+00 -9.256991e-01 4.884134e+00 8.535379e-05 -4.206917e-05 -4.536112e-04
Al 1.568178e+00 -9.612824e-01 -5.182348e+00 -2.139135e-04 1.419793e-03 4.906841e-04
Al 1.561321e+00 -9.496232e-01 -1.465408e-01 9.973440e-04 -6.557439e-05 2.267478e-03
Al 3.098304e+00 1.776701e+00 4.881033e+00 -2.904641e-04 1.258825e-03 3.472861e-04
Al 3.102653e+00 1.746110e+00 -5.185427e+00 -2.832019e-04 1.252556e-03 -3.466585e-04
Al 3.097663e+00 1.741905e+00 -1.436627e-01 7.697358e-04 2.143344e-03 -3.741694e-03
Al 6.258646e+00 -3.637886e+00 4.880873e+00 -2.843430e-05 7.527695e-05 -7.572278e-04
Al 6.256960e+00 -3.670834e+00 -5.182471e+00 1.179787e-03 -5.862327e-05 -2.173731e-04
Al 6.255517e+00 -3.664566e+00 -1.410175e-01 6.411915e-04 1.825808e-03 -3.250395e-03
Al 4.689185e+00 -9.233257e-01 4.872626e+00 -1.067624e-03 -1.496882e-03 -5.691570e-04
Al 4.684233e+00 -9.556087e-01 -5.176389e+00 -5.008686e-04 -4.115023e-04 6.284690e-04
Al 4.690634e+00 -9.508326e-01 -1.427123e-01 -9.256905e-04 -6.679697e-04 -2.629066e-03
Al -3.166843e+00 1.784254e+00 4.878377e+00 -1.969536e-03 6.183720e-04 9.278634e-04
Al -3.168718e+00 1.763038e+00 -5.184954e+00 -2.584632e-03 -3.220946e-04 1.259640e-03
Al -3.161347e+00 1.751206e+00 -1.406275e-01 -3.034020e-03 1.319144e-03 -3.543227e-03
Al -6.440370e-03 -3.628870e+00 4.871882e+00 -1.577974e-03 -4.610463e-04 -5.293863e-03
Al 2.539757e-03 -3.664662e+00 -5.180570e+00 -2.712967e-03 -5.687901e-04 -1.201745e-04
Ga -2.574778e-03 -3.656853e+00 -2.127499e-01 -1.887846e-03 1.049617e-03 2.720216e-02
Al -1.581904e+00 -9.118338e-01 4.887412e+00 -2.342751e-03 -2.487881e-03 -1.234689e-04
Ga -1.576670e+00 -9.476062e-01 -5.176681e+00 -2.459949e-03 -8.110058e-04 -5.046403e-04
Al -1.577006e+00 -9.360927e-01 -1.449447e-01 -3.503307e-03 -2.500117e-03 9.331481e-04
N 1.532805e+00 8.713963e-01 4.279118e+00 2.072951e-03 2.045327e-03 -1.665549e-03
N 1.531424e+00 8.417737e-01 -5.776795e+00 1.439033e-03 1.862793e-03 3.423074e-04
N 1.534635e+00 8.431427e-01 -7.416808e-01 8.493455e-04 2.874085e-03 -3.027817e-03
N -4.079587e-02 3.583808e+00 4.276519e+00 6.494805e-04 -7.461287e-05 -1.288746e-03
N -3.814390e-02 3.553525e+00 -5.776413e+00 3.229181e-04 3.769976e-05 1.926307e-05
N -3.835007e-02 3.559357e+00 -7.417354e-01 8.142209e-04 -8.544346e-04 -2.004271e-03
N 3.120232e+00 -1.831592e+00 4.278451e+00 1.249319e-03 -9.623170e-04 8.576734e-04
N 3.124989e+00 -1.858832e+00 -5.776570e+00 1.175994e-03 -1.517206e-03 2.725604e-04
N 3.122099e+00 -1.856858e+00 -7.485322e-01 6.941742e-04 -9.339539e-04 1.069102e-03
N -4.739066e+00 8.800023e-01 4.277536e+00 1.351556e-03 1.805081e-03 -5.714627e-04
N -4.735436e+00 8.456876e-01 -5.776152e+00 1.449245e-03 1.917761e-03 4.020646e-04
N -4.735634e+00 8.505087e-01 -7.443881e-01 1.276204e-03 2.692005e-03 -3.998280e-04
N -6.322009e+00 3.583915e+00 4.297199e+00 -1.030545e-03 -1.172151e-03 2.860259e-03
N -6.307570e+00 3.561079e+00 -5.776500e+00 2.276912e-04 2.655012e-04 1.461625e-03
N -6.350306e+00 3.537017e+00 -7.739152e-01 -1.194356e-03 -3.574968e-04 1.442051e-03
N -3.148869e+00 -1.824617e+00 4.280286e+00 6.363007e-04 -6.919743e-04 7.639750e-04
N -3.185787e+00 -1.874340e+00 -5.790902e+00 -1.066861e-03 -1.743472e-03 -3.289748e-04
N -3.148356e+00 -1.852827e+00 -7.375692e-01 1.281399e-03 -5.221641e-04 1.016144e-03
N -1.604744e+00 8.847076e-01 4.281449e+00 -3.061945e-05 2.118519e-04 -2.407776e-03
N -1.600279e+00 9.038276e-01 -5.791008e+00 8.351612e-05 5.764381e-04 -1.656798e-03
N -1.601908e+00 8.604513e-01 -7.320630e-01 8.090833e-04 4.942864e-04 -3.396891e-03
N -3.161844e+00 3.591715e+00 4.298812e+00 -3.669259e-05 -2.901319e-03 1.659885e-03
N -3.172313e+00 3.568241e+00 -5.775762e+00 -2.766601e-04 -1.483048e-03 -1.793595e-04
N -3.127979e+00 3.543813e+00 -7.760317e-01 2.484377e-05 -2.242406e-03 1.701208e-03
N -1.409401e-02 -1.799692e+00 4.307516e+00 -7.367473e-04 -2.078090e-03 3.508515e-03
N 2.788299e-02 -1.868266e+00 -5.791366e+00 7.821510e-04 -3.655741e-03 -6.479156e-04
N -6.682077e-03 -1.794017e+00 -7.736242e-01 -1.262179e-03 -1.370719e-03 3.037394e-03
N -3.282256e-02 1.761930e+00 1.765084e+00 6.749914e-04 3.584725e-03 4.231151e-04
N -3.215524e-02 1.773738e+00 6.784293e+00 1.085456e-03 2.506697e-03 -5.758384e-04
N -3.172793e-02 1.742851e+00 -3.255220e+00 3.507463e-04 2.114393e-03 -1.008798e-03
N 3.131568e+00 -3.647173e+00 1.762268e+00 8.530921e-04 8.778317e-04 1.290456e-03
N 3.129394e+00 -3.641367e+00 6.795605e+00 1.024774e-03 2.298456e-03 5.270673e-04
N 3.133371e+00 -3.671431e+00 -3.267607e+00 1.444086e-03 2.822955e-03 -1.327899e-04
N 1.555908e+00 -9.356544e-01 1.774334e+00 -5.657782e-04 -1.447394e-04 -2.214390e-03
N 1.560447e+00 -9.275360e-01 6.792886e+00 5.320617e-04 3.250811e-04 -3.322637e-04
N 1.560858e+00 -9.569783e-01 -3.267074e+00 5.428942e-04 9.922329e-05 -9.988908e-04
N 3.098831e+00 1.775019e+00 1.756615e+00 -3.908378e-04 1.005406e-04 4.649772e-03
N 3.101193e+00 1.777932e+00 6.794690e+00 -3.177780e-04 3.145847e-04 1.076594e-03
N 3.102605e+00 1.746909e+00 -3.269439e+00 -6.333367e-05 -1.783667e-04 4.927559e-04
N 6.258842e+00 -3.639716e+00 1.762084e+00 -7.854074e-04 -1.000258e-03 3.146563e-03
N 6.259688e+00 -3.635843e+00 6.790997e+00 -3.150957e-05 1.060772e-04 9.738919e-04
N 6.261300e+00 -3.663395e+00 -3.265930e+00 -3.480038e-04 1.124436e-03 2.337414e-04
N 4.690255e+00 -9.250892e-01 1.765413e+00 -1.193454e-03 -2.550912e-03 1.888679e-03
N 4.688836e+00 -9.212712e-01 6.785689e+00 -1.436627e-03 -1.391383e-03 -4.136364e-04
N 4.693848e+00 -9.523195e-01 -3.257265e+00 -9.269442e-04 -1.737122e-03 -4.303879e-04
N -3.163863e+00 1.780420e+00 1.757729e+00 -1.636433e-03 6.271202e-04 5.414050e-03
N -3.169441e+00 1.786224e+00 6.790037e+00 -2.010894e-03 3.429561e-04 9.504971e-04
N -3.163407e+00 1.753234e+00 -3.266863e+00 -1.624924e-03 -3.952546e-04 2.009823e-04
N -1.417282e-02 -3.614679e+00 1.960495e+00 2.520255e-03 -1.004014e-02 -3.349738e-02
N -6.030999e-03 -3.630142e+00 6.785933e+00 -1.091419e-03 -3.141829e-04 1.433046e-03
N -3.260363e-03 -3.657776e+00 -3.261245e+00 -1.046088e-03 3.418869e-04 2.016936e-03
N -1.578372e+00 -9.216985e-01 1.773386e+00 -1.599899e-03 -1.632197e-03 -9.752959e-04
N -1.580474e+00 -9.139579e-01 6.799544e+00 -2.257124e-03 -1.736899e-03 7.525678e-04
N -1.577594e+00 -9.422333e-01 -3.212562e+00 -2.962668e-03 -2.298537e-03 2.353323e-03
