108
Energy=-2.816990e+06 Lattice="9.700507e+00 0.000000e+00 0.000000e+00 -4.857636e+00 8.390044e+00 0.000000e+00 -5.911371e-02 -2.079909e-02 1.574921e+01" Stress="-6.199557e-05 9.494818e-05 -1.797905e-03 8.869486e-05 7.397723e-04 -4.568736e-04 -1.784382e-03 -4.409712e-04 1.454660e-03" Properties=species:S:1:pos:R:3:forces:R:3 Config_type=AlGaN_super3_52_1_7.xyz
Al 1.554125e+00 8.595132e-01 2.480930e+00 6.728458e-04 7.531837e-05 8.564335e-04
Ga 1.550826e+00 8.848439e-01 7.723191e+00 9.138933e-04 -1.150481e-03 6.184867e-04
Ga 1.616770e+00 9.113737e-01 -2.775538e+00 9.135484e-04 -8.398990e-04 9.968222e-04
Ga -5.573441e-02 3.649117e+00 2.483807e+00 -2.735214e-04 1.065212e-03 -7.528126e-04
Al -5.880764e-02 3.669931e+00 7.720867e+00 4.208678e-04 -2.739253e-04 9.335984e-04
Ga 2.209570e-03 3.704552e+00 -2.771663e+00 3.392537e-04 -1.540846e-04 1.741926e-03
Ga 3.174667e+00 -1.931604e+00 2.488009e+00 3.818140e-04 -6.333624e-04 -6.164350e-04
Ga 3.186408e+00 -1.927470e+00 7.722973e+00 2.586104e-04 -4.376756e-04 6.138143e-04
Ga 3.244177e+00 -1.886572e+00 -2.777755e+00 3.165645e-04 -7.396194e-04 6.660213e-04
Ga -4.923704e+00 8.600584e-01 2.483713e+00 7.301590e-04 -6.195840e-04 -1.064455e-03
Ga -4.913836e+00 8.803928e-01 7.726456e+00 5.542380e-04 -7.872839e-04 3.918815e-05
Ga -4.851766e+00 9.159410e-01 -2.772115e+00 2.767800e-04 -9.516221e-04 -7.106318e-05
Ga -6.536118e+00 3.649652e+00 2.486662e+00 -1.581279e-04 3.080535e-04 -5.992274e-04
Ga -6.536930e+00 3.672742e+00 7.724684e+00 2.004757e-04 -2.188021e-05 1.678206e-04
Ga -6.466711e+00 3.709289e+00 -2.774911e+00 -2.344772e-04 -3.814138e-04 3.530339e-04
Ga -3.288333e+00 -1.935849e+00 2.489928e+00 9.499600e-05 -2.799925e-04 -8.985119e-04
Ga -3.290172e+00 -1.924684e+00 7.727251e+00 4.808784e-04 -5.546980e-04 3.854117e-04
Ga -3.223738e+00 -1.884173e+00 -2.780800e+00 1.205954e-05 -8.308185e-04 1.809554e-04
Ga -1.670276e+00 8.692060e-01 2.476068e+00 1.337133e-03 -7.499055e-04 6.851702e-04
Ga -1.676388e+00 8.920160e-01 7.725619e+00 1.676073e-03 -1.305223e-03 -4.579334e-04
Ga -1.618755e+00 9.188973e-01 -2.777964e+00 1.231129e-03 -1.130412e-03 -6.055524e-04
Ga -3.299882e+00 3.660082e+00 2.490466e+00 8.942460e-04 9.912198e-05 -1.219122e-03
Ga -3.288744e+00 3.677101e+00 7.728429e+00 7.108913e-04 -6.932326e-05 -2.169235e-04
Ga -3.233441e+00 3.714074e+00 -2.778479e+00 6.471890e-04 -4.884978e-04 -2.446565e-04
Ga -5.470797e-02 -1.924666e+00 2.484417e+00 1.173964e-03 -5.688654e-04 -9.694903e-04
Ga -5.416170e-02 -1.913542e+00 7.725112e+00 9.434449e-04 -8.114214e-04 3.975532e-04
Ga 8.950591e-03 -1.878450e+00 -2.773308e+00 7.771458e-04 -9.710985e-04 2.497657e-04
Ga -5.210155e-02 1.800718e+00 5.098949e+00 -8.690217e-04 -1.079520e-04 1.268161e-03
Ga 4.050198e-03 1.839853e+00 -5.411919e+00 -1.124993e-03 9.876376e-04 9.111456e-04
Ga 1.771280e-03 1.836253e+00 -1.401180e-01 -3.580399e-04 2.027392e-03 1.723687e-03
Ga 3.188888e+00 -3.797688e+00 5.117863e+00 -1.347355e-03 3.688079e-04 -6.037907e-05
Ga 3.252762e+00 -3.763025e+00 -5.411625e+00 -6.937775e-04 1.471361e-04 4.500739e-04
Ga 3.246011e+00 -3.738745e+00 -1.465105e-01 -2.045821e-03 -2.155083e-03 2.059063e-03
Ga 1.568017e+00 -9.929364e-01 5.096569e+00 -1.593122e-03 1.487210e-03 -1.869159e-04
Ga 1.630514e+00 -9.643422e-01 -5.399242e+00 -1.462654e-03 9.278435e-04 -1.718191e-04
Ga 1.635001e+00 -9.415396e-01 -1.337143e-01 -3.206379e-03 -1.206778e-03 8.235173e-04
Ga 3.165632e+00 1.796950e+00 5.092524e+00 -4.658483e-04 3.016152e-04 1.037796e-03
Ga 3.233217e+00 1.835152e+00 -5.400413e+00 -3.443353e-04 5.465032e-04 7.111233e-04
Ga 3.231308e+00 1.854428e+00 -1.358053e-01 -2.644275e-03 -2.027734e-03 1.424245e-03
Ga 6.407884e+00 -3.794292e+00 5.117306e+00 3.683225e-04 2.897449e-04 3.268970e-04
Ga 6.468932e+00 -3.761450e+00 -5.412023e+00 -3.941976e-04 -2.762806e-05 7.362312e-04
Ga 6.478273e+00 -3.736824e+00 -1.449213e-01 -2.582500e-03 -2.430458e-03 1.236534e-03
Ga 4.798536e+00 -9.962329e-01 5.108285e+00 -7.056946e-04 7.735513e-04 7.078057e-05
Ga 4.859774e+00 -9.607850e-01 -5.398464e+00 -7.326948e-04 7.228409e-04 -1.081944e-04
Ga 4.863972e+00 -9.420999e-01 -1.480803e-01 -2.545448e-03 -1.802759e-03 1.457574e-03
Ga -3.295676e+00 1.803844e+00 5.102821e+00 -6.227011e-04 1.077566e-04 8.583299e-04
Ga -3.234853e+00 1.838726e+00 -5.401942e+00 -7.684435e-04 4.290584e-04 7.938394e-04
Ga -3.231958e+00 1.860478e+00 -1.540693e-01 -3.072045e-03 -1.540011e-03 2.896195e-03
Ga -5.476645e-02 -3.787777e+00 5.106001e+00 -6.463154e-04 3.339398e-05 4.528335e-04
Ga 7.172650e-03 -3.752432e+00 -5.400731e+00 -6.561283e-04 -8.369234e-05 4.977424e-04
Ga 1.142406e-02 -3.733010e+00 -1.482493e-01 -2.769449e-03 -2.417039e-03 1.534718e-03
Ga -1.669109e+00 -9.918125e-01 5.106247e+00 -1.135517e-03 8.481748e-04 7.778705e-05
Ga -1.606169e+00 -9.578824e-01 -5.401247e+00 -1.263388e-03 7.076144e-04 2.596556e-04
Ga -1.606984e+00 -9.395013e-01 -1.518407e-01 -2.991536e-03 -2.451757e-03 2.123829e-03
N 1.552172e+00 8.699533e-01 4.414447e+00 8.403530e-04 -9.817963e-04 -2.046978e-03
N 1.615632e+00 9.036083e-01 -6.041540e+00 1.068626e-03 -7.912010e-04 -3.208597e-04
N 1.617703e+00 9.182191e-01 -7.881628e-01 4.941195e-04 -5.068139e-04 -1.165710e-03
N -6.038455e-02 3.665299e+00 4.464723e+00 4.636670e-04 -2.470914e-06 -4.106452e-04
N 1.300277e-03 3.698251e+00 -6.096889e+00 3.595186e-04 -3.310677e-04 -1.759289e-03
N 1.247015e-03 3.711496e+00 -7.780601e-01 1.197427e-04 -9.811911e-04 -1.929313e-03
N 3.180492e+00 -1.930995e+00 4.471552e+00 8.175418e-04 -4.959004e-04 5.578983e-05
N 3.242554e+00 -1.892867e+00 -6.041739e+00 5.558386e-04 -4.676283e-04 -1.928882e-04
N 3.243466e+00 -1.873399e+00 -7.914555e-01 -4.361152e-05 -1.019374e-03 1.063165e-03
N -4.914180e+00 8.699847e-01 4.465289e+00 1.015822e-03 -3.681509e-04 -3.225903e-04
N -4.852990e+00 9.062600e-01 -6.039219e+00 7.980657e-04 -5.210325e-04 -4.203275e-04
N -4.852891e+00 9.262654e-01 -7.875379e-01 2.406561e-04 -7.743964e-04 8.104932e-04
N -6.531887e+00 3.668315e+00 4.471917e+00 3.838970e-04 2.165826e-04 -5.180272e-04
N -6.467055e+00 3.700972e+00 -6.039920e+00 3.307829e-04 -8.410833e-06 -4.831854e-04
N -6.465406e+00 3.718571e+00 -7.869050e-01 2.814761e-05 -4.309826e-04 2.760642e-04
N -3.287853e+00 -1.927853e+00 4.473183e+00 6.953039e-04 -3.928264e-04 -2.575290e-04
N -3.226176e+00 -1.890424e+00 -6.038447e+00 5.710980e-04 -3.402907e-04 -1.943649e-04
N -3.224071e+00 -1.873367e+00 -7.970928e-01 -4.618780e-05 -7.599664e-04 8.216550e-04
N -1.680653e+00 8.762502e-01 4.464830e+00 1.632907e-03 -7.269991e-04 -4.049329e-04
N -1.621220e+00 9.106088e-01 -6.040703e+00 1.464546e-03 -9.514666e-04 -1.819875e-04
N -1.620888e+00 9.257872e-01 -7.937425e-01 8.032093e-04 -1.024349e-03 1.239608e-03
N -3.296485e+00 3.671569e+00 4.473220e+00 1.139208e-03 -3.930881e-05 -2.330260e-04
N -3.236086e+00 3.705514e+00 -6.038426e+00 8.271796e-04 -2.670224e-04 -1.724997e-04
N -3.233418e+00 3.725427e+00 -7.953835e-01 3.411374e-04 -7.216387e-04 8.282667e-04
N -5.772958e-02 -1.921852e+00 4.465893e+00 1.307209e-03 -6.538946e-04 -1.320476e-04
N 5.702777e-03 -1.886617e+00 -6.040413e+00 1.173493e-03 -6.294507e-04 -3.409506e-04
N 1.021272e-02 -1.866329e+00 -7.880603e-01 8.106770e-04 -1.070953e-03 9.638311e-04
N -1.080966e-02 1.773738e+00 1.856743e+00 -3.028982e-04 -1.296135e-03 -5.712850e-04
N -5.408245e-02 1.849266e+00 7.095744e+00 -1.261379e-03 2.100260e-03 -1.075002e-04
N 4.971943e-03 1.841299e+00 -3.421282e+00 -1.007449e-03 6.496913e-04 -9.254866e-04
N 3.178768e+00 -3.806115e+00 1.847863e+00 1.503879e-03 2.708894e-03 -2.395095e-03
N 3.224385e+00 -3.812723e+00 7.107260e+00 2.959723e-04 -2.600188e-04 4.428515e-05
N 3.249687e+00 -3.756011e+00 -3.422018e+00 -7.219278e-04 6.454954e-04 -5.992060e-04
N 1.565468e+00 -9.604032e-01 1.864449e+00 6.699037e-04 3.036991e-03 -1.149451e-03
N 1.569742e+00 -9.901328e-01 7.082020e+00 -1.071321e-03 1.098955e-03 -3.232948e-04
N 1.631332e+00 -9.585578e-01 -3.416501e+00 -1.289901e-03 1.130367e-03 -1.635390e-04
N 3.127493e+00 1.763615e+00 1.862049e+00 1.941792e-03 2.754327e-03 -1.630675e-03
N 3.170463e+00 1.805162e+00 7.080105e+00 -1.177114e-04 4.681297e-04 -8.460580e-04
N 3.234494e+00 1.841918e+00 -3.414888e+00 -3.326380e-04 4.362249e-04 -4.375526e-04
N 6.409689e+00 -3.801747e+00 1.843323e+00 2.980469e-03 2.561214e-03 -1.492296e-03
N 6.373358e+00 -3.808803e+00 7.107869e+00 -1.182495e-03 -4.038478e-04 -2.033469e-04
N 6.473025e+00 -3.754311e+00 -3.421053e+00 -9.763684e-05 3.421388e-04 -7.413674e-04
N 4.794485e+00 -1.011917e+00 1.842135e+00 1.943280e-03 3.417122e-03 -1.462360e-03
N 4.799735e+00 -9.889689e-01 7.088945e+00 -5.964740e-04 6.430690e-04 -3.598581e-04
N 4.860791e+00 -9.541798e-01 -3.414731e+00 -5.746734e-04 9.365887e-04 -1.785304e-04
N -3.300058e+00 1.791056e+00 1.841711e+00 2.446322e-03 2.579689e-03 -2.058611e-03
N -3.295079e+00 1.809736e+00 7.086630e+00 -5.904979e-04 4.910698e-04 -3.983350e-04
N -3.233393e+00 1.844687e+00 -3.416658e+00 -5.801953e-04 4.739886e-04 7.538706e-05
N -5.964201e-02 -3.802245e+00 1.843443e+00 2.169991e-03 2.771956e-03 -1.143228e-03
N -5.404824e-02 -3.783893e+00 7.089400e+00 -2.371189e-04 1.284695e-04 -5.465498e-05
N 7.997293e-03 -3.747309e+00 -3.414976e+00 -4.711467e-04 4.186324e-04 -2.131853e-04
N -1.673931e+00 -1.006919e+00 1.839598e+00 1.749191e-03 3.958235e-03 -1.629936e-03
N -1.669064e+00 -9.862940e-01 7.089300e+00 -1.089300e-03 1.066771e-03 -1.279014e-04
N -1.604785e+00 -9.523706e-01 -3.417073e+00 -9.877014e-04 9.317169e-04 1.470897e-04
