108
Energy=-2084581.793571 Lattice="9.597178 0.000000 0.000000 -4.798518 8.311370 0.000000 0.002654 -0.000099 15.542698" Stress="0.000001 -0.000000 0.000000 -0.000000 0.000002 0.000000 0.000000 0.000000 -0.000003" Properties=species:S:1:pos:R:3:forces:R:3
Al 1.581914 0.898659 2.431141 -0.000116 -0.000143 0.000001
Al 1.588262 0.905332 7.652139 -0.000005 -0.000036 -0.000331
Al 1.586307 0.887550 -2.759543 -0.000212 -0.000063 0.000109
Al -0.014460 3.645249 2.443671 -0.000096 -0.000086 0.000090
Al 0.000955 3.642204 7.651576 -0.000004 -0.000053 -0.000143
Ga -0.003605 3.646739 -2.761177 -0.000015 0.000140 -0.000060
Ga 3.189895 -1.877323 2.437593 -0.000120 -0.000109 -0.000009
Ga 3.185786 -1.871169 7.623543 -0.000014 0.000033 -0.000064
Ga 3.179288 -1.868403 -2.730077 0.000030 -0.000063 0.000068
Ga -4.843677 0.873460 2.429584 0.000036 -0.000070 0.000098
Al -4.841976 0.886411 7.632006 0.000128 0.000068 0.000298
Al -4.840742 0.876006 -2.733471 0.000272 -0.000055 -0.000300
Ga -6.429272 3.638367 2.414414 -0.000133 -0.000130 0.000190
Al -6.436782 3.632466 7.655002 0.000070 -0.000205 0.000003
Ga -6.425617 3.643551 -2.745551 0.000090 0.000187 0.000129
Ga -3.235405 -1.884344 2.456495 -0.000016 -0.000090 0.000063
Ga -3.225171 -1.891552 7.619760 0.000014 0.000092 -0.000028
Al -3.222648 -1.888108 -2.747275 0.000032 -0.000016 -0.000026
Ga -1.605317 0.888814 2.449768 -0.000085 -0.000197 0.000073
Ga -1.611557 0.886876 7.635308 0.000001 -0.000028 0.000097
Ga -1.610394 0.876010 -2.752902 -0.000067 -0.000072 0.000093
Ga -3.222217 3.659732 2.438218 -0.000002 -0.000147 0.000149
Ga -3.225888 3.645767 7.631397 -0.000029 -0.000131 0.000002
Ga -3.234725 3.656639 -2.729314 -0.000059 -0.000031 -0.000071
Ga -0.022093 -1.883514 2.441975 -0.000109 -0.000159 0.000047
Ga -0.026872 -1.879026 7.621451 -0.000088 0.000001 -0.000063
Al -0.026723 -1.884093 -2.727457 -0.000102 -0.000128 -0.000134
Ga -0.010173 1.806142 5.044795 0.000040 0.000114 -0.000133
Al 0.002200 1.814024 -5.340880 -0.000380 0.000285 -0.000029
Ga 0.001172 1.807266 -0.142476 0.000007 0.000016 0.000012
Ga 3.196185 -3.731793 5.040378 0.000003 0.000085 -0.000055
Ga 3.195703 -3.743379 -5.333581 -0.000171 -0.000002 -0.000023
Ga 3.178094 -3.729646 -0.140055 0.000000 0.000050 0.000185
Ga 1.579945 -0.947382 5.032448 -0.000055 0.000046 -0.000063
Ga 1.568655 -0.936545 -5.310744 0.000098 -0.000159 0.000019
Ga 1.578296 -0.950943 -0.163661 0.000063 0.000101 0.000270
Ga 3.175300 1.796395 5.061463 0.000062 0.000089 -0.000096
Al 3.160497 1.811546 -5.335677 0.000812 -0.001678 -0.001610
Al 3.177829 1.796407 -0.172383 -0.000097 -0.000005 -0.000107
Ga 6.372556 -3.730313 5.046619 0.000041 0.000135 -0.000017
Al 6.376389 -3.750469 -5.338555 0.000039 0.000135 -0.000028
Ga 6.380380 -3.725977 -0.152375 -0.000064 -0.000083 0.000164
Al 4.785552 -0.955166 5.052747 0.000081 0.000093 -0.000054
Ga 4.781223 -0.951292 -5.315324 0.000047 0.000266 -0.000136
Al 4.779494 -0.952299 -0.179778 -0.000099 -0.000058 -0.000031
Ga -3.228265 1.785539 5.046339 0.000049 0.000067 -0.000024
Ga -3.237766 1.796786 -5.320513 -0.000236 0.000222 -0.000260
Ga -3.248016 1.802375 -0.161325 0.000037 0.000044 0.000204
Ga -0.037073 -3.730843 5.054023 0.000066 0.000115 -0.000011
Ga -0.046129 -3.738259 -5.323037 0.000205 -0.000086 -0.000058
Al -0.030012 -3.733323 -0.163660 -0.000055 -0.000131 -0.000064
Al -1.632169 -0.961938 5.038332 0.000071 0.000073 -0.000064
Ga -1.626416 -0.970670 -5.299208 0.000040 0.000086 -0.000190
Ga -1.630279 -0.979149 -0.174433 -0.000106 0.000022 0.000341
N 1.585039 0.892102 4.345704 -0.000019 -0.000017 0.000114
N 1.575748 0.930746 -5.970429 0.001239 0.000466 0.000527
N 1.617727 0.913511 -0.837788 -0.000036 0.000021 -0.000117
N -0.016114 3.650819 4.355269 -0.000003 -0.000147 0.000072
N 0.023310 3.628476 -5.967056 -0.000104 -0.000272 0.000187
N -0.018835 3.651941 -0.792277 0.000031 -0.000065 0.000007
N 3.225256 -1.857883 4.428583 -0.000056 -0.000132 0.000052
N 3.174524 -1.878139 -5.944067 -0.000173 -0.000098 0.000030
N 3.215075 -1.863345 -0.755378 0.000012 -0.000055 -0.000087
N -4.830497 0.834801 4.412754 -0.000070 -0.000049 0.000084
N -4.869128 0.903856 -5.992192 -0.001114 0.000753 0.000371
N -4.871583 0.861204 -0.808279 0.000079 0.000062 0.000003
N -6.421677 3.645456 4.394675 -0.000033 -0.000196 0.000028
N -6.465602 3.625491 -5.959548 -0.000245 -0.000130 0.000285
N -6.383799 3.625573 -0.750939 0.000037 0.000019 -0.000221
N -3.226850 -1.838416 4.450500 -0.000069 -0.000160 0.000052
N -3.223783 -1.933890 -5.941772 0.000101 0.000142 -0.000032
N -3.267063 -1.869638 -0.829114 0.000166 0.000002 -0.000033
N -1.615424 0.840554 4.433118 -0.000045 -0.000136 0.000078
N -1.580870 0.904143 -5.920364 0.000139 -0.000167 -0.000020
N -1.615432 0.890626 -0.778388 0.000130 -0.000000 -0.000089
N -3.224144 3.655816 4.420200 -0.000037 -0.000141 0.000012
N -3.225660 3.653906 -5.944131 -0.000027 -0.000241 0.000156
N -3.261910 3.680324 -0.753663 0.000098 -0.000105 -0.000049
N -0.063277 -1.864245 4.427315 0.000011 -0.000173 0.000062
N -0.025449 -1.881591 -5.954283 -0.000053 0.000066 0.000035
N -0.019825 -1.934216 -0.810961 0.000024 0.000086 0.000044
N 0.023567 1.830679 1.844341 0.000005 0.000170 -0.000153
N 0.027251 1.832328 7.035710 0.000040 0.000065 0.000125
N 0.026637 1.781564 -3.420859 0.000096 0.000168 0.000021
N 3.221208 -3.757217 1.840331 -0.000020 0.000129 -0.000300
N 3.229872 -3.761919 7.027662 -0.000042 0.000129 0.000010
N 3.177454 -3.732919 -3.364333 0.000071 0.000041 0.000051
N 1.575625 -0.911460 1.826518 -0.000009 -0.000001 -0.000322
N 1.577724 -0.901435 7.016310 0.000051 0.000109 0.000131
N 1.531090 -0.937346 -3.322769 0.000088 0.000048 -0.000011
N 3.133107 1.776792 1.750114 0.000222 0.000172 0.000152
N 3.172967 1.807062 7.056050 -0.000096 0.000110 0.000014
N 3.179238 1.755512 -3.404249 -0.000277 0.000360 0.000270
N 6.332234 -3.749240 1.828648 0.000100 0.000131 -0.000135
N 6.378134 -3.787331 7.036833 -0.000180 0.000046 -0.000064
N 6.381471 -3.687692 -3.414487 -0.000070 -0.000217 0.000128
N 4.782646 -0.963541 1.736217 0.000124 0.000212 0.000068
N 4.779096 -0.909702 6.969584 -0.000032 -0.000125 0.000046
N 4.820153 -0.935212 -3.334551 -0.000136 0.000042 0.000119
N -3.226188 1.801556 1.816336 -0.000118 0.000087 -0.000263
N -3.265383 1.775485 7.026475 0.000003 0.000195 -0.000017
N -3.271218 1.778913 -3.338815 -0.000086 0.000104 0.000167
N -0.025612 -3.729717 1.753782 0.000086 0.000240 0.000087
N -0.075629 -3.762389 7.033150 0.000203 0.000095 -0.000020
N -0.030106 -3.685654 -3.350326 0.000020 -0.000126 0.000147
N -1.627833 -0.966488 1.803407 0.000020 0.000053 -0.000387
N -1.625358 -0.959417 6.948427 0.000036 -0.000028 0.000081
N -1.622060 -1.016030 -3.318989 0.000023 0.000107 0.000081
