108
Energy=-6.655372e+05 Lattice="9.476278e+00 0.000000e+00 0.000000e+00 -4.738139e+00 8.206697e+00 0.000000e+00 9.377101e-16 1.624162e-15 1.531397e+01" Stress="1.266771e-02 5.170925e-03 -8.514405e-05 5.156388e-03 1.829037e-02 -3.560452e-04 -8.438286e-05 -3.517574e-04 2.444982e-02" Properties=species:S:1:pos:R:3:forces:R:3 Config_type=AlGaN_super3_5_1_0.xyz
Al 1.564294e+00 9.031460e-01 2.504900e+00 -1.171957e-03 -1.421753e-02 -1.168516e-02
Al 1.564294e+00 9.031460e-01 7.521855e+00 -1.200467e-03 -1.442911e-02 -7.043972e-03
Al 1.564294e+00 9.031460e-01 -2.775158e+00 -1.284459e-03 -1.414923e-02 -5.173576e-03
Al 2.938992e-08 3.612582e+00 2.504900e+00 -2.753388e-03 -1.142956e-03 -1.064189e-02
Al 2.938992e-08 3.612582e+00 7.521855e+00 -2.848834e-03 -1.283597e-03 -4.924556e-03
Al 2.938992e-08 3.612582e+00 -2.775158e+00 -2.651753e-03 -1.552720e-03 -4.357179e-03
Al 3.173845e+00 -1.884678e+00 2.504900e+00 -2.958916e-03 1.648847e-03 -1.194441e-02
Al 3.173845e+00 -1.884678e+00 7.521855e+00 -3.149926e-03 1.652509e-03 -6.075165e-03
Al 3.173845e+00 -1.884678e+00 -2.775158e+00 -2.996806e-03 1.871169e-03 -4.951037e-03
Al -4.783396e+00 9.031460e-01 2.504900e+00 1.359107e-03 -1.310339e-02 -1.044809e-02
Al -4.783396e+00 9.031460e-01 7.521855e+00 1.289775e-03 -1.292073e-02 -5.640653e-03
Al -4.783396e+00 9.031460e-01 -2.775158e+00 1.125596e-03 -1.308454e-02 -4.413566e-03
Al -6.347690e+00 3.612582e+00 2.504900e+00 -2.207010e-04 1.349250e-04 -9.323119e-03
Al -6.347690e+00 3.612582e+00 7.521855e+00 -3.726273e-04 -1.715337e-04 -3.930323e-03
Al -6.347690e+00 3.612582e+00 -2.775158e+00 -4.773713e-04 -1.325234e-04 -2.706785e-03
Al -3.173845e+00 -1.884678e+00 2.504900e+00 -3.734126e-04 2.907449e-03 -1.071727e-02
Al -3.173845e+00 -1.884678e+00 7.521855e+00 -4.961438e-04 2.949180e-03 -5.011931e-03
Al -3.173845e+00 -1.884678e+00 -2.775158e+00 -4.202988e-04 3.112390e-03 -3.798225e-03
Al -1.654808e+00 9.031460e-01 2.504900e+00 1.367398e-02 -7.897581e-03 -1.166199e-02
Al -1.654808e+00 9.031460e-01 7.521855e+00 1.365216e-02 -7.830163e-03 -7.634550e-03
Al -1.654808e+00 9.031460e-01 -2.775158e+00 1.379387e-02 -8.032922e-03 -6.269196e-03
Al -3.219102e+00 3.612582e+00 2.504900e+00 1.202117e-02 5.378885e-03 -1.042198e-02
Al -3.219102e+00 3.612582e+00 7.521855e+00 1.212139e-02 5.173190e-03 -5.213064e-03
Ga -3.219102e+00 3.612582e+00 -2.775158e+00 1.497027e-02 7.884104e-03 -5.570927e-03
Al -4.525702e-02 -1.884678e+00 2.504900e+00 1.171785e-02 8.053638e-03 -1.147868e-02
Ga -4.525702e-02 -1.884678e+00 7.521855e+00 1.496257e-02 1.092420e-02 -7.868923e-03
Al -4.525702e-02 -1.884678e+00 -2.775158e+00 1.184002e-02 8.443175e-03 -4.896604e-03
Al 1.469567e-08 1.806291e+00 5.013378e+00 -1.172445e-02 -8.232895e-03 -6.564628e-03
Al 1.469567e-08 1.806291e+00 -5.283635e+00 -1.210153e-02 -7.999004e-03 -6.005971e-03
Al 1.469567e-08 1.806291e+00 -2.666800e-01 -1.181786e-02 -8.318957e-03 3.286312e-02
Al 3.173845e+00 -3.690969e+00 5.013378e+00 -1.198757e-02 -5.373146e-03 -5.364589e-03
Al 3.173845e+00 -3.690969e+00 -5.283635e+00 -1.231378e-02 -5.751872e-03 -5.189601e-03
Al 3.173845e+00 -3.690969e+00 -2.666800e-01 -1.209223e-02 -5.365901e-03 3.441632e-02
Al 1.609551e+00 -9.815320e-01 5.013378e+00 -1.382308e-02 7.778656e-03 -7.277074e-03
Ga 1.609551e+00 -9.815320e-01 -5.283635e+00 -1.592108e-02 9.012421e-03 -8.783875e-03
Al 1.609551e+00 -9.815320e-01 -2.666800e-01 -1.367632e-02 7.898310e-03 3.210654e-02
Al 3.128588e+00 1.806291e+00 5.013378e+00 3.592617e-04 -3.062818e-03 -4.681663e-03
Ga 3.128588e+00 1.806291e+00 -5.283635e+00 6.121269e-04 -2.852308e-03 -3.587257e-03
Al 3.128588e+00 1.806291e+00 -2.666800e-01 3.528837e-04 -3.250242e-03 3.492761e-02
Al 6.302433e+00 -3.690969e+00 5.013378e+00 2.155004e-04 -1.157904e-04 -3.720612e-03
Al 6.302433e+00 -3.690969e+00 -5.283635e+00 -5.304890e-05 -2.916748e-04 -3.207471e-03
Al 6.302433e+00 -3.690969e+00 -2.666800e-01 1.524988e-04 -6.665325e-05 3.592924e-02
Al 4.738139e+00 -9.815320e-01 5.013378e+00 -1.324084e-03 1.306373e-02 -5.502345e-03
Al 4.738139e+00 -9.815320e-01 -5.283635e+00 -1.348575e-03 1.314166e-02 -5.109109e-03
Al 4.738139e+00 -9.815320e-01 -2.666800e-01 -1.372738e-03 1.308344e-02 3.399290e-02
Al -3.219102e+00 1.806291e+00 5.013378e+00 3.025923e-03 -1.752232e-03 -5.885578e-03
Al -3.219102e+00 1.806291e+00 -5.283635e+00 2.966700e-03 -1.364713e-03 -5.684200e-03
Al -3.219102e+00 1.806291e+00 -2.666800e-01 3.207731e-03 -1.986809e-03 3.430361e-02
Al -4.525703e-02 -3.690969e+00 5.013378e+00 2.841499e-03 1.394520e-03 -5.053659e-03
Al -4.525703e-02 -3.690969e+00 -5.283635e+00 3.364316e-03 4.507374e-04 -3.959806e-03
Al -4.525703e-02 -3.690969e+00 -2.666800e-01 2.876629e-03 1.393784e-03 3.541099e-02
Al -1.609551e+00 -9.815320e-01 5.013378e+00 1.430852e-03 1.422128e-02 -6.640071e-03
Ga -1.609551e+00 -9.815320e-01 -5.283635e+00 1.637172e-03 1.844380e-02 -6.176597e-03
Al -1.609551e+00 -9.815320e-01 -2.666800e-01 1.288445e-03 1.437694e-02 3.305761e-02
N 1.564294e+00 9.031460e-01 4.418497e+00 -6.433723e-04 -1.347747e-02 6.215701e-03
N 1.564294e+00 9.031460e-01 -5.878516e+00 -2.036568e-02 -7.313698e-03 -7.907305e-03
N 1.564294e+00 9.031460e-01 -8.615610e-01 -4.624011e-04 -1.348821e-02 7.059677e-03
N 2.938992e-08 3.612582e+00 4.418497e+00 -2.071324e-03 2.696455e-05 3.846788e-03
N 2.938992e-08 3.612582e+00 -5.878516e+00 -1.648307e-03 7.806227e-05 3.461957e-03
N 2.938992e-08 3.612582e+00 -8.615610e-01 -2.043891e-03 8.413769e-05 4.863021e-03
N 3.173845e+00 -1.884678e+00 4.418497e+00 -2.379711e-03 1.410209e-03 3.261968e-03
N 3.173845e+00 -1.884678e+00 -5.878516e+00 1.615426e-02 -9.167482e-03 -4.737119e-03
N 3.173845e+00 -1.884678e+00 -8.615610e-01 -2.491738e-03 1.321587e-03 4.381060e-03
N -4.783396e+00 9.031460e-01 4.418497e+00 9.241510e-04 -1.342302e-02 6.878310e-03
N -4.783396e+00 9.031460e-01 -5.878516e+00 1.988831e-02 -2.472533e-02 -1.555777e-03
N -4.783396e+00 9.031460e-01 -8.615610e-01 9.403056e-04 -1.317746e-02 7.267080e-03
N -6.347690e+00 3.612582e+00 4.418497e+00 -5.469112e-04 2.275370e-04 4.182575e-03
N -6.347690e+00 3.612582e+00 -5.878516e+00 -6.034062e-04 2.299703e-02 -4.191881e-03
N -6.347690e+00 3.612582e+00 -8.615610e-01 -3.271504e-04 2.681822e-04 5.238007e-03
N -3.173845e+00 -1.884678e+00 4.418497e+00 -1.190686e-03 1.745443e-03 3.677901e-03
N -3.173845e+00 -1.884678e+00 -5.878516e+00 -1.997156e-02 -9.242356e-03 -4.522180e-03
N -3.173845e+00 -1.884678e+00 -8.615610e-01 -1.011074e-03 1.659222e-03 4.895435e-03
N -1.654808e+00 9.031460e-01 4.418497e+00 1.343672e-02 -7.694960e-03 9.132603e-03
N -1.654808e+00 9.031460e-01 -5.878516e+00 1.337751e-02 9.615182e-03 2.701915e-03
N -1.654808e+00 9.031460e-01 -8.615610e-01 1.339188e-02 -7.649046e-03 9.467262e-03
N -3.219102e+00 3.612582e+00 4.418497e+00 1.209750e-02 5.842497e-03 6.635627e-03
N -3.219102e+00 3.612582e+00 -5.878516e+00 1.186446e-02 6.262891e-03 5.424498e-03
N -3.219102e+00 3.612582e+00 -8.615610e-01 1.216719e-02 5.946791e-03 3.091128e-02
N -4.525702e-02 -1.884678e+00 4.418497e+00 1.138717e-02 7.266346e-03 5.285858e-03
N -4.525702e-02 -1.884678e+00 -5.878516e+00 1.475501e-02 -1.130684e-02 1.511768e-02
N -4.525702e-02 -1.884678e+00 -8.615610e-01 1.146060e-02 7.057722e-03 6.899983e-03
N 1.469567e-08 1.806291e+00 1.910020e+00 -1.167271e-02 -7.690044e-03 -2.881491e-02
N 1.469567e-08 1.806291e+00 6.926975e+00 -1.151538e-02 -7.357620e-03 5.988282e-03
N 1.469567e-08 1.806291e+00 -3.370038e+00 -1.144195e-02 -7.380483e-03 5.570916e-03
N 3.173845e+00 -3.690969e+00 1.910020e+00 -1.229246e-02 -5.988255e-03 -2.805523e-02
N 3.173845e+00 -3.690969e+00 6.926975e+00 -1.211612e-02 -5.937164e-03 6.496198e-03
N 3.173845e+00 -3.690969e+00 -3.370038e+00 3.632066e-03 2.686567e-03 -1.551079e-04
N 1.609551e+00 -9.815320e-01 1.910020e+00 -1.394878e-02 8.115036e-03 -2.564276e-02
N 1.609551e+00 -9.815320e-01 6.926975e+00 2.104669e-03 1.633097e-02 1.749614e-03
N 1.609551e+00 -9.815320e-01 -3.370038e+00 -1.379639e-02 7.927579e-03 3.199165e-02
N 3.128588e+00 1.806291e+00 1.910020e+00 9.833025e-04 -1.950054e-03 -3.146299e-02
N 3.128588e+00 1.806291e+00 6.926975e+00 1.198667e-03 -1.685281e-03 3.033289e-03
N 3.128588e+00 1.806291e+00 -3.370038e+00 1.127233e-03 -1.776809e-03 2.704720e-02
N 6.302433e+00 -3.690969e+00 1.910020e+00 5.292231e-04 -2.677052e-04 -3.065863e-02
N 6.302433e+00 -3.690969e+00 6.926975e+00 5.798055e-04 -1.684314e-04 3.949368e-03
N 6.302433e+00 -3.690969e+00 -3.370038e+00 5.883684e-04 -1.120556e-04 3.495706e-03
N 4.738139e+00 -9.815320e-01 1.910020e+00 -9.285429e-04 1.370934e-02 -2.819829e-02
N 4.738139e+00 -9.815320e-01 6.926975e+00 -8.069802e-04 1.349717e-02 6.120899e-03
N 4.738139e+00 -9.815320e-01 -3.370038e+00 -8.058766e-04 1.335875e-02 5.972112e-03
N -3.219102e+00 1.806291e+00 1.910020e+00 2.789974e-03 -1.583304e-03 -3.201917e-02
N -3.219102e+00 1.806291e+00 6.926975e+00 2.442948e-03 -1.467217e-03 3.097961e-03
N -3.219102e+00 1.806291e+00 -3.370038e+00 2.599653e-03 -2.344567e-02 -5.237717e-03
N -4.525703e-02 -3.690969e+00 1.910020e+00 2.214013e-03 1.069300e-04 -3.139434e-02
N -4.525703e-02 -3.690969e+00 6.926975e+00 2.209461e-03 -2.209459e-02 -4.577125e-03
N -4.525703e-02 -3.690969e+00 -3.370038e+00 -1.694425e-02 1.114575e-02 -4.800992e-03
N -1.609551e+00 -9.815320e-01 1.910020e+00 8.002612e-04 1.401865e-02 -2.882467e-02
N -1.609551e+00 -9.815320e-01 6.926975e+00 -1.822278e-02 2.453089e-02 -2.559179e-03
N -1.609551e+00 -9.815320e-01 -3.370038e+00 6.788514e-04 1.367372e-02 2.918500e-02
