108
Energy=-2.084582e+06 Lattice="9.595883e+00 0.000000e+00 0.000000e+00 -4.798949e+00 8.310355e+00 0.000000e+00 1.349718e-03 8.380126e-04 1.554747e+01" Stress="3.500832e-06 9.182717e-06 -2.789508e-05 -5.637431e-06 2.904702e-06 -1.023196e-06 6.176302e-06 1.693843e-05 2.705829e-06" Properties=species:S:1:pos:R:3:forces:R:3 Config_type=AlGaN_super3_36_1_14.xyz
Al 1.588995e+00 8.859738e-01 2.456163e+00 -1.496595e-06 -7.974993e-06 -1.818308e-05
Al 1.580463e+00 8.821041e-01 7.620347e+00 -1.328956e-05 -1.038923e-06 -1.541412e-05
Ga 1.557696e+00 8.750278e-01 -2.752543e+00 -9.773507e-06 9.983171e-06 3.327324e-06
Al -2.907424e-02 3.654248e+00 2.455623e+00 1.431701e-05 5.057327e-06 8.091515e-06
Al -8.310306e-03 3.645274e+00 7.631363e+00 7.211902e-06 5.219515e-06 8.254786e-07
Ga -3.289132e-02 3.639270e+00 -2.754171e+00 -1.615842e-05 -8.732328e-06 -6.909766e-06
Al 3.165120e+00 -1.893236e+00 2.460436e+00 -1.461369e-05 1.610475e-05 9.627780e-06
Ga 3.165374e+00 -1.873081e+00 7.620225e+00 -3.911545e-06 1.403822e-05 1.112319e-05
Ga 3.153253e+00 -1.892301e+00 -2.748336e+00 -2.226345e-05 3.155837e-06 1.997143e-05
Ga -4.832735e+00 8.984971e-01 2.430644e+00 -2.587527e-05 1.503692e-05 8.718577e-06
Al -4.835215e+00 8.884706e-01 7.612469e+00 4.992372e-06 -6.924842e-06 -6.115368e-07
Ga -4.810798e+00 8.968757e-01 -2.708581e+00 -2.922877e-07 1.896811e-05 2.010380e-05
Ga -6.431150e+00 3.633687e+00 2.461503e+00 -1.725820e-05 -1.136463e-05 2.914184e-05
Ga -6.438825e+00 3.638128e+00 7.610714e+00 -1.334990e-05 -1.168900e-05 1.691857e-05
Ga -6.416523e+00 3.657195e+00 -2.738718e+00 1.022890e-05 -1.034601e-05 1.963681e-05
Ga -3.231270e+00 -1.898244e+00 2.460923e+00 -1.210224e-05 -1.068585e-05 3.243671e-05
Ga -3.231790e+00 -1.899653e+00 7.629138e+00 -1.107120e-05 3.510168e-06 2.676208e-05
Ga -3.211671e+00 -1.888312e+00 -2.748848e+00 -1.818023e-06 9.399159e-06 1.982841e-05
Ga -1.617336e+00 9.056232e-01 2.439433e+00 -1.346747e-05 6.796886e-06 3.252274e-05
Ga -1.614935e+00 8.986470e-01 7.636294e+00 -2.249321e-05 4.519109e-06 4.328799e-05
Al -1.616836e+00 8.943152e-01 -2.742543e+00 -1.290859e-05 1.097675e-05 4.626360e-06
Al -3.206034e+00 3.653369e+00 2.433943e+00 -1.382473e-05 8.874870e-06 -3.763671e-06
Ga -3.217417e+00 3.646243e+00 7.630337e+00 -1.224854e-05 -2.393330e-05 1.327884e-05
Al -3.220751e+00 3.649117e+00 -2.728437e+00 6.673667e-06 -1.017769e-06 8.654357e-07
Ga 3.851900e-04 -1.882418e+00 2.454544e+00 -1.997853e-05 5.593687e-06 1.965027e-05
Ga -3.899692e-03 -1.872431e+00 7.628006e+00 -2.942783e-05 5.577380e-06 4.642339e-06
Al -1.371708e-02 -1.882126e+00 -2.745128e+00 6.146212e-06 1.511888e-05 -1.556185e-07
Ga 1.001987e-02 1.814427e+00 5.034715e+00 3.268912e-05 -4.311003e-06 1.308937e-05
Al -1.041625e-02 1.806552e+00 -5.349482e+00 -4.047086e-07 -1.702337e-05 -1.030651e-05
Ga -1.819489e-02 1.804721e+00 -1.308848e-01 2.374616e-05 1.001980e-05 6.807042e-06
Ga 3.186253e+00 -3.731010e+00 5.020188e+00 1.524882e-05 4.079010e-06 1.896487e-05
Ga 3.187779e+00 -3.738393e+00 -5.334379e+00 -1.151518e-06 -5.254259e-06 2.804001e-05
Ga 3.168446e+00 -3.744196e+00 -1.262832e-01 2.762532e-05 -1.679433e-06 1.285529e-05
Al 1.588792e+00 -9.431252e-01 5.020959e+00 5.597692e-06 -3.871252e-06 -6.759611e-06
Al 1.565290e+00 -9.486424e-01 -5.330431e+00 -5.034296e-06 -1.413202e-05 -9.926409e-06
Ga 1.580803e+00 -9.519036e-01 -1.315713e-01 2.184523e-05 -8.110059e-06 1.031616e-05
Al 3.159665e+00 1.795870e+00 5.048548e+00 1.918043e-05 -1.307957e-05 -1.837418e-05
Ga 3.157361e+00 1.798115e+00 -5.356726e+00 -3.845766e-06 -1.313237e-05 -8.375461e-06
Al 3.176249e+00 1.805510e+00 -1.362518e-01 -6.081565e-06 4.647106e-07 1.309081e-05
Al 6.366619e+00 -3.749970e+00 5.037458e+00 1.213445e-08 1.714412e-06 -1.274592e-05
Al 6.364654e+00 -3.747618e+00 -5.341711e+00 1.277134e-05 -5.095564e-06 -8.481819e-07
Ga 6.377066e+00 -3.745465e+00 -1.300239e-01 -8.353660e-06 -5.105158e-07 4.385055e-05
Ga 4.761127e+00 -9.588002e-01 5.033527e+00 5.502098e-06 -5.771796e-06 1.955851e-05
Ga 4.767197e+00 -9.589271e-01 -5.341997e+00 -1.248146e-06 -1.739539e-05 3.226472e-05
Ga 4.771001e+00 -9.525490e-01 -1.277032e-01 4.543051e-06 -1.612066e-05 6.884330e-05
Ga -3.235374e+00 1.811979e+00 5.037282e+00 8.433316e-06 -6.787003e-06 -1.421600e-05
Ga -3.220266e+00 1.803948e+00 -5.312813e+00 2.154925e-05 7.603838e-06 -7.750290e-06
Al -3.219785e+00 1.816987e+00 -1.597908e-01 3.264178e-06 6.522309e-06 1.735587e-05
Ga -2.541475e-02 -3.738029e+00 5.022255e+00 1.974986e-05 -8.136440e-06 2.600303e-05
Ga -2.594706e-02 -3.723748e+00 -5.309177e+00 1.232059e-05 1.469717e-06 2.828873e-05
Ga -1.444678e-02 -3.747285e+00 -1.527161e-01 2.658891e-05 -9.035256e-06 2.043589e-05
Ga -1.616889e+00 -9.695811e-01 5.045648e+00 2.459644e-05 -4.190915e-06 2.697141e-05
Ga -1.609072e+00 -9.588813e-01 -5.311102e+00 2.994043e-05 -2.949636e-05 3.609974e-05
Ga -1.617481e+00 -9.509619e-01 -1.690869e-01 7.157667e-06 -3.133289e-06 3.454052e-05
N 1.624448e+00 8.638944e-01 4.382637e+00 -3.281312e-05 1.010966e-05 2.030813e-05
N 1.531803e+00 8.532573e-01 -5.993290e+00 1.357409e-05 4.519729e-06 2.362865e-05
N 1.615757e+00 9.076646e-01 -7.710701e-01 -1.854427e-05 -8.046513e-06 -1.790777e-05
N 1.794815e-02 3.675512e+00 4.368469e+00 -2.029738e-05 -1.355535e-05 3.137812e-06
N 1.986443e-02 3.627772e+00 -5.983377e+00 -2.457514e-05 1.113907e-05 3.526660e-06
N -2.437666e-02 3.650838e+00 -7.800749e-01 -1.863310e-06 -1.532440e-06 -9.869610e-06
N 3.132870e+00 -1.864532e+00 4.379560e+00 1.344714e-05 -2.597121e-06 1.087858e-06
N 3.124235e+00 -1.861306e+00 -5.944487e+00 1.609700e-05 4.487441e-07 -2.138830e-05
N 3.173080e+00 -1.889622e+00 -7.728332e-01 -7.067260e-06 1.124987e-05 -3.556290e-05
N -4.867700e+00 9.149448e-01 4.412528e+00 3.762278e-06 -5.876051e-06 -3.599836e-06
N -4.819649e+00 8.894404e-01 -6.020062e+00 -1.067376e-05 2.926814e-06 4.995617e-06
N -4.820716e+00 9.338487e-01 -7.206983e-01 -1.621538e-06 -1.331285e-05 -2.402344e-05
N -6.466033e+00 3.619073e+00 4.454118e+00 4.053217e-06 8.297821e-06 -1.155198e-05
N -6.460827e+00 3.678373e+00 -5.951714e+00 9.622285e-06 -6.929978e-06 -2.423898e-06
N -6.422688e+00 3.604962e+00 -7.565650e-01 -5.131267e-06 1.331080e-05 -1.448738e-05
N -3.221507e+00 -1.937236e+00 4.439661e+00 -1.290784e-05 2.310619e-05 -1.774297e-05
N -3.218915e+00 -1.935821e+00 -5.934082e+00 -6.032647e-06 2.036961e-05 -2.917089e-05
N -3.225092e+00 -1.892058e+00 -7.741546e-01 6.130121e-06 -5.776478e-07 -2.652239e-05
N -1.619014e+00 8.902501e-01 4.414651e+00 -2.738741e-05 -1.462223e-06 -2.875671e-05
N -1.584057e+00 9.095031e-01 -5.935565e+00 -1.542599e-05 1.519463e-05 -3.064095e-05
N -1.655183e+00 9.172324e-01 -8.114487e-01 7.629328e-06 -1.203652e-05 -2.265653e-05
N -3.218352e+00 3.650317e+00 4.347931e+00 -9.404312e-06 -1.482529e-06 6.028178e-06
N -3.226407e+00 3.652791e+00 -5.952319e+00 -9.610042e-06 2.787927e-06 -2.624801e-05
N -3.216469e+00 3.609367e+00 -8.091212e-01 -1.652821e-05 1.408913e-05 -2.258662e-05
N 2.329626e-02 -1.859746e+00 4.428449e+00 -1.174283e-05 1.161591e-05 -1.511172e-05
N 1.934885e-02 -1.862968e+00 -5.942163e+00 -2.640823e-06 1.929395e-05 -9.667999e-06
N -1.163409e-02 -1.885725e+00 -8.242188e-01 -4.582555e-06 9.817196e-06 -3.190597e-05
N 2.607269e-02 1.831000e+00 1.859263e+00 -1.503482e-05 2.690599e-06 2.034245e-06
N 2.582811e-02 1.832983e+00 7.027035e+00 2.354509e-06 -2.734083e-06 -3.262895e-05
N -6.276547e-02 1.782291e+00 -3.422536e+00 2.706805e-05 3.130611e-06 1.713718e-05
N 3.178368e+00 -3.732608e+00 1.873943e+00 -8.737633e-06 -1.458631e-05 1.827493e-05
N 3.223325e+00 -3.758649e+00 7.011279e+00 -1.680285e-05 9.250949e-06 -2.080745e-05
N 3.133603e+00 -3.761183e+00 -3.357699e+00 1.962450e-05 2.526417e-06 -8.764611e-06
N 1.620969e+00 -9.342011e-01 1.851508e+00 4.941453e-06 -5.273715e-06 -7.647540e-07
N 1.578159e+00 -9.076234e-01 6.942547e+00 1.840085e-05 -1.914024e-05 9.483158e-06
N 1.532358e+00 -9.823553e-01 -3.412582e+00 2.391092e-05 -6.649520e-06 6.517892e-06
N 3.128387e+00 1.784939e+00 1.777370e+00 2.417802e-05 7.988881e-06 -9.306657e-06
N 3.168375e+00 1.753459e+00 6.981662e+00 -8.050564e-06 2.397606e-05 8.039079e-06
N 3.175839e+00 1.800646e+00 -3.381964e+00 -3.059764e-06 1.510137e-06 -7.918296e-06
N 6.334192e+00 -3.760617e+00 1.840503e+00 8.278560e-06 4.051085e-06 -4.884653e-05
N 6.326730e+00 -3.760482e+00 6.956307e+00 1.480329e-05 3.047813e-06 -8.712877e-06
N 6.371660e+00 -3.739400e+00 -3.427211e+00 -8.358961e-06 2.456848e-06 1.336637e-06
N 4.731563e+00 -9.877112e-01 1.851916e+00 1.437510e-05 -4.063425e-07 -5.606089e-05
N 4.773004e+00 -9.170237e-01 7.014571e+00 -3.750914e-06 -7.612949e-06 -7.524398e-06
N 4.770875e+00 -9.541220e-01 -3.365034e+00 4.834103e-06 -6.517267e-06 -2.257223e-05
N -3.217905e+00 1.857700e+00 1.766103e+00 1.872644e-05 -1.041961e-05 -1.667845e-05
N -3.263308e+00 1.783408e+00 7.011240e+00 1.997803e-05 2.604568e-05 -3.374856e-06
N -3.184253e+00 1.829021e+00 -3.327104e+00 -2.585050e-05 -1.257752e-05 -6.675832e-06
N 1.607895e-02 -3.758766e+00 1.837326e+00 -6.367429e-06 3.875451e-06 -7.453521e-06
N -2.252822e-02 -3.733242e+00 6.995128e+00 1.609125e-05 1.673776e-05 -1.785755e-05
N 1.989450e-02 -3.709991e+00 -3.319378e+00 -2.799470e-05 -1.113689e-05 -2.469956e-05
N -1.619223e+00 -9.620060e-01 1.812391e+00 6.308796e-06 -6.622986e-06 -3.592363e-05
N -1.623471e+00 -9.612247e-01 7.014161e+00 2.779666e-05 -1.591760e-05 -2.591408e-05
N -1.577382e+00 -9.350414e-01 -3.321316e+00 -2.131781e-05 -8.391448e-06 -2.964800e-05
