108
Energy=-1.489500e+06 Lattice="9.528109e+00 0.000000e+00 0.000000e+00 -4.777120e+00 8.255731e+00 0.000000e+00 -1.923414e-02 -1.516949e-02 1.535764e+01" Stress="5.584375e-04 -1.827311e-04 -1.117392e-03 -1.740578e-04 2.593807e-03 -6.926697e-04 -1.131819e-03 -7.109712e-04 -1.448522e-03" Properties=species:S:1:pos:R:3:forces:R:3 Config_type=AlGaN_super3_23_2_7.xyz
Al 1.567060e+00 8.773221e-01 2.376913e+00 -2.807231e-03 5.763499e-03 1.522257e-03
Al 1.530868e+00 8.452787e-01 7.501753e+00 8.797381e-03 1.816287e-03 5.318640e-03
Al 1.554046e+00 8.538047e-01 -2.689946e+00 1.286602e-03 1.048821e-03 2.604215e-03
Al -6.202521e-02 3.655211e+00 2.428959e+00 5.077345e-03 -1.240923e-02 -1.722859e-02
Al -3.285701e-02 3.616113e+00 7.529987e+00 -4.086841e-04 -5.308487e-04 4.035126e-03
Al -3.258584e-02 3.615603e+00 -2.693201e+00 -1.705575e-03 1.188463e-03 -4.001794e-04
Al 3.071343e+00 -1.884439e+00 2.404001e+00 2.591578e-02 7.213599e-03 -8.301468e-04
Al 3.137165e+00 -1.862825e+00 7.522383e+00 1.075069e-03 -2.860232e-03 7.389274e-04
Al 3.144307e+00 -1.883188e+00 -2.701617e+00 4.351113e-04 -4.266834e-03 8.730162e-04
Al -4.808315e+00 8.870612e-01 2.421382e+00 5.555962e-04 -2.285052e-04 -1.655082e-03
Al -4.802935e+00 8.622951e-01 7.519799e+00 1.020969e-03 2.376041e-03 1.699793e-03
Ga -4.800376e+00 8.698187e-01 -2.691740e+00 3.086241e-03 2.588991e-03 4.589136e-04
Al -6.374323e+00 3.609982e+00 2.387223e+00 -1.665047e-03 3.890413e-04 1.603600e-03
Ga -6.401291e+00 3.618056e+00 7.545792e+00 2.458036e-03 -1.482404e-03 -8.028848e-04
Ga -6.395231e+00 3.622538e+00 -2.685337e+00 9.646168e-04 7.441739e-04 1.072809e-03
Ga -3.198137e+00 -1.861334e+00 2.411096e+00 -1.684603e-03 -7.263233e-04 -1.620066e-04
Ga -3.215041e+00 -1.877922e+00 7.542521e+00 2.874211e-04 8.471684e-04 1.234735e-04
Ga -3.188467e+00 -1.876254e+00 -2.705313e+00 1.155197e-03 -1.019397e-03 3.199516e-04
Ga -1.600288e+00 9.079333e-01 2.404564e+00 2.210004e-03 6.859767e-06 -9.524024e-04
Ga -1.618171e+00 8.797850e-01 7.530458e+00 -9.958371e-04 2.600211e-03 1.294037e-03
Al -1.593560e+00 8.708364e-01 -2.712172e+00 -2.152641e-03 8.639757e-04 1.367970e-03
Al -3.217911e+00 3.637083e+00 2.393153e+00 -3.455016e-04 -2.907502e-03 1.395492e-03
Ga -3.203164e+00 3.626783e+00 7.545991e+00 -2.803804e-04 -2.816692e-03 -8.169341e-04
Ga -3.176055e+00 3.648768e+00 -2.703552e+00 2.325144e-04 -2.153133e-03 -1.332173e-04
Ga 5.420829e-03 -1.865529e+00 2.360021e+00 -3.470566e-03 -1.046383e-03 4.771310e-03
Al -4.187366e-03 -1.855179e+00 7.539639e+00 1.233755e-03 -3.017002e-03 2.867907e-03
Al -1.835028e-03 -1.844054e+00 -2.695060e+00 -1.981340e-03 -2.346011e-03 3.979568e-03
Al -2.312578e-02 1.787777e+00 4.957997e+00 4.151643e-03 2.600582e-03 2.986181e-03
Ga -1.933949e-02 1.789368e+00 -5.258937e+00 1.607946e-03 2.141840e-03 2.473997e-03
Al -2.319528e-02 1.772708e+00 -1.726447e-01 1.287541e-03 4.547166e-03 -2.721889e-03
Ga 3.163193e+00 -3.715173e+00 4.948945e+00 -2.120369e-03 1.222980e-03 4.498939e-03
Al 3.179098e+00 -3.709407e+00 -5.280825e+00 1.820774e-03 2.783256e-03 2.880765e-03
Al 3.149346e+00 -3.715261e+00 -1.335335e-01 4.368617e-03 2.556371e-03 -2.907969e-03
Al 1.571829e+00 -9.510992e-01 4.960554e+00 1.508310e-03 1.294183e-03 5.471850e-03
Al 1.569451e+00 -9.665518e-01 -5.259956e+00 2.480566e-03 1.108200e-03 1.426650e-03
Al 1.566281e+00 -9.612582e-01 -1.683722e-01 6.987341e-04 1.470936e-03 -7.632450e-03
Ga 3.143578e+00 1.769002e+00 4.954847e+00 4.402845e-04 2.212759e-03 3.176380e-03
Ga 3.146892e+00 1.783581e+00 -5.279109e+00 -3.289928e-04 -4.674961e-04 1.171750e-03
Al 3.138415e+00 1.782533e+00 -1.127208e-01 -2.894220e-03 6.556240e-04 -4.814188e-03
Ga 6.317790e+00 -3.716082e+00 4.950160e+00 2.949456e-03 9.068369e-04 1.024061e-03
Al 6.325713e+00 -3.705104e+00 -5.254791e+00 -1.266724e-03 -7.554242e-04 1.250301e-03
Ga 6.328412e+00 -3.726060e+00 -1.036209e-01 -1.672072e-03 -6.179585e-04 -6.189291e-03
Al 4.727502e+00 -9.393813e-01 4.960693e+00 -1.930524e-03 -2.850546e-03 6.364660e-04
Ga 4.744324e+00 -9.629193e-01 -5.266294e+00 -1.967832e-03 7.997664e-04 1.237074e-04
Ga 4.726613e+00 -9.613693e-01 -1.162752e-01 -8.255550e-04 -1.200822e-03 -4.657736e-03
Al -3.200113e+00 1.769189e+00 4.928408e+00 -5.226706e-03 8.821270e-03 7.909220e-03
Al -3.186878e+00 1.790523e+00 -5.261321e+00 -3.070742e-03 1.569000e-03 2.478001e-03
Ga -3.193208e+00 1.795338e+00 -1.407215e-01 -1.245355e-03 3.184082e-04 1.265674e-03
Ga -5.322051e-03 -3.696897e+00 4.958224e+00 -1.532223e-03 -2.020211e-03 3.664159e-03
Ga -3.458766e-03 -3.677464e+00 -5.253763e+00 -6.317199e-04 -1.085753e-03 1.031411e-04
Al -9.652013e-03 -3.702731e+00 -1.333218e-01 -1.829783e-03 1.505066e-03 -8.803284e-03
Ga -1.590917e+00 -9.312990e-01 4.977852e+00 -2.095634e-03 -3.526825e-03 9.683138e-04
Al -1.583462e+00 -9.440822e-01 -5.258511e+00 -2.093620e-03 -2.494395e-03 1.620878e-03
Al -1.583672e+00 -9.478912e-01 -1.573590e-01 -1.745721e-03 -1.289412e-03 -5.886681e-03
N 1.515499e+00 8.445985e-01 4.325684e+00 -5.854031e-04 6.984737e-04 -5.144813e-03
N 1.559706e+00 8.163169e-01 -5.925167e+00 -6.262956e-04 1.187519e-03 -1.926268e-03
N 1.562685e+00 8.657260e-01 -7.548512e-01 2.446417e-03 9.184862e-04 -2.811719e-03
N -3.498096e-02 3.574639e+00 4.290908e+00 -1.577319e-03 -8.919332e-04 9.537160e-03
N -1.983744e-02 3.663738e+00 -5.898943e+00 5.080282e-04 7.350604e-04 -2.646581e-03
N -7.463568e-02 3.603353e+00 -7.681678e-01 -1.227701e-03 3.014951e-04 -1.375207e-03
N 3.140857e+00 -1.831158e+00 4.333061e+00 4.416969e-04 6.961393e-05 -2.447838e-03
N 3.116153e+00 -1.893455e+00 -5.905089e+00 -6.221937e-05 -8.922075e-04 -1.770274e-03
N 3.115679e+00 -1.907352e+00 -7.739618e-01 -5.717971e-04 -1.857815e-03 -1.362312e-03
N -4.762225e+00 8.481943e-01 4.332190e+00 2.613744e-03 1.686923e-03 -5.723197e-04
N -4.744936e+00 9.010446e-01 -5.914719e+00 2.875609e-03 3.824576e-04 -2.077765e-03
N -4.834730e+00 8.964989e-01 -7.283707e-01 1.176259e-03 2.183574e-03 -6.300151e-04
N -6.375733e+00 3.626374e+00 4.303736e+00 -1.882817e-04 -5.482287e-04 -2.062856e-03
N -6.415562e+00 3.657500e+00 -5.845366e+00 4.364447e-04 1.089517e-03 -3.655112e-04
N -6.348789e+00 3.599670e+00 -7.015595e-01 2.258971e-03 -2.755429e-04 -2.739880e-04
N -3.230248e+00 -1.836554e+00 4.376945e+00 -1.529492e-04 -4.293029e-04 2.901263e-03
N -3.149232e+00 -1.890049e+00 -5.832559e+00 2.556247e-03 -4.063953e-04 4.851840e-05
N -3.158360e+00 -1.856955e+00 -7.317178e-01 1.572451e-03 -2.670197e-04 5.363926e-04
N -1.596309e+00 9.350383e-01 4.388664e+00 -2.691533e-03 -2.308885e-03 -2.785304e-03
N -1.646504e+00 8.632971e-01 -5.844810e+00 4.361949e-04 -8.034062e-04 -2.082356e-03
N -1.580614e+00 8.523898e-01 -7.853858e-01 1.067705e-04 -1.217095e-04 -1.673154e-03
N -3.210567e+00 3.596011e+00 4.312110e+00 1.259522e-03 -5.383155e-03 -1.484463e-03
N -3.155515e+00 3.613262e+00 -5.832091e+00 -1.106329e-03 -2.643601e-03 -4.695156e-04
N -3.197074e+00 3.677613e+00 -7.206034e-01 -2.738204e-03 -1.537780e-03 -9.890700e-04
N 2.817984e-02 -1.835927e+00 4.349372e+00 -1.313775e-03 -2.327914e-03 -5.020791e-03
N -4.143690e-03 -1.809520e+00 -5.890694e+00 -1.668893e-03 -1.317783e-03 -2.740811e-03
N -1.669432e-02 -1.866287e+00 -7.513308e-01 2.947698e-04 -3.244906e-03 -2.997297e-03
N 1.452009e-02 1.820967e+00 1.725857e+00 4.894644e-04 4.454922e-03 1.274310e-02
N 1.437113e-02 1.811291e+00 6.893993e+00 -2.476725e-03 2.094440e-03 -3.063059e-03
N -1.530535e-02 1.781102e+00 -3.265581e+00 8.348188e-04 2.701335e-03 4.994926e-04
N 3.137144e+00 -3.707718e+00 1.795283e+00 9.768799e-04 3.772309e-03 2.693561e-03
N 3.200093e+00 -3.701866e+00 6.939943e+00 1.468892e-04 5.107051e-03 -1.933810e-03
N 3.218469e+00 -3.689642e+00 -3.355330e+00 -3.241091e-04 2.093714e-03 1.430013e-03
N 1.608193e+00 -9.175054e-01 1.719507e+00 -1.914985e-03 -1.421027e-03 1.021939e-02
N 1.562742e+00 -9.648169e-01 6.901336e+00 -4.055601e-04 -7.626460e-04 -4.705166e-03
N 1.575955e+00 -9.655151e-01 -3.311145e+00 -4.589328e-06 2.075366e-03 -3.198672e-03
N 3.147788e+00 1.789498e+00 1.797752e+00 -3.827683e-04 -3.195517e-04 4.711298e-03
N 3.143276e+00 1.737408e+00 6.945804e+00 -4.509611e-03 1.273195e-04 -1.640322e-03
N 3.107695e+00 1.762306e+00 -3.304478e+00 -2.713970e-03 3.329566e-04 -1.334184e-03
N 6.323603e+00 -3.758539e+00 1.858860e+00 5.242858e-04 3.139086e-03 9.311177e-04
N 6.286656e+00 -3.737524e+00 6.924719e+00 -7.965624e-04 4.849639e-04 -3.004729e-03
N 6.287776e+00 -3.740618e+00 -3.339626e+00 1.318322e-03 5.369386e-04 -3.614110e-04
N 4.717829e+00 -9.111762e-01 1.835196e+00 -1.468841e-02 -1.103897e-02 5.728448e-03
N 4.694526e+00 -9.294408e-01 6.897059e+00 -1.248295e-03 -4.555871e-03 -1.590494e-03
N 4.698010e+00 -9.811629e-01 -3.295615e+00 6.252884e-04 -1.156591e-03 -9.618308e-04
N -3.244469e+00 1.817702e+00 1.845343e+00 -4.391779e-04 9.340636e-04 -1.564498e-03
N -3.251454e+00 1.767331e+00 6.877874e+00 4.314025e-04 4.317379e-04 -6.929087e-03
N -3.162023e+00 1.772615e+00 -3.340289e+00 2.396609e-04 -5.880220e-04 3.543447e-04
N -1.848338e-02 -3.746226e+00 1.760330e+00 -3.665307e-04 -2.350178e-04 6.619753e-03
N -1.964326e-02 -3.663474e+00 6.944209e+00 -1.337868e-03 1.432738e-03 -9.842961e-04
N -1.393094e-02 -3.650780e+00 -3.282974e+00 -1.002041e-03 -1.007911e-04 4.417061e-04
N -1.596923e+00 -9.412184e-01 1.732913e+00 -1.671471e-03 -1.120812e-04 5.282050e-03
N -1.565670e+00 -9.790019e-01 6.943486e+00 -2.168189e-03 -2.085788e-03 -8.061392e-04
N -1.554324e+00 -9.316110e-01 -3.331583e+00 -7.388852e-04 -1.180154e-03 -1.472187e-03
