108
Energy=-985969.985317 Lattice="9.461831 0.000000 0.000000 -4.731624 8.192031 0.000000 -0.007610 -0.000171 15.225551" Stress="0.000003 0.000001 -0.000002 0.000001 0.000001 -0.000001 -0.000002 -0.000001 -0.000002" Properties=species:S:1:pos:R:3:forces:R:3
Al 1.548789 0.880861 2.423300 0.001271 0.001223 0.000027
Al 1.552441 0.868772 7.452167 0.000106 -0.000103 0.000043
Al 1.554124 0.869828 -2.717040 -0.000078 0.000547 -0.000132
Al -0.029554 3.599251 2.391070 -0.000190 0.000157 0.000140
Al -0.019346 3.591258 7.440690 -0.000603 -0.000047 -0.001689
Al -0.024911 3.592772 -2.664056 0.000831 0.001455 -0.000086
Al 3.136319 -1.866696 2.388522 0.001282 -0.000677 0.000225
Al 3.123134 -1.852829 7.463660 -0.001782 -0.001624 -0.000719
Al 3.135134 -1.852352 -2.684145 -0.000419 -0.001161 -0.000158
Al -4.754140 0.871984 2.394224 0.000531 0.000201 -0.000208
Al -4.763254 0.878464 7.463272 -0.000699 -0.000030 0.000554
Al -4.761731 0.865720 -2.685793 0.001945 0.000702 -0.001146
Al -6.343714 3.592620 2.389384 0.002365 0.002982 -0.001456
Al -6.351684 3.585621 7.464029 0.000152 0.000362 -0.000890
Ga -6.329838 3.594735 -2.679604 -0.000617 0.000269 0.000156
Al -3.184504 -1.862935 2.387295 0.001660 0.000891 -0.001547
Ga -3.175863 -1.867828 7.468509 0.000655 0.000295 0.000182
Ga -3.185486 -1.860032 -2.684394 0.000290 -0.000294 0.000673
Al -1.606904 0.877372 2.386882 -0.000012 0.000907 -0.000285
Al -1.597299 0.872973 7.461060 -0.000855 0.000052 -0.000324
Ga -1.596987 0.887822 -2.679836 0.000450 -0.000403 0.000525
Al -3.170624 3.592131 2.385102 0.001215 -0.000532 -0.000758
Ga -3.173006 3.590706 7.450064 0.000395 0.000151 0.000427
Al -3.178094 3.602197 -2.662285 0.002620 -0.001216 -0.001133
Ga -0.020191 -1.852446 2.395164 -0.000247 -0.000430 0.000128
Al -0.013241 -1.840539 7.456827 -0.001549 0.001394 -0.001484
Al -0.003550 -1.853906 -2.673894 -0.000468 0.000560 0.000033
Al -0.030629 1.778651 4.923369 0.000073 0.000319 0.000084
Al -0.012659 1.779856 -5.249235 -0.000203 0.000477 0.000963
Al -0.028446 1.786246 -0.129809 -0.000372 -0.000144 0.000043
Al 3.138603 -3.685334 4.916539 -0.000575 0.000076 -0.002419
Ga 3.155282 -3.680569 -5.211282 -0.000446 0.000075 0.001003
Al 3.134547 -3.688433 -0.151118 0.000370 -0.000081 0.000700
Al 1.557562 -0.941482 4.934096 0.000141 0.000619 0.000831
Al 1.557620 -0.936092 -5.225889 0.000114 -0.000095 -0.000274
Ga 1.567965 -0.943599 -0.155213 -0.001736 -0.000293 0.001137
Al 3.121709 1.780924 4.923004 -0.000144 0.001403 0.000012
Al 3.130874 1.767267 -5.238914 0.000595 0.000242 0.000355
Ga 3.136335 1.780498 -0.133856 -0.000390 -0.000059 0.000710
Al 6.277725 -3.693634 4.909404 -0.000452 0.000412 -0.001103
Al 6.280196 -3.691554 -5.238240 -0.000220 -0.000569 0.002475
Al 6.269634 -3.677106 -0.120770 0.000566 -0.000497 0.000222
Ga 4.700733 -0.950071 4.917912 -0.000072 0.000305 0.000236
Al 4.707997 -0.935976 -5.232273 -0.000879 -0.000047 -0.000338
Al 4.715362 -0.954729 -0.130249 0.002040 0.002132 0.001449
Al -3.169107 1.772623 4.913034 -0.000974 0.000311 -0.001858
Al -3.177671 1.761994 -5.221318 -0.000434 -0.000150 -0.000527
Al -3.176697 1.782296 -0.131466 -0.000119 0.002159 0.001340
Ga -0.030896 -3.682979 4.927073 0.000091 -0.000479 0.000219
Ga -0.029393 -3.669334 -5.230761 0.000356 -0.000220 0.000664
Al -0.020078 -3.682615 -0.133895 0.002420 0.002152 -0.002080
Al -1.601947 -0.933256 4.929515 -0.000356 -0.000597 -0.000765
Al -1.589619 -0.936947 -5.231761 -0.000513 -0.000712 0.000342
Al -1.613472 -0.951070 -0.128000 0.002655 0.001608 -0.004512
N 1.547544 0.871630 4.340634 0.000195 0.000439 -0.000382
N 1.557891 0.868133 -5.845050 -0.000087 0.000234 0.000295
N 1.517638 0.903086 -0.809453 -0.002091 0.000307 0.001665
N -0.028600 3.596551 4.312989 0.000133 -0.000332 -0.000526
N 0.017650 3.578675 -5.878704 0.000235 -0.000473 0.001068
N -0.021175 3.594748 -0.739961 0.000494 0.000144 -0.000036
N 3.083787 -1.884851 4.297658 0.000919 -0.000824 0.000352
N 3.128765 -1.817454 -5.850726 0.000777 0.000406 0.001836
N 3.188969 -1.877135 -0.766430 -0.002677 -0.001635 -0.000996
N -4.759020 0.917561 4.300894 0.000778 0.000408 0.000453
N -4.748815 0.875385 -5.841171 -0.000051 -0.000217 -0.000855
N -4.704311 0.850440 -0.763896 -0.003045 -0.002548 -0.001218
N -6.375209 3.583140 4.292208 0.000364 -0.002543 0.001931
N -6.371845 3.575146 -5.847060 -0.000033 -0.000658 -0.000327
N -6.332621 3.651017 -0.707263 -0.002557 0.000028 0.000119
N -3.138614 -1.885075 4.302252 0.001245 0.000816 0.000798
N -3.172786 -1.865658 -5.775318 0.000678 0.001953 0.000125
N -3.182603 -1.863762 -0.696594 0.001314 -0.000066 -0.000420
N -1.600936 0.871464 4.309288 0.000052 -0.000252 -0.000521
N -1.598806 0.876181 -5.835713 0.000046 -0.000279 -0.000573
N -1.613463 0.883868 -0.695890 0.005536 -0.004076 -0.000199
N -3.139006 3.578318 4.299977 0.000330 -0.000559 0.001749
N -3.167443 3.552808 -5.813527 0.000189 0.000267 -0.000499
N -3.179706 3.596679 -0.738852 0.000333 0.000519 -0.001041
N -0.021257 -1.808228 4.361201 -0.001433 -0.000068 -0.000275
N -0.015633 -1.803045 -5.860757 0.000167 0.000027 0.001432
N -0.053036 -1.877281 -0.759969 -0.003109 0.000500 0.001437
N -0.021469 1.779653 1.796932 0.000772 -0.000360 -0.000886
N -0.027422 1.776044 6.849530 -0.000398 -0.000291 -0.000106
N 0.013748 1.814817 -3.323605 0.000727 -0.001661 -0.002472
N 3.130193 -3.682595 1.777686 0.000384 0.000256 -0.001131
N 3.171472 -3.657793 6.823840 0.000418 0.001423 0.002614
N 3.138922 -3.681346 -3.228138 -0.001115 -0.000300 0.001242
N 1.604325 -0.914851 1.819385 -0.001412 0.000245 -0.001918
N 1.561588 -0.947879 6.852859 -0.000594 0.000110 -0.000443
N 1.560325 -0.952025 -3.294592 -0.000313 0.000190 -0.000768
N 3.127747 1.778290 1.842104 -0.001379 -0.001925 -0.000642
N 3.129348 1.779118 6.850745 -0.000384 0.000127 -0.000368
N 3.138426 1.734794 -3.317990 -0.001171 -0.000283 -0.000503
N 6.275764 -3.683482 1.796721 0.000491 0.000192 -0.000953
N 6.280884 -3.727569 6.818344 0.000828 -0.000311 0.001589
N 6.242871 -3.708044 -3.325935 -0.000969 -0.000619 -0.000639
N 4.703927 -0.948173 1.796024 0.000406 0.000082 -0.000451
N 4.664680 -0.926755 6.890237 0.000887 0.000230 -0.000243
N 4.668130 -0.923849 -3.315634 -0.000165 0.000126 -0.000742
N -3.182628 1.779299 1.785512 0.000052 -0.000017 0.000463
N -3.185589 1.726346 6.821892 0.002523 -0.000530 0.001378
N -3.220318 1.801087 -3.313538 -0.000529 0.001318 0.003349
N -0.010431 -3.722708 1.772411 -0.004540 -0.001087 0.002950
N -0.071271 -3.656849 6.899771 -0.000363 -0.000574 0.000443
N 0.022317 -3.653717 -3.255028 -0.000858 0.000359 -0.000418
N -1.632544 -0.921185 1.765022 -0.003167 -0.002054 0.004120
N -1.568362 -0.922719 6.839495 0.001038 0.000043 0.000815
N -1.553429 -0.967658 -3.316908 0.000346 -0.000191 -0.001682
