108
Energy=-1.993029e+06 Lattice="9.584803e+00 0.000000e+00 0.000000e+00 -4.812212e+00 8.287605e+00 0.000000e+00 -1.500305e-03 2.610610e-02 1.545228e+01" Stress="-1.060320e-02 1.903386e-03 -7.321945e-04 1.899465e-03 -6.472652e-03 1.138777e-03 -7.288255e-04 1.149227e-03 -9.620771e-03" Properties=species:S:1:pos:R:3:forces:R:3 Config_type=AlGaN_super3_34_0_4.xyz
Al 1.564166e+00 9.290387e-01 2.398404e+00 -6.283830e-03 1.207546e-03 5.389962e-03
Al 1.573651e+00 8.862570e-01 7.591137e+00 -6.015443e-04 -2.003226e-03 1.798133e-03
Al 1.565402e+00 8.621185e-01 -2.743444e+00 2.447503e-03 -3.084528e-03 4.120773e-03
Al -1.220784e-01 3.797020e+00 2.054789e+00 8.192112e-02 -7.627382e-02 7.627141e-02
Ga -3.717837e-02 3.657451e+00 7.596463e+00 4.643483e-04 9.633170e-05 -4.084484e-03
Ga -3.708297e-02 3.614152e+00 -2.726727e+00 -7.862946e-04 9.735955e-04 -2.118092e-03
Ga 3.192741e+00 -1.889123e+00 2.419053e+00 -4.296450e-03 9.645727e-03 7.831273e-03
Al 3.176054e+00 -1.873262e+00 7.585626e+00 1.937772e-04 -1.177259e-03 7.433859e-04
Ga 3.167015e+00 -1.913415e+00 -2.732625e+00 4.311056e-04 7.676852e-04 -2.769258e-04
Ga -4.834948e+00 9.074082e-01 2.428219e+00 3.565175e-04 -2.364799e-03 2.150755e-03
Ga -4.836762e+00 9.028528e-01 7.599094e+00 2.051564e-03 -3.562649e-03 -1.979959e-03
Ga -4.840250e+00 8.808722e-01 -2.715092e+00 1.948432e-03 -3.215579e-03 -1.063682e-03
Ga -6.430734e+00 3.657405e+00 2.399266e+00 -2.718186e-04 -2.929881e-03 8.426654e-03
Ga -6.422316e+00 3.654586e+00 7.596372e+00 -9.701857e-04 1.950247e-03 -7.620959e-04
Ga -6.420590e+00 3.621126e+00 -2.711065e+00 1.905165e-03 3.613877e-05 2.215507e-04
Al -3.214046e+00 -1.884023e+00 2.419066e+00 4.661201e-03 1.755420e-03 5.303603e-03
Al -3.215080e+00 -1.870922e+00 7.588388e+00 9.038663e-04 -7.018225e-04 2.437192e-04
Ga -3.200893e+00 -1.904720e+00 -2.707609e+00 1.254598e-04 2.283726e-03 -5.470847e-05
Ga -1.641382e+00 9.367840e-01 2.410968e+00 1.048092e-02 -1.790384e-03 2.526403e-03
Ga -1.636902e+00 9.113444e-01 7.600939e+00 4.695630e-03 -2.335574e-03 -2.620283e-03
Ga -1.624375e+00 8.780909e-01 -2.713106e+00 1.952975e-03 -2.926060e-03 -1.893057e-03
Al -3.220513e+00 3.669451e+00 2.420806e+00 -4.684038e-03 -3.970278e-03 7.021833e-03
Al -3.226259e+00 3.675952e+00 7.593657e+00 2.661418e-03 1.071340e-04 9.797232e-04
Al -3.225825e+00 3.646257e+00 -2.721944e+00 5.242552e-04 -7.561099e-04 6.897244e-04
Ga -1.275104e-02 -1.848978e+00 2.441748e+00 1.910745e-03 1.641982e-03 9.454836e-04
Ga -5.692909e-03 -1.858746e+00 7.584066e+00 2.942642e-03 1.094313e-03 -1.339425e-03
Al -6.905519e-03 -1.891173e+00 -2.733251e+00 2.679278e-03 -4.076548e-04 -9.703903e-04
Ga -9.983421e-03 1.806583e+00 5.003695e+00 -2.935525e-03 1.280196e-02 -4.966361e-03
Al -1.079198e-02 1.778028e+00 -5.296829e+00 -6.810862e-04 1.326256e-03 -6.964441e-04
Al -1.073041e-02 1.781588e+00 -1.740330e-01 -7.824268e-04 -5.762344e-03 9.872337e-04
Ga 3.180797e+00 -3.707419e+00 5.008062e+00 1.014599e-02 -8.476401e-03 -1.852071e-04
Al 3.177475e+00 -3.746322e+00 -5.305762e+00 1.016268e-03 1.909977e-03 -4.752425e-04
Al 3.192939e+00 -3.761333e+00 -1.518628e-01 -1.334518e-02 5.046096e-03 -1.313379e-02
Al 1.600575e+00 -9.399214e-01 5.003669e+00 -2.904503e-03 3.998062e-03 1.198367e-03
Al 1.594757e+00 -9.755115e-01 -5.299000e+00 -2.844414e-04 3.174601e-03 2.058700e-04
Ga 1.596437e+00 -9.867425e-01 -1.575901e-01 -5.043856e-03 7.470548e-03 -1.475522e-03
Ga 3.146963e+00 1.808995e+00 5.000771e+00 -2.388191e-03 1.575997e-03 2.567891e-03
Al 3.145577e+00 1.778400e+00 -5.293800e+00 -4.721577e-04 4.108929e-04 7.670414e-04
Al 3.142478e+00 1.790655e+00 -1.569433e-01 -1.373165e-04 -2.121149e-03 2.788214e-03
Ga 6.374972e+00 -3.702481e+00 5.002066e+00 -1.126348e-02 -7.541101e-03 -1.731832e-03
Ga 6.371119e+00 -3.747529e+00 -5.294932e+00 -3.933469e-05 4.744513e-04 -1.013113e-03
Al 6.367872e+00 -3.748680e+00 -1.404024e-01 1.016046e-02 3.318262e-03 -6.952423e-03
Ga 4.776834e+00 -9.606027e-01 5.017569e+00 8.012137e-04 1.684120e-03 9.327889e-04
Ga 4.767471e+00 -9.877770e-01 -5.303144e+00 -3.820496e-04 2.522315e-03 -9.580018e-04
Ga 4.776963e+00 -1.001074e+00 -1.328837e-01 7.907049e-04 8.139027e-03 -3.349205e-03
Ga -3.232442e+00 1.837659e+00 5.010074e+00 1.187011e-03 -6.927677e-04 1.924555e-03
Ga -3.224800e+00 1.813223e+00 -5.285334e+00 -1.390657e-03 -1.601190e-03 1.180123e-04
Ga -3.225524e+00 1.803966e+00 -1.496705e-01 -1.711897e-03 -1.132244e-03 -8.454396e-04
Ga -2.784867e-03 -3.700556e+00 5.005740e+00 -2.438744e-03 -1.112822e-03 1.557602e-03
Ga 4.449568e-03 -3.731841e+00 -5.282628e+00 -2.422823e-03 -1.092823e-03 -1.729138e-04
Ga -7.652496e-03 -3.739833e+00 -1.578280e-01 -7.693394e-04 1.136829e-03 -1.697601e-04
Ga -1.612631e+00 -9.467293e-01 5.006122e+00 -3.017798e-03 3.937577e-03 -6.993005e-05
Ga -1.598040e+00 -9.747067e-01 -5.288530e+00 -3.882642e-03 2.431088e-03 -5.736578e-04
Ga -1.602166e+00 -9.938393e-01 -1.443099e-01 -1.666140e-03 6.033203e-03 8.635720e-04
N 1.565037e+00 8.699620e-01 4.343970e+00 2.261488e-03 -1.163676e-02 -8.937357e-03
N 1.568222e+00 8.638636e-01 -5.916707e+00 1.133127e-03 -2.388537e-03 5.075580e-04
N 1.567652e+00 8.964483e-01 -7.945236e-01 1.884779e-03 2.512298e-03 -7.793101e-03
N -3.165266e-02 3.654144e+00 4.376561e+00 -3.245155e-03 5.588546e-03 -2.083433e-02
N -6.062832e-02 3.607320e+00 -5.882233e+00 -5.485913e-03 -3.075084e-03 5.225335e-03
N -3.213712e-02 3.617502e+00 -7.336654e-01 -4.149904e-04 4.866282e-03 1.216205e-02
N 3.155467e+00 -1.855917e+00 4.394604e+00 -6.481140e-03 3.836571e-03 -2.717518e-03
N 3.149812e+00 -1.917182e+00 -5.924257e+00 -5.098514e-03 -3.177642e-03 -2.009543e-03
N 3.184484e+00 -1.947130e+00 -7.578067e-01 9.965255e-04 -8.141965e-03 3.290807e-03
N -4.831320e+00 9.031069e-01 4.394793e+00 2.034622e-03 -3.670441e-03 -1.301008e-03
N -4.856609e+00 8.949181e-01 -5.887268e+00 -2.741994e-03 1.542465e-04 2.823777e-03
N -4.859751e+00 8.873505e-01 -7.450856e-01 -3.881320e-03 -9.254010e-04 2.204380e-03
N -6.424517e+00 3.660095e+00 4.382061e+00 4.013434e-03 1.549143e-03 -4.417962e-03
N -6.417773e+00 3.596407e+00 -5.885680e+00 1.461562e-03 -5.078879e-03 2.570524e-03
N -6.452349e+00 3.608918e+00 -7.301378e-01 -5.837971e-03 -5.665475e-04 2.144498e-03
N -3.211138e+00 -1.869972e+00 4.345032e+00 1.761030e-03 3.060484e-03 -9.127851e-03
N -3.205365e+00 -1.897218e+00 -5.943550e+00 7.459338e-04 8.788219e-04 -5.131608e-03
N -3.207622e+00 -1.937198e+00 -7.459406e-01 -7.240273e-04 -6.479860e-03 6.412413e-04
N -1.638455e+00 9.177025e-01 4.383702e+00 1.829647e-03 -6.082354e-03 -1.734483e-03
N -1.605851e+00 8.987569e-01 -5.884365e+00 6.575511e-03 -2.227879e-04 2.686481e-03
N -1.603938e+00 8.890698e-01 -7.468151e-01 6.105372e-03 -3.807117e-05 -3.185766e-04
N -3.233890e+00 3.668182e+00 4.343444e+00 1.048822e-03 2.182694e-03 -1.085455e-02
N -3.202375e+00 3.656592e+00 -5.933484e+00 5.261516e-03 1.971499e-03 -5.054559e-03
N -3.199595e+00 3.650395e+00 -7.956979e-01 8.644199e-03 4.591696e-03 -4.262892e-03
N 1.583276e-02 -1.837860e+00 4.408117e+00 7.008115e-03 2.185736e-03 1.817946e-03
N 1.775473e-02 -1.871984e+00 -5.898433e+00 6.473299e-03 1.810294e-03 1.511816e-03
N -1.651183e-02 -1.898570e+00 -8.193020e-01 3.445909e-03 5.028837e-04 -3.832206e-03
N -4.169090e-03 1.860207e+00 1.728000e+00 1.559685e-03 2.513275e-03 1.617466e-03
N 1.336256e-02 1.794681e+00 6.979716e+00 1.586228e-03 -5.289781e-03 4.626463e-03
N 1.194296e-02 1.764715e+00 -3.365369e+00 1.162870e-03 -1.985018e-03 -3.515331e-03
N 3.195276e+00 -3.773441e+00 1.795575e+00 -7.205060e-02 3.880504e-02 -3.022196e-02
N 3.156499e+00 -3.699074e+00 6.988388e+00 -7.951167e-03 5.056289e-03 6.364841e-03
N 3.157404e+00 -3.765577e+00 -3.370313e+00 -4.463713e-03 -3.025584e-03 -4.551720e-03
N 1.600311e+00 -9.017159e-01 1.805276e+00 -2.048256e-03 4.734141e-04 2.174195e-03
N 1.628936e+00 -9.288008e-01 6.947945e+00 1.338700e-03 3.380825e-03 -2.563278e-03
N 1.567169e+00 -9.678883e-01 -3.358548e+00 -7.347956e-03 4.961676e-03 -2.073251e-03
N 3.132651e+00 1.798601e+00 1.777773e+00 -2.753180e-03 -1.538176e-03 -7.948093e-03
N 3.127018e+00 1.799453e+00 6.977132e+00 -3.786736e-03 -2.678331e-03 3.613105e-04
N 3.129504e+00 1.770601e+00 -3.362841e+00 -5.023326e-03 -2.358297e-03 -5.386704e-03
N 6.351196e+00 -3.702389e+00 1.785351e+00 -2.168467e-03 1.518419e-02 -1.593692e-02
N 6.376304e+00 -3.676052e+00 6.983892e+00 2.312699e-03 5.481234e-03 3.231339e-03
N 6.376799e+00 -3.741623e+00 -3.330772e+00 -6.391039e-04 -1.460913e-03 2.242741e-04
N 4.817132e+00 -9.718022e-01 1.827443e+00 5.496687e-04 -3.228955e-03 8.742791e-04
N 4.781406e+00 -9.897538e-01 6.998074e+00 -1.890654e-03 -1.494749e-03 3.567407e-03
N 4.780524e+00 -9.888959e-01 -3.336074e+00 -8.490544e-04 3.215931e-03 9.941720e-04
N -3.242548e+00 1.869670e+00 1.815329e+00 -5.301491e-04 4.200729e-03 -1.342363e-04
N -3.231274e+00 1.863706e+00 6.987467e+00 -1.459977e-03 4.419480e-03 8.104016e-04
N -3.228987e+00 1.831540e+00 -3.315343e+00 -4.046779e-04 4.344189e-03 2.382551e-03
N 2.458214e-02 -3.709378e+00 1.813238e+00 3.966719e-03 -3.409922e-03 7.868001e-04
N 1.858995e-02 -3.723383e+00 6.982974e+00 3.246089e-03 -2.611904e-03 3.255910e-04
N 1.773299e-02 -3.721142e+00 -3.307124e+00 3.322502e-03 2.162347e-03 4.271992e-03
N -1.643112e+00 -9.590025e-01 1.823276e+00 -4.964586e-03 -2.229801e-03 1.644527e-03
N -1.642653e+00 -9.654500e-01 6.980210e+00 -5.740654e-03 2.189028e-04 2.055533e-03
N -1.581318e+00 -9.988472e-01 -3.321663e+00 2.747404e-03 7.683948e-04 2.115887e-03
