108
Energy=-1.306398e+06 Lattice="9.490792e+00 0.000000e+00 0.000000e+00 -4.749620e+00 8.214361e+00 0.000000e+00 1.564294e-03 -5.262035e-04 1.531047e+01" Stress="-4.870804e-03 7.303676e-04 -8.916981e-05 7.251503e-04 -4.910991e-03 -1.438862e-04 -1.252519e-04 -1.433664e-04 -3.078189e-03" Properties=species:S:1:pos:R:3:forces:R:3 Config_type=AlGaN_super3_19_1_6.xyz
Al 1.541188e+00 8.806729e-01 2.382643e+00 3.370449e-03 -3.506511e-04 -3.060695e-03
Al 1.556606e+00 8.740660e-01 7.513806e+00 -6.305232e-04 -2.125599e-03 4.921832e-05
Al 1.535759e+00 8.756473e-01 -2.685164e+00 2.585803e-03 -1.201722e-03 -2.105907e-03
Al -6.032682e-02 3.576089e+00 2.409196e+00 1.322086e-02 9.544204e-03 -8.382756e-03
Al -3.204786e-02 3.598848e+00 7.528532e+00 1.838585e-03 -9.674397e-04 -3.876141e-03
Al -1.095424e-02 3.596227e+00 -2.696488e+00 -4.426431e-03 3.149562e-03 -3.251952e-03
Al 3.196759e+00 -1.864209e+00 2.406332e+00 -2.443428e-02 -6.055327e-03 -3.289390e-03
Al 3.156359e+00 -1.862977e+00 7.518096e+00 5.393827e-04 2.874655e-04 -5.413007e-04
Ga 3.147986e+00 -1.871832e+00 -2.706894e+00 -7.000968e-04 -1.196018e-03 2.178130e-04
Al -4.766147e+00 8.940365e-01 2.407400e+00 -5.114931e-03 -7.102103e-03 -2.706874e-03
Al -4.778144e+00 8.674018e-01 7.489829e+00 7.300428e-04 -1.230067e-03 2.949553e-04
Ga -4.775478e+00 8.729439e-01 -2.679190e+00 6.543716e-04 7.156810e-05 3.924342e-04
Al -6.368439e+00 3.602791e+00 2.386753e+00 1.655302e-02 -7.897229e-05 9.346548e-03
Ga -6.354559e+00 3.604073e+00 7.506869e+00 2.738455e-04 8.024516e-04 1.709711e-04
Al -6.372999e+00 3.616884e+00 -2.692482e+00 1.162729e-03 -9.004005e-04 -3.156281e-05
Al -3.185688e+00 -1.842989e+00 2.410873e+00 5.093806e-03 -4.057995e-03 1.133529e-03
Ga -3.203128e+00 -1.864110e+00 7.503354e+00 4.956485e-04 8.357899e-04 1.305428e-03
Al -3.173478e+00 -1.876495e+00 -2.710720e+00 -9.548036e-04 1.571466e-03 3.601300e-03
Al -1.624685e+00 8.708148e-01 2.391530e+00 3.458355e-03 1.850762e-03 5.859172e-03
Ga -1.608505e+00 8.984209e-01 7.482183e+00 2.335205e-03 -1.824317e-03 3.918954e-04
Al -1.595621e+00 8.770872e-01 -2.678248e+00 4.745854e-05 -8.161969e-04 -2.126811e-03
Al -3.187801e+00 3.595025e+00 2.413608e+00 3.657583e-03 4.891885e-03 -8.162681e-04
Al -3.188052e+00 3.613921e+00 7.489821e+00 5.828106e-04 1.026507e-04 -6.000113e-04
Ga -3.179827e+00 3.617097e+00 -2.677446e+00 2.274261e-03 -4.268644e-05 -2.308338e-04
Ga -1.883685e-02 -1.859998e+00 2.408976e+00 3.277590e-03 1.898780e-05 2.417069e-04
Ga -2.912502e-03 -1.863835e+00 7.494172e+00 4.868293e-04 5.929547e-04 7.497646e-04
Al -2.569182e-02 -1.848972e+00 -2.683232e+00 2.169774e-03 2.098291e-04 3.604487e-04
Al -3.297433e-02 1.769560e+00 4.938713e+00 2.325168e-03 2.137144e-03 -4.057621e-03
Al -1.833438e-02 1.795952e+00 -5.234087e+00 3.029454e-04 -9.312193e-04 2.827109e-04
Al -3.270838e-02 1.779805e+00 -1.578892e-01 -2.915826e-04 -4.670769e-04 3.459579e-03
Ga 3.143187e+00 -3.702823e+00 4.951016e+00 -1.882086e-03 1.291577e-03 9.939036e-04
Al 3.149120e+00 -3.692081e+00 -5.299838e+00 3.374398e-03 2.315401e-03 9.275117e-03
Al 3.152765e+00 -3.697902e+00 -1.256993e-01 -3.565624e-03 -5.130017e-04 3.485745e-03
Ga 1.573536e+00 -9.525774e-01 4.945593e+00 -1.625083e-03 1.324226e-03 -1.077934e-03
Al 1.577040e+00 -9.475957e-01 -5.253759e+00 -1.875361e-03 7.441004e-04 1.278302e-03
Al 1.567566e+00 -9.418268e-01 -1.512459e-01 -2.273695e-03 -1.154557e-03 8.082741e-03
Ga 3.142000e+00 1.779186e+00 4.947520e+00 -2.053245e-03 7.994392e-04 -3.733890e-04
Ga 3.118099e+00 1.773971e+00 -5.253912e+00 5.735530e-04 -5.551129e-04 1.265920e-03
Al 3.115475e+00 1.782052e+00 -1.414935e-01 2.546816e-03 1.085822e-03 3.150328e-03
Ga 6.302731e+00 -3.682883e+00 4.933675e+00 1.033503e-03 -7.618588e-04 -7.380355e-04
Al 6.280463e+00 -3.692532e+00 -5.229773e+00 3.569157e-04 -2.050038e-04 -7.251160e-06
Ga 6.295783e+00 -3.697976e+00 -1.318314e-01 3.283421e-03 1.774080e-03 -2.246517e-03
Al 4.738795e+00 -9.423998e-01 4.935162e+00 -4.227773e-03 -1.635609e-03 6.476483e-04
Al 4.718413e+00 -9.642103e-01 -5.258005e+00 -4.342360e-04 1.402842e-03 1.056255e-03
Ga 4.730841e+00 -9.541688e-01 -1.186503e-01 -1.156130e-03 5.600018e-04 -5.337951e-03
Al -3.197819e+00 1.786479e+00 4.938965e+00 2.842444e-03 -5.351846e-04 1.880248e-04
Ga -3.184299e+00 1.791933e+00 -5.265150e+00 -5.588384e-04 -1.215783e-03 2.644409e-03
Al -3.164269e+00 1.777383e+00 -1.216941e-01 -6.674976e-03 5.482325e-03 -7.639157e-04
Al -1.777668e-02 -3.696818e+00 4.945304e+00 -8.318593e-04 5.949183e-04 -1.280266e-03
Ga -1.299302e-02 -3.682452e+00 -5.232338e+00 -5.560890e-04 1.799182e-04 1.513630e-03
Ga -2.068491e-02 -3.689380e+00 -1.421145e-01 9.665680e-04 3.322157e-04 7.493800e-04
Al -1.610293e+00 -9.410925e-01 4.938288e+00 1.043112e-03 1.077743e-03 -7.069523e-04
Ga -1.600540e+00 -9.484060e-01 -5.223635e+00 -9.942189e-05 1.262757e-03 -2.272502e-06
Al -1.598319e+00 -9.311532e-01 -1.631593e-01 8.900488e-04 -2.034184e-03 4.868141e-03
N 1.530845e+00 8.876010e-01 4.268570e+00 -6.259390e-03 3.818055e-03 9.120436e-03
N 1.505908e+00 8.536216e-01 -5.878451e+00 -6.552462e-04 -1.047119e-03 -1.148036e-03
N 1.548360e+00 8.753840e-01 -7.603311e-01 -1.234619e-04 -6.363821e-04 5.730756e-04
N -3.195277e-02 3.574529e+00 4.291463e+00 1.233717e-03 -7.923426e-03 3.393059e-03
N -2.387794e-02 3.602074e+00 -5.861833e+00 1.201098e-03 -1.122263e-04 -4.997428e-04
N -6.193859e-02 3.589321e+00 -7.753943e-01 -1.710542e-03 -1.543958e-03 7.404634e-04
N 3.171065e+00 -1.859523e+00 4.289567e+00 9.669901e-03 3.701514e-03 7.528037e-03
N 3.147299e+00 -1.862307e+00 -5.865132e+00 -2.662096e-04 2.124089e-04 -7.201464e-04
N 3.116265e+00 -1.892773e+00 -7.275870e-01 -2.622357e-03 -8.237514e-06 5.664333e-04
N -4.735372e+00 8.616245e-01 4.322350e+00 1.629372e-03 -3.828037e-03 -2.551074e-03
N -4.772604e+00 8.327485e-01 -5.901618e+00 3.135454e-04 -2.891757e-03 -2.001285e-03
N -4.781258e+00 9.187041e-01 -7.081340e-01 4.595981e-03 9.567800e-04 3.547225e-03
N -6.314945e+00 3.628950e+00 4.327125e+00 3.788671e-05 3.017493e-04 -7.844555e-03
N -6.390988e+00 3.639295e+00 -5.835680e+00 -2.061274e-03 1.005618e-03 6.626977e-05
N -6.360400e+00 3.569578e+00 -7.837181e-01 -1.756299e-04 -2.409831e-03 -2.116103e-03
N -3.177015e+00 -1.814812e+00 4.328576e+00 -3.201444e-03 1.282791e-03 -2.643881e-03
N -3.217091e+00 -1.886559e+00 -5.828006e+00 -1.538613e-03 -8.548185e-04 8.269316e-04
N -3.147545e+00 -1.847444e+00 -7.824316e-01 8.436582e-04 1.889565e-03 -5.384396e-03
N -1.617444e+00 8.763988e-01 4.332132e+00 1.563146e-03 1.264887e-03 4.233482e-04
N -1.562886e+00 9.026646e-01 -5.861926e+00 1.055673e-03 -7.194437e-04 8.797873e-04
N -1.610133e+00 8.843643e-01 -7.614133e-01 1.249090e-03 -1.452578e-03 2.271450e-03
N -3.227366e+00 3.589335e+00 4.326542e+00 3.270420e-04 -1.644308e-03 6.645867e-06
N -3.155469e+00 3.638205e+00 -5.905534e+00 -1.410120e-03 -4.756696e-04 -3.048070e-03
N -3.149437e+00 3.599847e+00 -7.171941e-01 4.313353e-03 -5.787883e-03 3.501147e-03
N -5.695640e-02 -1.882427e+00 4.377373e+00 -1.407129e-03 -9.692752e-04 2.500210e-03
N 1.409097e-02 -1.840532e+00 -5.848353e+00 2.513448e-03 1.179761e-03 -7.739402e-05
N -1.862484e-02 -1.817871e+00 -7.647527e-01 1.123012e-03 3.438741e-03 6.114217e-05
N -4.578702e-02 1.771974e+00 1.782333e+00 1.453106e-03 3.105992e-03 -5.318899e-03
N 2.392035e-02 1.803849e+00 6.854805e+00 -1.371237e-04 2.673938e-03 2.150088e-04
N -2.298968e-02 1.783110e+00 -3.305682e+00 -7.555091e-04 -1.278533e-05 1.180690e-03
N 3.141943e+00 -3.693375e+00 1.813964e+00 3.069991e-03 -1.912709e-03 -4.921808e-03
N 3.151857e+00 -3.689267e+00 6.939637e+00 -7.526106e-04 -1.241896e-03 2.710498e-03
N 3.181637e+00 -3.713898e+00 -3.359658e+00 3.429724e-03 -2.938154e-03 -4.806624e-03
N 1.600161e+00 -9.204222e-01 1.801240e+00 5.859096e-03 -4.119896e-03 -1.086497e-02
N 1.623367e+00 -9.347928e-01 6.916171e+00 -2.053027e-03 3.410738e-03 1.815568e-03
N 1.533597e+00 -9.323390e-01 -3.325986e+00 -3.430033e-03 2.656305e-03 -5.097491e-04
N 3.126610e+00 1.790409e+00 1.798479e+00 1.677198e-03 -1.561030e-03 -4.380742e-03
N 3.132102e+00 1.740882e+00 6.923530e+00 4.413385e-04 -1.917507e-03 5.785870e-04
N 3.096500e+00 1.803252e+00 -3.280278e+00 -2.668702e-03 2.216391e-04 1.667475e-03
N 6.381485e+00 -3.661551e+00 1.828635e+00 -3.002396e-02 -5.328478e-03 6.139648e-03
N 6.261703e+00 -3.712913e+00 6.896857e+00 -2.372665e-03 -1.832051e-03 1.676742e-03
N 6.300460e+00 -3.693962e+00 -3.304731e+00 -2.967589e-04 -2.223569e-04 5.791233e-05
N 4.710839e+00 -9.905549e-01 1.832390e+00 1.534731e-02 1.933768e-02 5.300388e-03
N 4.686745e+00 -9.346607e-01 6.862388e+00 -1.492755e-03 1.824113e-03 -2.097081e-03
N 4.762717e+00 -9.702145e-01 -3.344897e+00 1.997083e-03 -6.236675e-04 -3.776532e-04
N -3.190295e+00 1.790482e+00 1.810381e+00 7.109541e-04 -4.512383e-03 -4.693589e-03
N -3.234053e+00 1.810791e+00 6.866566e+00 -1.468260e-03 9.674513e-04 -1.745993e-03
N -3.154320e+00 1.767312e+00 -3.295991e+00 1.766366e-03 -1.527671e-03 -1.066638e-05
N 1.139160e-02 -3.724823e+00 1.822905e+00 -1.100326e-02 -5.312451e-03 1.723492e-03
N 1.292893e-02 -3.712189e+00 6.857535e+00 1.706157e-03 -1.333588e-03 -1.328508e-03
N -5.555537e-02 -3.666613e+00 -3.257430e+00 -2.436521e-03 1.029403e-03 9.323288e-04
N -1.627321e+00 -9.251222e-01 1.790327e+00 -7.071458e-03 1.765155e-03 -1.004746e-02
N -1.604285e+00 -9.516381e-01 6.845978e+00 -7.523648e-04 8.866462e-04 -2.171268e-03
N -1.598404e+00 -9.482763e-01 -3.249716e+00 -9.620477e-04 1.434640e-03 1.861277e-03
