108
Energy=-894419.057344 Lattice="9.450266 0.000000 0.000000 -4.725369 8.180348 0.000000 -0.000844 0.000461 15.203893" Stress="0.000001 -0.000000 -0.000000 -0.000000 -0.000002 -0.000000 -0.000000 -0.000000 0.000004" Properties=species:S:1:pos:R:3:forces:R:3
Al 1.559128 0.870920 2.412593 -0.000032 0.000029 0.000076
Al 1.551575 0.870500 7.454088 -0.000001 -0.000007 -0.000047
Al 1.551061 0.866063 -2.717312 -0.000019 -0.000034 0.000010
Al -0.023408 3.604130 2.403836 -0.000012 -0.000040 0.000003
Al -0.018101 3.593628 7.431402 0.000002 -0.000005 -0.000047
Al -0.010091 3.589406 -2.682580 -0.000078 -0.000018 0.000056
Al 3.130026 -1.858326 2.382114 0.000004 -0.000031 -0.000010
Al 3.120638 -1.854394 7.451261 -0.000032 -0.000027 0.000034
Al 3.123839 -1.841689 -2.677213 0.000027 -0.000044 -0.000033
Al -4.755307 0.866527 2.398156 -0.000034 0.000059 0.000016
Al -4.755571 0.873676 7.469814 0.000018 0.000043 0.000010
Al -4.756041 0.864515 -2.710195 0.000114 0.000010 0.000004
Al -6.327619 3.593092 2.406869 0.000028 -0.000042 0.000003
Al -6.324296 3.596566 7.446717 0.000009 -0.000015 -0.000043
Al -6.329105 3.595210 -2.701539 0.000017 0.000057 0.000009
Al -3.174214 -1.857577 2.374410 -0.000059 -0.000011 0.000020
Al -3.173150 -1.864332 7.456636 0.000062 -0.000046 0.000030
Ga -3.182816 -1.864331 -2.674442 -0.000009 0.000016 -0.000003
Al -1.595981 0.865942 2.410713 0.000016 -0.000014 0.000090
Al -1.590290 0.873626 7.450313 -0.000020 0.000031 0.000023
Al -1.588559 0.875388 -2.699020 -0.000059 0.000066 0.000045
Al -3.167899 3.603921 2.388097 -0.000026 -0.000063 0.000025
Al -3.177430 3.601381 7.458391 -0.000012 -0.000002 0.000006
Ga -3.179880 3.596648 -2.685429 0.000018 -0.000024 -0.000015
Ga -0.023006 -1.853052 2.398457 0.000008 -0.000013 -0.000028
Al -0.016028 -1.859871 7.433863 0.000012 -0.000010 -0.000073
Al -0.010876 -1.855226 -2.674635 0.000008 -0.000011 0.000022
Al -0.012141 1.777846 4.920696 -0.000057 -0.000056 -0.000070
Al -0.013129 1.782614 -5.227501 0.000064 0.000031 0.000068
Ga -0.019201 1.777438 -0.136980 -0.000010 0.000029 -0.000025
Al 3.124411 -3.671759 4.925791 0.000033 0.000001 -0.000001
Ga 3.136398 -3.671819 -5.227263 -0.000020 -0.000001 0.000000
Al 3.137154 -3.657140 -0.143144 -0.000082 -0.000038 -0.000028
Al 1.550623 -0.943592 4.933998 0.000072 0.000001 -0.000030
Al 1.555240 -0.945259 -5.225761 0.000038 0.000012 -0.000019
Al 1.556810 -0.957622 -0.156373 -0.000014 -0.000063 -0.000014
Al 3.112740 1.786028 4.931903 -0.000025 -0.000001 -0.000054
Al 3.126806 1.782293 -5.227687 -0.000008 0.000006 -0.000056
Ga 3.124128 1.780294 -0.151522 0.000018 0.000007 0.000003
Al 6.283231 -3.678457 4.918572 -0.000022 0.000019 -0.000014
Al 6.281606 -3.689603 -5.235055 -0.000021 -0.000022 0.000001
Al 6.279790 -3.671000 -0.130846 -0.000009 0.000006 -0.000027
Ga 4.699190 -0.958664 4.926234 -0.000005 0.000008 -0.000053
Al 4.692679 -0.941877 -5.234934 0.000016 -0.000030 0.000067
Al 4.695382 -0.958656 -0.133150 0.000056 0.000027 -0.000042
Ga -3.170243 1.788109 4.928197 0.000017 0.000002 -0.000038
Al -3.179503 1.774621 -5.236209 -0.000047 0.000049 0.000020
Ga -3.172281 1.768977 -0.126220 -0.000001 0.000023 -0.000052
Al -0.027227 -3.674710 4.933006 0.000098 -0.000077 -0.000011
Al -0.032792 -3.675857 -5.234833 0.000078 -0.000113 0.000043
Al -0.032725 -3.662834 -0.142361 0.000111 -0.000014 0.000058
Al -1.593013 -0.955419 4.942134 -0.000006 0.000100 -0.000023
Ga -1.588861 -0.950471 -5.228654 -0.000021 0.000003 -0.000009
Al -1.593806 -0.955629 -0.152602 -0.000024 -0.000035 -0.000118
N 1.554691 0.866777 4.329050 0.000013 -0.000030 0.000033
N 1.552775 0.869372 -5.823606 0.000003 -0.000018 0.000040
N 1.550607 0.822639 -0.806853 0.000005 0.000054 -0.000050
N -0.024877 3.601694 4.327263 0.000014 -0.000011 0.000023
N 0.019752 3.570708 -5.861952 0.000022 0.000041 -0.000003
N -0.016431 3.642220 -0.764023 0.000081 -0.000016 0.000034
N 3.082700 -1.880105 4.297225 -0.000032 0.000067 0.000046
N 3.122506 -1.809981 -5.849119 -0.000035 -0.000000 -0.000045
N 3.129928 -1.852894 -0.753203 0.000004 0.000001 0.000016
N -4.793259 0.892158 4.297903 0.000016 -0.000040 0.000036
N -4.753097 0.872426 -5.821284 -0.000010 -0.000014 0.000019
N -4.747104 0.819944 -0.794971 -0.000016 -0.000055 0.000027
N -6.322234 3.597403 4.326471 0.000017 0.000013 0.000029
N -6.322802 3.595192 -5.838171 0.000004 0.000006 0.000035
N -6.326257 3.646214 -0.781099 -0.000019 -0.000042 -0.000043
N -3.128147 -1.879235 4.294369 0.000017 -0.000056 -0.000013
N -3.212259 -1.884459 -5.835499 0.000013 0.000020 -0.000043
N -3.177815 -1.860001 -0.691360 -0.000064 -0.000002 0.000016
N -1.555744 0.839701 4.319803 0.000048 0.000037 0.000046
N -1.590704 0.918347 -5.844187 -0.000034 -0.000081 -0.000144
N -1.596105 0.829142 -0.792091 0.000031 0.000011 0.000003
N -3.173777 3.650426 4.302294 -0.000129 0.000029 -0.000045
N -3.213279 3.577490 -5.833887 -0.000027 0.000065 -0.000004
N -3.174013 3.642065 -0.709385 -0.000046 0.000063 0.000048
N -0.022322 -1.856093 4.379509 -0.000047 -0.000023 -0.000010
N 0.024087 -1.880981 -5.859106 -0.000019 0.000037 0.000017
N -0.018262 -1.858757 -0.748614 0.000018 0.000001 0.000031
N -0.020042 1.779249 1.846912 0.000046 0.000019 -0.000057
N -0.018908 1.776201 6.837979 -0.000015 0.000012 0.000039
N -0.022672 1.783913 -3.303510 0.000026 -0.000006 0.000048
N 3.134110 -3.673653 1.780232 -0.000007 0.000000 -0.000001
N 3.124826 -3.673935 6.850017 0.000010 0.000020 0.000030
N 3.172406 -3.649008 -3.255165 0.000010 0.000047 -0.000000
N 1.592312 -0.919735 1.761527 -0.000001 0.000021 -0.000005
N 1.556194 -0.942368 6.845985 0.000005 0.000004 0.000024
N 1.551518 -0.955147 -3.301270 0.000006 0.000012 0.000019
N 3.123583 1.780898 1.830034 -0.000010 -0.000007 -0.000031
N 3.125406 1.778289 6.853338 -0.000002 0.000012 0.000038
N 3.127294 1.782406 -3.303340 -0.000004 0.000012 0.000020
N 6.278952 -3.682478 1.791885 -0.000002 -0.000005 0.000010
N 6.280366 -3.673475 6.836475 -0.000011 0.000016 0.000023
N 6.275423 -3.722868 -3.321877 0.000077 0.000019 -0.000038
N 4.699223 -0.946505 1.789518 -0.000014 0.000022 0.000009
N 4.703252 -0.947247 6.900646 -0.000043 0.000030 -0.000027
N 4.659943 -0.930843 -3.320843 -0.000033 0.000040 -0.000019
N -3.171087 1.775087 1.853452 -0.000001 0.000057 -0.000003
N -3.175518 1.778957 6.903919 0.000027 -0.000048 -0.000003
N -3.172328 1.731998 -3.319156 -0.000055 -0.000074 0.000052
N -0.030628 -3.720425 1.771588 -0.000000 0.000018 -0.000024
N -0.023805 -3.680893 6.846951 -0.000023 0.000018 0.000023
N -0.066296 -3.646877 -3.317868 -0.000051 -0.000029 -0.000046
N -1.633489 -0.920283 1.760622 0.000069 0.000000 0.000053
N -1.602498 -0.948283 6.861271 -0.000006 0.000015 0.000033
N -1.555902 -0.931193 -3.257119 -0.000001 -0.000015 -0.000024
