108
Energy=-2771214.570125 Lattice="9.686989 0.000000 0.000000 -4.843687 8.387963 0.000000 -0.000629 -0.000534 15.732982" Stress="-0.000000 -0.000000 0.000000 -0.000000 -0.000000 -0.000000 0.000000 0.000000 -0.000000" Properties=species:S:1:pos:R:3:forces:R:3
Al 1.590177 0.893431 2.478189 -0.000000 0.000004 0.000000
Ga 1.586555 0.899190 7.719787 -0.000002 -0.000003 -0.000021
Ga 1.590154 0.892617 -2.772079 -0.000006 0.000005 0.000000
Ga -0.018771 3.679663 2.476775 -0.000010 -0.000003 -0.000010
Al -0.017481 3.689692 7.728026 -0.000000 0.000002 -0.000008
Ga -0.016160 3.690161 -2.779610 0.000004 0.000002 -0.000004
Ga 3.202389 -1.898761 2.479041 -0.000016 0.000006 -0.000012
Ga 3.208478 -1.910735 7.717045 -0.000003 0.000000 -0.000009
Ga 3.204605 -1.904669 -2.769972 0.000000 0.000006 -0.000001
Ga -4.876407 0.891552 2.474197 0.000001 0.000008 -0.000010
Ga -4.867901 0.892719 7.718980 -0.000010 0.000006 -0.000005
Ga -4.868053 0.892873 -2.765727 -0.000001 0.000002 -0.000002
Ga -6.487105 3.680544 2.478920 0.000002 0.000004 -0.000008
Ga -6.496368 3.689185 7.728760 -0.000000 0.000005 -0.000008
Ga -6.490636 3.690748 -2.782252 -0.000002 0.000006 -0.000010
Ga -3.251986 -1.905646 2.480489 -0.000010 -0.000007 -0.000004
Ga -3.257074 -1.917855 7.732843 -0.000007 0.000003 -0.000013
Ga -3.252687 -1.914243 -2.787341 0.000003 0.000002 0.000002
Ga -1.625936 0.892404 2.479578 -0.000009 0.000006 -0.000004
Ga -1.631904 0.900427 7.717403 -0.000010 -0.000001 -0.000016
Ga -1.635040 0.893705 -2.770159 -0.000006 0.000009 -0.000004
Ga -3.250765 3.689436 2.481203 -0.000001 0.000005 -0.000003
Ga -3.243279 3.687547 7.722078 -0.000001 0.000002 0.000001
Ga -3.250811 3.688380 -2.773649 -0.000003 0.000004 -0.000013
Ga -0.019540 -1.897004 2.475614 -0.000010 -0.000002 0.000000
Ga -0.021950 -1.902931 7.719411 -0.000008 -0.000001 -0.000007
Ga -0.021529 -1.903263 -2.765928 -0.000004 0.000006 0.000001
Ga -0.015735 1.827362 5.102055 0.000006 -0.000002 -0.000007
Ga -0.018105 1.839899 -5.405061 0.000005 -0.000003 -0.000010
Ga -0.017753 1.822334 -0.136942 0.000006 -0.000008 -0.000008
Ga 3.212379 -3.772009 5.113896 0.000011 -0.000004 -0.000010
Ga 3.223076 -3.770949 -5.404918 0.000009 -0.000003 -0.000005
Ga 3.206913 -3.768779 -0.148441 0.000009 -0.000001 -0.000008
Ga 1.590775 -0.964046 5.085316 0.000017 -0.000003 -0.000003
Ga 1.591485 -0.972100 -5.391374 0.000004 -0.000006 -0.000003
Ga 1.591988 -0.966151 -0.132593 0.000007 0.000003 -0.000009
Ga 3.198716 1.821257 5.090256 0.000008 -0.000002 -0.000008
Ga 3.202013 1.832062 -5.392828 0.000007 0.000000 -0.000004
Ga 3.199338 1.823026 -0.137177 0.000009 0.000009 -0.000012
Ga 6.429899 -3.770521 5.111214 0.000003 -0.000009 -0.000006
Al 6.427594 -3.773066 -5.406619 0.000007 0.000003 -0.000010
Ga 6.435056 -3.767575 -0.146272 0.000002 0.000001 0.000001
Ga 4.821993 -0.972581 5.102357 0.000007 0.000004 -0.000011
Ga 4.824180 -0.978530 -5.393249 0.000004 -0.000008 -0.000003
Ga 4.821955 -0.974630 -0.148550 0.000005 0.000008 0.000009
Ga -3.252599 1.823771 5.099094 0.000001 0.000001 -0.000014
Ga -3.251969 1.823391 -5.390553 0.000010 -0.000011 -0.000003
Ga -3.250996 1.825034 -0.144133 0.000011 0.000007 -0.000012
Ga -0.024584 -3.768483 5.102496 0.000007 -0.000011 -0.000003
Ga -0.033129 -3.767631 -5.392815 0.000009 0.000010 -0.000010
Ga -0.024335 -3.769692 -0.148377 0.000010 0.000004 -0.000003
Ga -1.638968 -0.973288 5.102610 0.000011 -0.000006 -0.000012
Ga -1.641237 -0.979233 -5.393419 0.000010 -0.000003 -0.000001
Ga -1.639826 -0.972989 -0.148340 0.000006 -0.000002 0.000001
N 1.588370 0.894910 4.404428 -0.000012 -0.000004 0.000008
N 1.591988 0.891897 -6.034144 -0.000007 -0.000008 0.000008
N 1.590739 0.891854 -0.791132 0.000003 0.000004 0.000006
N -0.022979 3.688134 4.455748 -0.000007 -0.000000 0.000008
N 0.020850 3.712691 -6.074527 -0.000010 -0.000005 0.000008
N -0.020396 3.686689 -0.792476 0.000001 0.000002 0.000010
N 3.206947 -1.907705 4.464087 -0.000005 0.000001 0.000009
N 3.205362 -1.902900 -6.035429 -0.000007 0.000004 0.000004
N 3.202825 -1.902994 -0.784486 -0.000005 0.000000 0.000002
N -4.867627 0.891560 4.457084 -0.000007 -0.000001 0.000009
N -4.867680 0.892510 -6.032281 -0.000003 0.000005 0.000003
N -4.868965 0.893986 -0.780749 -0.000008 -0.000008 0.000005
N -6.484189 3.689892 4.462392 -0.000008 0.000005 0.000008
N -6.525204 3.712725 -6.015071 -0.000004 -0.000001 0.000005
N -6.484722 3.687021 -0.793567 -0.000013 -0.000005 0.000003
N -3.251942 -1.907038 4.463170 -0.000005 0.000002 0.000013
N -3.252225 -1.954209 -6.011641 -0.000020 0.000002 0.000022
N -3.252031 -1.908016 -0.800568 -0.000007 -0.000003 -0.000009
N -1.633737 0.892964 4.464624 -0.000005 -0.000006 0.000016
N -1.635957 0.892323 -6.033127 -0.000006 0.000005 0.000005
N -1.634523 0.894216 -0.784504 -0.000011 -0.000001 -0.000001
N -3.249626 3.690827 4.465461 -0.000008 0.000001 0.000007
N -3.251904 3.689499 -6.029302 -0.000007 0.000003 0.000005
N -3.251726 3.688226 -0.790092 -0.000010 -0.000002 0.000007
N -0.024496 -1.904568 4.458364 -0.000009 0.000004 0.000006
N -0.022143 -1.903289 -6.033939 -0.000007 0.000000 0.000004
N -0.020097 -1.902428 -0.781116 -0.000011 0.000003 0.000001
N 0.021066 1.799060 1.853264 -0.000006 -0.000013 -0.000011
N -0.020235 1.875867 7.096360 0.000005 -0.000003 0.000015
N -0.022868 1.826993 -3.420503 0.000005 -0.000004 0.000002
N 3.207560 -3.768412 1.835008 0.000016 0.000005 0.000011
N 3.252066 -3.795370 7.104949 0.000003 0.000004 0.000007
N 3.209878 -3.769293 -3.418869 0.000004 -0.000001 0.000007
N 1.592230 -0.921418 1.858579 0.000011 -0.000006 0.000003
N 1.591773 -0.968262 7.070339 0.000005 0.000007 0.000009
N 1.591093 -0.972309 -3.410725 0.000007 -0.000004 0.000003
N 3.160870 1.799573 1.854472 -0.000007 -0.000004 0.000015
N 3.202969 1.824759 7.075232 -0.000002 -0.000001 0.000003
N 3.205728 1.823430 -3.411602 0.000006 -0.000002 0.000007
N 6.434791 -3.768079 1.833884 0.000008 0.000004 0.000006
N 6.390665 -3.793143 7.097315 0.000010 0.000004 0.000009
N 6.431115 -3.771710 -3.478460 -0.000005 -0.000003 0.000003
N 4.821209 -0.974177 1.834351 0.000010 -0.000008 0.000012
N 4.823139 -0.973454 7.084234 0.000009 0.000001 0.000009
N 4.819077 -0.971255 -3.410375 -0.000003 -0.000003 -0.000001
N -3.250700 1.823249 1.840029 -0.000000 -0.000006 0.000011
N -3.252502 1.823848 7.078985 0.000002 0.000002 0.000008
N -3.252386 1.822588 -3.408619 -0.000001 0.000001 0.000008
N -0.024548 -3.769278 1.836701 0.000004 -0.000000 0.000004
N -0.025861 -3.771328 7.086585 0.000001 -0.000001 0.000004
N -0.024403 -3.767597 -3.409890 0.000003 -0.000002 0.000010
N -1.639263 -0.972165 1.834689 0.000008 -0.000002 0.000001
N -1.641912 -0.973438 7.086424 0.000006 0.000008 0.000004
N -1.636325 -0.971976 -3.410411 0.000004 -0.000005 0.000001
