108
Energy=-2176125.774182 Lattice="9.476278 0.000000 0.000000 -4.738139 8.206697 0.000000 0.000000 0.000000 15.313968" Stress="-0.000385 0.000038 -0.000002 0.000038 -0.000343 -0.000002 -0.000002 -0.000002 -0.000351" Properties=species:S:1:pos:R:3:forces:R:3
Al 1.564294 0.903146 2.504900 -0.001627 -0.014266 -0.012870
Al 1.564294 0.903146 7.521855 -0.001645 -0.014833 -0.005120
Al 1.564294 0.903146 -2.775158 -0.001109 -0.015446 -0.004985
Al 0.000000 3.612582 2.504900 -0.003781 -0.001760 -0.011953
Al 0.000000 3.612582 7.521855 -0.003031 -0.001847 -0.002330
Ga 0.000000 3.612582 -2.775158 -0.003335 -0.001365 -0.003075
Al 3.173845 -1.884678 2.504900 -0.003343 0.000891 -0.012578
Ga 3.173845 -1.884678 7.521855 -0.003887 0.001823 -0.003597
Al 3.173845 -1.884678 -2.775158 -0.003527 0.002380 -0.005334
Ga -4.783396 0.903146 2.504900 -0.000066 -0.017682 -0.013993
Ga -4.783396 0.903146 7.521855 0.000300 -0.017069 -0.004001
Ga -4.783396 0.903146 -2.775158 0.000114 -0.017836 -0.005666
Ga -6.347690 3.612582 2.504900 -0.000918 -0.000364 -0.011232
Ga -6.347690 3.612582 7.521855 -0.000818 -0.000419 -0.000577
Ga -6.347690 3.612582 -2.775158 -0.000224 0.000071 -0.002358
Ga -3.173845 -1.884678 2.504900 -0.001053 0.002899 -0.012794
Ga -3.173845 -1.884678 7.521855 -0.000551 0.003063 -0.001614
Ga -3.173845 -1.884678 -2.775158 -0.000619 0.003658 -0.004076
Ga -1.654808 0.903146 2.504900 0.017099 -0.009119 -0.016850
Ga -1.654808 0.903146 7.521855 0.016948 -0.009001 -0.008010
Ga -1.654808 0.903146 -2.775158 0.016768 -0.009740 -0.008079
Ga -3.219102 3.612582 2.504900 0.016065 0.008618 -0.013959
Ga -3.219102 3.612582 7.521855 0.015563 0.007995 -0.004392
Ga -3.219102 3.612582 -2.775158 0.015296 0.008621 -0.004965
Ga -0.045257 -1.884678 2.504900 0.015439 0.011155 -0.015279
Ga -0.045257 -1.884678 7.521855 0.015546 0.011437 -0.006237
Al -0.045257 -1.884678 -2.775158 0.012827 0.008892 -0.005290
Ga 0.000000 1.806291 5.013378 -0.014883 -0.011242 -0.007110
Ga 0.000000 1.806291 -5.283635 -0.014610 -0.010532 -0.006624
Al 0.000000 1.806291 -0.266680 -0.011481 -0.008425 0.034936
Ga 3.173845 -3.690969 5.013378 -0.015511 -0.007636 -0.006496
Al 3.173845 -3.690969 -5.283635 -0.011848 -0.005203 -0.004005
Al 3.173845 -3.690969 -0.266680 -0.011800 -0.005331 0.036104
Al 1.609551 -0.981532 5.013378 -0.013880 0.008081 -0.006886
Ga 1.609551 -0.981532 -5.283635 -0.015307 0.009464 -0.007822
Ga 1.609551 -0.981532 -0.266680 -0.015842 0.009723 0.040971
Ga 3.128588 1.806291 5.013378 0.000074 -0.003519 -0.003440
Al 3.128588 1.806291 -5.283635 0.000639 -0.003202 -0.003553
Al 3.128588 1.806291 -0.266680 -0.000384 -0.003849 0.037001
Ga 6.302433 -3.690969 5.013378 0.000183 -0.000319 -0.002222
Al 6.302433 -3.690969 -5.283635 0.000059 -0.000100 -0.002550
Ga 6.302433 -3.690969 -0.266680 -0.000480 -0.000921 0.049869
Ga 4.738139 -0.981532 5.013378 -0.001283 0.017277 -0.005731
Al 4.738139 -0.981532 -5.283635 -0.001541 0.013417 -0.003509
Ga 4.738139 -0.981532 -0.266680 -0.001306 0.017081 0.045745
Ga -3.219102 1.806291 5.013378 0.003335 -0.001935 -0.003995
Ga -3.219102 1.806291 -5.283635 0.002553 -0.001954 -0.003929
Ga -3.219102 1.806291 -0.266680 0.003446 -0.002236 0.047601
Ga -0.045257 -3.690969 5.013378 0.003143 0.001568 -0.003206
Ga -0.045257 -3.690969 -5.283635 0.002731 0.000459 -0.002360
Ga -0.045257 -3.690969 -0.266680 0.003130 0.001281 0.048530
Ga -1.609551 -0.981532 5.013378 0.002355 0.018665 -0.006502
Ga -1.609551 -0.981532 -5.283635 0.001232 0.018459 -0.005608
Ga -1.609551 -0.981532 -0.266680 0.002262 0.018752 0.044913
N 1.564294 0.903146 4.418497 -0.000730 -0.035324 -0.009967
N 1.564294 0.903146 -5.878516 0.017362 -0.007173 -0.009096
N 1.564294 0.903146 -0.861561 -0.001081 0.004074 0.000328
N 0.000000 3.612582 4.418497 -0.002137 0.000080 -0.020169
N 0.000000 3.612582 -5.878516 -0.002261 0.021976 -0.006213
N 0.000000 3.612582 -0.861561 -0.020744 -0.010571 0.020021
N 3.173845 -1.884678 4.418497 -0.021195 0.012492 -0.013433
N 3.173845 -1.884678 -5.878516 0.015741 -0.009227 0.017490
N 3.173845 -1.884678 -0.861561 -0.002682 -0.019997 -0.010792
N -4.783396 0.903146 4.418497 0.000719 -0.017633 0.006842
N -4.783396 0.903146 -5.878516 -0.017959 -0.024880 0.020087
N -4.783396 0.903146 -0.861561 -0.017779 -0.006787 0.017054
N -6.347690 3.612582 4.418497 -0.000368 0.000393 0.003350
N -6.347690 3.612582 -5.878516 -0.019345 -0.010371 0.017934
N -6.347690 3.612582 -0.861561 -0.000459 -0.020845 0.013574
N -3.173845 -1.884678 4.418497 -0.001062 0.002357 0.002742
N -3.173845 -1.884678 -5.878516 -0.019747 -0.008855 0.017367
N -3.173845 -1.884678 -0.861561 -0.001100 0.001876 0.006340
N -1.654808 0.903146 4.418497 0.016487 -0.009650 0.010915
N -1.654808 0.903146 -5.878516 0.017053 -0.009832 0.010279
N -1.654808 0.903146 -0.861561 0.031579 -0.000947 0.018969
N -3.219102 3.612582 4.418497 0.015441 0.008228 0.006981
N -3.219102 3.612582 -5.878516 0.031229 0.017399 0.012219
N -3.219102 3.612582 -0.861561 0.030759 0.016745 0.015348
N -0.045257 -1.884678 4.418497 0.030024 0.018379 0.012616
N -0.045257 -1.884678 -5.878516 0.015266 0.010583 0.006237
N -0.045257 -1.884678 -0.861561 0.014552 0.009680 -0.013447
N 0.000000 1.806291 1.910020 0.004199 0.000725 -0.035840
N 0.000000 1.806291 6.926975 0.003784 0.001082 0.021298
N 0.000000 1.806291 -3.370038 0.003681 -0.020945 0.014252
N 3.173845 -3.690969 1.910020 0.003511 0.002740 -0.035356
N 3.173845 -3.690969 6.926975 0.003431 -0.019461 0.014357
N 3.173845 -3.690969 -3.370038 -0.015306 0.013219 -0.008710
N 1.609551 -0.981532 1.910020 0.001660 0.016799 -0.020725
N 1.609551 -0.981532 6.926975 -0.016511 0.027020 -0.006911
N 1.609551 -0.981532 -3.370038 -0.014133 0.007866 0.030149
N 3.128588 1.806291 1.910020 -0.017642 -0.012938 -0.048061
N 3.128588 1.806291 6.926975 -0.017426 -0.012799 0.009945
N 3.128588 1.806291 -3.370038 -0.018117 -0.012476 -0.013333
N 6.302433 -3.690969 1.910020 -0.018222 -0.011124 -0.035883
N 6.302433 -3.690969 6.926975 -0.018441 -0.011009 0.010237
N 6.302433 -3.690969 -3.370038 0.000570 -0.000531 -0.021136
N 4.738139 -0.981532 1.910020 -0.019335 0.007048 -0.031946
N 4.738139 -0.981532 6.926975 -0.000196 0.017852 0.006606
N 4.738139 -0.981532 -3.370038 -0.019150 0.006339 -0.009118
N -3.219102 1.806291 1.910020 0.002999 -0.001906 -0.044549
N -3.219102 1.806291 6.926975 0.002881 -0.001945 0.001721
N -3.219102 1.806291 -3.370038 0.003259 -0.001579 0.001991
N -0.045257 -3.690969 1.910020 0.002461 0.000170 -0.043855
N -0.045257 -3.690969 6.926975 0.002295 -0.000110 0.002372
N -0.045257 -3.690969 -3.370038 0.002081 0.021862 0.009970
N -1.609551 -0.981532 1.910020 0.001466 0.018231 -0.039706
N -1.609551 -0.981532 6.926975 0.001027 0.018021 0.005977
N -1.609551 -0.981532 -3.370038 0.020190 0.007103 0.013775
