108
Energy=-8.486435e+05 Lattice="9.444870e+00 0.000000e+00 0.000000e+00 -4.722693e+00 8.178598e+00 0.000000e+00 3.118805e-03 1.281596e-03 1.518477e+01" Stress="-2.451699e-05 6.987749e-06 1.498775e-04 1.158213e-05 -1.088994e-04 3.395578e-05 1.463152e-04 2.917844e-05 4.599095e-04" Properties=species:S:1:pos:R:3:forces:R:3 Config_type=AlGaN_super3_9_2_22.xyz
Al 1.554782e+00 8.787981e-01 2.376134e+00 6.582601e-05 -7.365123e-05 -7.992700e-05
Al 1.555523e+00 8.780361e-01 7.450990e+00 1.024693e-05 6.623233e-05 1.192032e-04
Al 1.563147e+00 8.758502e-01 -2.688405e+00 1.431069e-05 6.621652e-05 6.256443e-05
Al -2.730417e-02 3.592124e+00 2.396990e+00 -1.841427e-04 -1.015388e-04 -1.975256e-04
Al -1.389264e-02 3.598205e+00 7.439722e+00 -5.474100e-05 -2.664182e-06 -3.371581e-06
Al -2.539074e-02 3.591757e+00 -2.693202e+00 5.192316e-05 -1.339116e-05 1.882888e-04
Al 3.133066e+00 -1.858305e+00 2.371033e+00 -1.004255e-04 3.096737e-05 -5.454274e-05
Al 3.138535e+00 -1.854473e+00 7.454378e+00 -7.457577e-05 -4.566746e-06 4.550443e-05
Al 3.125103e+00 -1.855353e+00 -2.683404e+00 -5.806329e-05 5.839818e-05 1.260732e-04
Al -4.752000e+00 8.674114e-01 2.372218e+00 -2.656575e-05 -5.078161e-05 -1.128704e-04
Al -4.756106e+00 8.608110e-01 7.452359e+00 -1.822233e-05 -3.388639e-05 1.276909e-04
Al -4.761432e+00 8.750982e-01 -2.683194e+00 3.742239e-05 1.978985e-05 6.438108e-05
Al -6.310664e+00 3.589820e+00 2.396629e+00 -1.352885e-04 1.249796e-05 -1.758580e-04
Al -6.325182e+00 3.594719e+00 7.438321e+00 -2.001958e-05 1.008206e-04 5.352425e-05
Al -6.319265e+00 3.576743e+00 -2.692846e+00 2.247321e-06 -5.701326e-06 3.035015e-04
Al -3.183748e+00 -1.855297e+00 2.404651e+00 -1.239640e-04 1.921119e-04 -2.409752e-04
Al -3.178372e+00 -1.860892e+00 7.448984e+00 -3.740229e-05 -5.572986e-05 2.397506e-05
Ga -3.189315e+00 -1.865161e+00 -2.700778e+00 8.644095e-05 7.349939e-05 5.024864e-06
Al -1.588036e+00 8.830689e-01 2.374746e+00 -2.305865e-04 1.397315e-04 1.446941e-04
Al -1.584227e+00 8.712215e-01 7.465213e+00 9.132979e-05 -1.190754e-04 6.594558e-05
Ga -1.598393e+00 8.895461e-01 -2.685424e+00 2.671905e-04 -2.639929e-04 -1.823919e-04
Al -3.169055e+00 3.603447e+00 2.374408e+00 -4.355181e-06 -1.696098e-05 -1.712353e-04
Ga -3.166869e+00 3.606876e+00 7.458229e+00 1.677321e-04 9.790315e-05 6.789671e-05
Al -3.174015e+00 3.594055e+00 -2.686218e+00 3.064517e-05 -6.605265e-05 1.523130e-04
Al -1.342614e-02 -1.864365e+00 2.374751e+00 1.890278e-04 -1.482614e-04 -5.288982e-05
Al -2.086715e-02 -1.857641e+00 7.465686e+00 -4.632735e-05 1.056284e-04 7.739647e-05
Ga -6.279054e-03 -1.865529e+00 -2.685219e+00 1.575354e-04 7.213711e-05 -1.154147e-04
Al -1.148430e-02 1.794485e+00 4.920405e+00 3.033121e-05 -1.749855e-05 -1.599647e-05
Al -1.683586e-02 1.782591e+00 -5.223208e+00 -3.013223e-05 -1.844823e-06 4.719465e-06
Al -1.627801e-02 1.783173e+00 -1.437943e-01 4.686145e-04 3.948622e-04 4.213754e-04
Al 3.139959e+00 -3.669861e+00 4.904544e+00 2.624493e-05 6.695135e-06 -5.680479e-05
Al 3.131951e+00 -3.670978e+00 -5.200464e+00 -1.161221e-06 6.834216e-05 8.912260e-05
Al 3.116696e+00 -3.676269e+00 -1.577258e-01 1.666481e-04 2.709542e-05 2.959550e-04
Ga 1.566380e+00 -9.469859e-01 4.917852e+00 -1.826506e-04 1.398825e-04 -9.721224e-05
Al 1.558444e+00 -9.456022e-01 -5.225374e+00 -1.125313e-04 6.043512e-05 -3.347565e-05
Al 1.567518e+00 -9.416639e-01 -1.406505e-01 -6.679129e-05 -9.662680e-05 4.751986e-04
Al 3.124354e+00 1.785088e+00 4.914180e+00 -1.414242e-04 -9.414708e-05 -2.437466e-05
Al 3.123702e+00 1.777955e+00 -5.213312e+00 -4.786855e-06 -3.019050e-05 1.139282e-04
Al 3.126538e+00 1.771487e+00 -1.548087e-01 1.968422e-04 5.122724e-05 5.321633e-04
Al 6.271622e+00 -3.682916e+00 4.912761e+00 -2.281028e-06 -6.192135e-05 -5.276002e-05
Al 6.272338e+00 -3.683456e+00 -5.228893e+00 2.760909e-05 3.193056e-05 3.232938e-05
Ga 6.268412e+00 -3.692961e+00 -1.307825e-01 7.123778e-05 8.986964e-05 6.589458e-04
Al 4.693324e+00 -9.525058e-01 4.919687e+00 -1.125583e-04 1.295278e-07 2.710714e-05
Al 4.691008e+00 -9.456253e-01 -5.222244e+00 3.118287e-06 4.859572e-06 2.139022e-05
Al 4.680021e+00 -9.374467e-01 -1.434433e-01 -1.158387e-04 -8.191125e-06 5.082822e-04
Ga -3.175656e+00 1.783286e+00 4.907900e+00 -4.761456e-05 -3.403624e-05 3.659728e-05
Al -3.180000e+00 1.774274e+00 -5.212941e+00 8.642103e-06 3.579268e-05 1.078414e-06
Al -3.186711e+00 1.789510e+00 -1.388691e-01 1.553229e-04 2.189888e-04 1.297537e-04
Al -2.606073e-02 -3.678713e+00 4.910176e+00 7.282389e-05 -3.755258e-05 -6.688984e-06
Al -3.062128e-02 -3.678994e+00 -5.208943e+00 -1.453411e-05 8.276981e-05 2.233076e-05
Al -1.391162e-02 -3.692848e+00 -1.434459e-01 3.916052e-04 1.054404e-04 3.991105e-04
Ga -1.596311e+00 -9.520158e-01 4.923034e+00 6.029394e-05 1.143272e-04 -1.492294e-05
Al -1.597789e+00 -9.488850e-01 -5.244912e+00 -2.929154e-05 -1.801268e-05 -2.607389e-04
Ga -1.595573e+00 -9.420134e-01 -1.139590e-01 -1.009596e-04 -4.651846e-06 6.816694e-04
N 1.552887e+00 9.199026e-01 4.293147e+00 1.641125e-04 2.941539e-05 1.289415e-04
N 1.553130e+00 8.738745e-01 -5.819452e+00 5.977651e-05 -5.819003e-05 -7.941657e-05
N 1.549503e+00 8.691366e-01 -7.584560e-01 8.030599e-05 2.111251e-05 1.037562e-04
N -2.243030e-02 3.593652e+00 4.314816e+00 -5.437300e-05 -3.515967e-05 -5.231822e-05
N -2.803469e-02 3.597152e+00 -5.825705e+00 -7.364057e-05 -1.468258e-05 -5.251246e-05
N -6.488904e-02 3.571131e+00 -7.782434e-01 -5.595638e-05 1.098781e-04 -2.586095e-05
N 3.170102e+00 -1.878807e+00 4.283641e+00 1.126882e-04 1.022678e-05 -1.337530e-04
N 3.127747e+00 -1.863798e+00 -5.817002e+00 4.229513e-06 -1.016875e-05 -7.093932e-05
N 3.124414e+00 -1.856887e+00 -7.566251e-01 2.343996e-05 -1.534744e-05 6.983656e-05
N -4.789857e+00 8.440715e-01 4.288748e+00 3.014691e-05 -9.214290e-05 -1.232368e-04
N -4.752811e+00 8.689044e-01 -5.818148e+00 3.770831e-05 6.889113e-06 -8.585340e-05
N -4.747437e+00 8.689396e-01 -7.555624e-01 7.065643e-05 4.103611e-05 1.123746e-04
N -6.314787e+00 3.593204e+00 4.316693e+00 1.562302e-06 1.033426e-05 -1.876244e-05
N -6.319597e+00 3.591448e+00 -5.826437e+00 2.993499e-05 -2.690036e-05 -4.256674e-05
N -6.281102e+00 3.570467e+00 -7.740858e-01 -7.875947e-06 -2.880412e-05 -4.308690e-04
N -3.214948e+00 -1.878101e+00 4.314850e+00 -1.002286e-05 5.458616e-06 -4.391472e-05
N -3.181129e+00 -1.862082e+00 -5.816571e+00 -7.208594e-05 1.466180e-05 -1.359069e-05
N -3.213650e+00 -1.836464e+00 -7.351272e-01 2.473131e-05 -3.328553e-05 1.806483e-04
N -1.549945e+00 8.995222e-01 4.280431e+00 2.165558e-04 -1.627063e-04 -5.547934e-05
N -1.596166e+00 8.782971e-01 -5.807244e+00 1.007401e-04 -5.344370e-06 4.536182e-06
N -1.600209e+00 9.199950e-01 -7.123117e-01 -2.336624e-04 -3.663641e-04 6.049071e-04
N -3.167204e+00 3.647533e+00 4.292303e+00 -1.302798e-04 9.877463e-05 -5.957826e-05
N -3.169047e+00 3.600611e+00 -5.755851e+00 4.259442e-05 -1.496786e-04 1.317360e-05
N -3.172917e+00 3.593767e+00 -7.590307e-01 -2.541610e-05 1.411515e-05 7.478770e-05
N -1.543175e-02 -1.901943e+00 4.278368e+00 6.587171e-06 -4.319958e-05 -1.583535e-04
N -1.761484e-02 -1.864568e+00 -5.806697e+00 1.028718e-04 -3.032954e-05 -2.564143e-05
N 1.917869e-02 -1.880683e+00 -7.093900e-01 1.269740e-04 -9.305174e-05 2.219185e-04
N -1.342517e-02 1.786662e+00 1.772765e+00 -4.727263e-04 -3.926297e-04 -4.876137e-04
N -1.960290e-02 1.779553e+00 6.843698e+00 -5.424320e-05 -5.153963e-05 -3.326746e-05
N 2.187996e-02 1.800068e+00 -3.312099e+00 -2.319587e-05 -1.767477e-05 -2.551709e-05
N 3.130754e+00 -3.675565e+00 1.768577e+00 -1.612438e-04 -4.954133e-05 -3.093277e-04
N 3.170055e+00 -3.647708e+00 6.817936e+00 -2.325159e-05 5.526113e-05 1.082814e-04
N 3.126081e+00 -3.672134e+00 -3.278218e+00 -2.576499e-06 6.406596e-05 -1.590179e-04
N 1.558777e+00 -9.419175e-01 1.782725e+00 -4.078419e-05 4.855245e-05 -4.109567e-04
N 1.555703e+00 -9.472254e-01 6.900330e+00 -2.291811e-05 -6.424648e-05 3.186006e-05
N 1.595610e+00 -9.217839e-01 -3.308977e+00 -7.576607e-05 -2.877019e-05 -6.427808e-05
N 3.126705e+00 1.782623e+00 1.768719e+00 -1.618938e-04 -1.593258e-04 -4.581974e-04
N 3.127767e+00 1.778619e+00 6.836781e+00 1.162207e-05 -6.252911e-05 -8.448799e-05
N 3.123988e+00 1.775391e+00 -3.292413e+00 1.645054e-06 -1.342144e-05 3.163650e-07
N 6.275428e+00 -3.678536e+00 1.849471e+00 2.022536e-04 1.591099e-05 -7.041203e-04
N 6.276108e+00 -3.674343e+00 6.837785e+00 8.747585e-06 -1.642617e-05 3.777168e-05
N 6.274147e+00 -3.728293e+00 -3.312444e+00 1.536170e-05 -1.248494e-04 -1.119025e-04
N 4.699814e+00 -9.461138e-01 1.772743e+00 1.759147e-05 7.287845e-05 -4.259804e-04
N 4.699461e+00 -9.460565e-01 6.841669e+00 -3.761266e-05 5.834996e-05 -1.799959e-05
N 4.652203e+00 -9.206630e-01 -3.310906e+00 -1.345095e-04 9.452707e-05 -8.073724e-05
N -3.175463e+00 1.782383e+00 1.785706e+00 -8.285632e-05 -4.107984e-05 -3.913899e-04
N -3.170155e+00 1.731958e+00 6.880562e+00 -4.132059e-05 -9.652280e-05 -1.521780e-05
N -3.219428e+00 1.798065e+00 -3.300844e+00 -1.774328e-04 6.948363e-05 -2.957220e-05
N -2.414041e-02 -3.681489e+00 1.774571e+00 -1.340115e-04 6.652357e-05 -3.905663e-04
N -6.122954e-02 -3.648377e+00 6.824038e+00 -6.907420e-05 -1.391472e-04 -1.285571e-04
N -2.777293e-02 -3.723745e+00 -3.301854e+00 -3.691485e-05 -9.885450e-05 -3.970032e-06
N -1.600367e+00 -9.488059e-01 1.857010e+00 1.217175e-04 9.174770e-05 -3.654577e-04
N -1.594377e+00 -9.470298e-01 6.907444e+00 1.213007e-04 1.864555e-04 7.321096e-05
N -1.595201e+00 -9.474526e-01 -3.343705e+00 -9.418792e-05 2.286010e-04 2.754030e-04
