108
Energy=-8.486435e+05 Lattice="9.448098e+00 0.000000e+00 0.000000e+00 -4.727389e+00 8.177459e+00 0.000000e+00 -1.287708e-02 -7.867304e-03 1.519581e+01" Stress="1.295754e-03 -2.306005e-04 -5.759723e-04 -2.333091e-04 4.392527e-04 -3.348476e-04 -5.903525e-04 -3.392191e-04 1.967860e-03" Properties=species:S:1:pos:R:3:forces:R:3 Config_type=AlGaN_super3_9_1_78.xyz
Al 1.550237e+00 8.689283e-01 2.422738e+00 -3.434024e-04 -2.138081e-04 3.510255e-04
Al 1.550495e+00 8.730418e-01 7.446520e+00 -3.387418e-05 7.527264e-05 4.943887e-06
Al 1.553150e+00 8.727992e-01 -2.719669e+00 9.226817e-05 -4.952762e-06 -5.053579e-04
Al -9.808525e-03 3.597622e+00 2.419345e+00 3.708647e-05 3.085060e-05 1.871759e-05
Al -3.077476e-02 3.590206e+00 7.445363e+00 -3.915837e-05 -1.531745e-05 -2.818085e-05
Al -2.001928e-02 3.590898e+00 -2.715395e+00 -9.751010e-06 -5.635100e-05 -6.867409e-05
Al 3.135116e+00 -1.846122e+00 2.414697e+00 4.142988e-05 -5.104206e-05 -1.096936e-05
Al 3.130099e+00 -1.861069e+00 7.447570e+00 1.012257e-04 -3.834829e-05 4.339150e-05
Al 3.129022e+00 -1.849816e+00 -2.710821e+00 -4.314141e-05 -2.448786e-05 -1.173551e-04
Al -4.746312e+00 8.601767e-01 2.402934e+00 -3.154290e-04 -2.843622e-04 2.372237e-04
Al -4.759715e+00 8.635351e-01 7.435501e+00 8.312870e-05 2.326268e-05 -1.586266e-04
Al -4.752279e+00 8.694313e-01 -2.689672e+00 5.840688e-05 2.072550e-04 -8.022870e-06
Al -6.338155e+00 3.598067e+00 2.391147e+00 -5.008369e-04 -3.372546e-04 2.410071e-04
Al -6.340275e+00 3.578767e+00 7.462169e+00 -7.553775e-06 -3.189961e-05 -7.718081e-05
Al -6.319169e+00 3.594038e+00 -2.700904e+00 6.821477e-05 4.837940e-06 1.900065e-06
Al -3.173980e+00 -1.859388e+00 2.381006e+00 -9.488778e-05 -5.443304e-05 -5.102923e-05
Al -3.184407e+00 -1.859238e+00 7.446758e+00 -5.898883e-06 4.838990e-05 -1.067802e-06
Ga -3.172562e+00 -1.853734e+00 -2.679280e+00 -2.406490e-05 -5.054089e-06 -3.962108e-05
Al -1.602201e+00 8.605814e-01 2.400240e+00 1.810335e-04 -2.856959e-04 3.054353e-04
Al -1.603701e+00 8.685598e-01 7.437800e+00 2.226799e-05 3.024147e-05 -5.918298e-05
Al -1.587952e+00 8.751699e-01 -2.684859e+00 1.637596e-04 -3.592906e-04 -3.506117e-04
Ga -3.175276e+00 3.585993e+00 2.390590e+00 -1.928712e-06 3.793580e-05 -6.746606e-05
Al -3.168578e+00 3.585704e+00 7.453328e+00 2.032748e-04 -1.385569e-04 2.283839e-05
Al -3.175558e+00 3.601667e+00 -2.685929e+00 4.853732e-06 -1.209079e-04 -2.556193e-05
Al -3.247064e-02 -1.848788e+00 2.393005e+00 4.360278e-05 -6.259547e-06 1.573103e-04
Ga -2.917866e-02 -1.850499e+00 7.467616e+00 -6.809535e-05 1.026769e-05 -7.254078e-05
Al -1.568086e-02 -1.855189e+00 -2.703484e+00 6.095366e-05 -1.036270e-04 -2.316609e-04
Al -2.904713e-02 1.775270e+00 4.922723e+00 4.205141e-05 -7.144717e-06 -1.660594e-05
Al -1.324980e-02 1.779606e+00 -5.228945e+00 -1.957930e-05 -7.175899e-06 -3.773183e-05
Ga -2.890161e-02 1.781145e+00 -1.393096e-01 4.127124e-06 1.346833e-04 7.872368e-05
Al 3.138715e+00 -3.671895e+00 4.934697e+00 2.114018e-04 4.745623e-05 8.054815e-05
Al 3.137178e+00 -3.664375e+00 -5.221551e+00 -3.775223e-05 4.875797e-05 -3.534134e-05
Ga 3.139857e+00 -3.667909e+00 -1.561245e-01 -3.140454e-05 -2.636768e-05 -4.243474e-05
Al 1.556491e+00 -9.418406e-01 4.919229e+00 -9.170824e-05 1.056221e-05 -1.621798e-04
Al 1.564073e+00 -9.425477e-01 -5.213372e+00 2.539196e-04 9.969943e-05 1.433918e-04
Ga 1.551604e+00 -9.545844e-01 -1.480012e-01 -6.549872e-05 -1.356966e-05 3.918610e-05
Al 3.117296e+00 1.771213e+00 4.921185e+00 -9.567613e-06 -2.168188e-04 1.451244e-04
Al 3.123765e+00 1.779803e+00 -5.221209e+00 4.421404e-05 -3.357960e-05 -7.155086e-05
Ga 3.138664e+00 1.784852e+00 -1.456309e-01 -8.669086e-06 -7.323028e-06 8.178247e-06
Al 6.267026e+00 -3.673249e+00 4.928148e+00 3.199083e-05 -7.571412e-06 4.354974e-05
Al 6.282019e+00 -3.673116e+00 -5.236019e+00 -6.284385e-05 2.705981e-05 -1.073752e-04
Al 6.286472e+00 -3.666195e+00 -1.405804e-01 -6.499890e-04 -1.934481e-04 1.242930e-04
Al 4.701754e+00 -9.525106e-01 4.921877e+00 -6.989379e-05 2.917360e-05 4.746740e-07
Al 4.700453e+00 -9.496241e-01 -5.237987e+00 2.325372e-05 1.573686e-07 -2.474869e-04
Al 4.712378e+00 -9.438856e-01 -1.323816e-01 -3.071978e-04 2.033750e-04 4.145550e-04
Al -3.173349e+00 1.761196e+00 4.939514e+00 2.742118e-05 -3.689585e-04 2.258453e-04
Ga -3.168152e+00 1.777856e+00 -5.218138e+00 8.268214e-05 -5.037130e-05 -2.150243e-05
Al -3.177242e+00 1.763602e+00 -1.629038e-01 1.799045e-04 1.390153e-04 -2.472791e-04
Ga -3.368920e-02 -3.677599e+00 4.932561e+00 -1.041717e-04 9.669418e-05 -1.092603e-05
Al -2.086860e-02 -3.672142e+00 -5.212095e+00 9.007130e-05 -1.592171e-05 -4.756484e-07
Al -3.608246e-02 -3.668044e+00 -1.585227e-01 1.182765e-04 6.142104e-05 -3.095774e-04
Al -1.612339e+00 -9.429328e-01 4.909063e+00 -4.477987e-05 -3.086092e-05 2.247574e-04
Al -1.592646e+00 -9.455352e-01 -5.215163e+00 -9.505197e-05 2.379440e-04 5.661851e-05
Al -1.600709e+00 -9.499006e-01 -1.390280e-01 -2.801481e-04 -1.079984e-04 2.248934e-05
N 1.546182e+00 8.692708e-01 4.333149e+00 6.217198e-05 -4.313318e-05 -9.322790e-07
N 1.556986e+00 8.716490e-01 -5.824069e+00 5.759729e-05 2.854065e-05 -1.579806e-05
N 1.552142e+00 8.723638e-01 -8.168009e-01 5.360721e-05 -1.551387e-05 5.413955e-04
N -2.481560e-02 3.595129e+00 4.335414e+00 6.081618e-05 4.235408e-05 2.873463e-05
N -2.217484e-02 3.597263e+00 -5.828827e+00 -2.095816e-05 3.484845e-07 2.807363e-05
N 2.385618e-02 3.618326e+00 -8.048883e-01 1.351627e-04 1.106977e-04 2.103702e-04
N 3.127580e+00 -1.858253e+00 4.329778e+00 9.234817e-06 5.377173e-06 -1.091523e-05
N 3.130118e+00 -1.855231e+00 -5.828565e+00 1.217273e-06 4.910886e-05 2.843315e-05
N 3.175171e+00 -1.825868e+00 -8.008171e-01 -1.917239e-04 -9.266124e-05 1.255967e-05
N -4.748141e+00 8.669291e-01 4.327242e+00 1.162909e-04 1.826795e-05 2.170623e-05
N -4.785660e+00 8.509158e-01 -5.850299e+00 -2.803179e-05 4.063263e-05 2.244720e-04
N -4.711533e+00 8.396354e-01 -7.753417e-01 3.739614e-05 1.619828e-04 -3.649807e-05
N -6.372863e+00 3.571157e+00 4.302115e+00 -2.966385e-05 3.602057e-04 -3.527315e-04
N -6.319017e+00 3.594127e+00 -5.818851e+00 -4.288120e-06 5.150222e-05 7.327816e-05
N -6.327537e+00 3.642768e+00 -7.809286e-01 2.509758e-04 -4.593654e-06 -1.623514e-04
N -3.177479e+00 -1.862189e+00 4.307556e+00 3.602746e-05 2.610963e-05 -9.077174e-06
N -3.164761e+00 -1.851816e+00 -5.827161e+00 1.911586e-05 -7.623690e-06 4.793187e-05
N -3.173166e+00 -1.854044e+00 -6.932126e-01 6.363720e-04 -2.014802e-04 -1.384049e-04
N -1.606375e+00 8.697054e-01 4.319671e+00 1.422524e-04 -7.079436e-05 5.876676e-05
N -1.551883e+00 8.480962e-01 -5.849034e+00 3.117917e-05 -1.896268e-04 3.831704e-04
N -1.631028e+00 8.438548e-01 -7.712094e-01 -6.097288e-05 6.708582e-05 3.709878e-04
N -3.135242e+00 3.565254e+00 4.361745e+00 -1.867708e-04 3.024936e-04 -4.075250e-04
N -3.166284e+00 3.645151e+00 -5.832281e+00 7.957846e-05 -7.312733e-05 8.432158e-05
N -3.214808e+00 3.576870e+00 -7.621624e-01 1.004153e-04 -2.977336e-04 -6.042320e-05
N -2.760519e-02 -1.811567e+00 4.307272e+00 -1.897210e-05 -3.665113e-05 -1.352500e-04
N -1.522107e-02 -1.850115e+00 -5.757036e+00 -4.030034e-04 -2.771272e-04 -1.617544e-04
N -6.386798e-02 -1.874804e+00 -7.809262e-01 4.230038e-05 -8.271018e-05 2.443421e-04
N -2.408615e-02 1.778206e+00 1.847610e+00 3.351129e-05 1.975573e-04 -1.212844e-04
N -2.759789e-02 1.773706e+00 6.843788e+00 1.353295e-05 9.088443e-05 -3.823916e-05
N -2.524245e-02 1.778478e+00 -3.309007e+00 -4.622690e-05 -2.599789e-05 -4.614193e-05
N 3.175213e+00 -3.648616e+00 1.820217e+00 -1.802653e-04 1.261759e-04 -6.173732e-05
N 3.126296e+00 -3.675917e+00 6.851360e+00 1.728608e-05 1.252478e-04 1.855757e-05
N 3.128833e+00 -3.673005e+00 -3.296762e+00 -4.068706e-05 8.109995e-05 2.250188e-05
N 1.553313e+00 -9.474196e-01 1.839123e+00 2.453848e-04 -2.568197e-04 -1.597275e-04
N 1.588971e+00 -9.285696e-01 6.832171e+00 -1.079432e-04 9.064413e-05 5.264618e-05
N 1.557471e+00 -9.471694e-01 -3.297860e+00 -9.819554e-05 7.445365e-05 3.568854e-05
N 3.122660e+00 1.773028e+00 1.839385e+00 9.381598e-04 3.463047e-04 -1.348574e-04
N 3.118127e+00 1.776636e+00 6.840424e+00 -7.046063e-06 -3.306767e-05 -7.381042e-07
N 3.132826e+00 1.780978e+00 -3.300149e+00 2.793757e-05 3.903987e-05 4.523882e-05
N 6.272955e+00 -3.678636e+00 1.781899e+00 4.417100e-05 2.286296e-05 5.208175e-05
N 6.273156e+00 -3.676723e+00 6.851647e+00 2.777552e-05 6.580049e-06 2.515636e-05
N 6.282234e+00 -3.713926e+00 -3.326465e+00 6.110603e-05 4.259950e-06 6.657549e-05
N 4.696285e+00 -9.462894e-01 1.791917e+00 -1.940941e-05 9.799698e-06 8.647128e-05
N 4.697767e+00 -9.546175e-01 6.841453e+00 -8.059293e-05 -1.602192e-05 -4.480082e-05
N 4.668508e+00 -9.210882e-01 -3.328791e+00 -2.411834e-05 -1.936538e-04 1.913187e-04
N -3.173947e+00 1.722790e+00 1.758110e+00 -4.546482e-04 3.528486e-04 -5.097016e-04
N -3.179176e+00 1.771223e+00 6.856519e+00 2.390191e-06 -4.679649e-06 9.772610e-06
N -3.169578e+00 1.778681e+00 -3.240503e+00 -1.736143e-04 2.220453e-04 1.095689e-04
N -6.616613e-02 -3.651401e+00 1.764977e+00 1.448925e-04 4.562619e-04 1.841680e-04
N -3.163883e-02 -3.724053e+00 6.895928e+00 -1.497578e-04 1.326043e-04 -1.042736e-04
N -1.852027e-02 -3.675519e+00 -3.293857e+00 -2.449929e-06 -5.697901e-05 2.504831e-05
N -1.596832e+00 -9.458107e-01 1.785354e+00 4.231272e-05 -1.181973e-04 1.167629e-05
N -1.645391e+00 -9.308335e-01 6.822073e+00 -3.254509e-05 -8.194326e-05 -3.481558e-04
N -1.560054e+00 -9.200984e-01 -3.306818e+00 -1.282908e-05 1.512042e-04 -4.164662e-05
