108
Energy=-1.397949e+06 Lattice="9.498406e+00 0.000000e+00 0.000000e+00 -4.753116e+00 8.222904e+00 0.000000e+00 1.923585e-03 -4.264066e-04 1.533509e+01" Stress="-5.506175e-03 -9.471763e-05 1.935339e-04 -1.003616e-04 -5.273981e-03 -1.855600e-04 1.891776e-04 -1.822859e-04 -3.159341e-03" Properties=species:S:1:pos:R:3:forces:R:3 Config_type=AlGaN_super3_21_1_11.xyz
Al 1.554965e+00 8.647799e-01 2.408285e+00 3.204060e-03 1.928509e-03 -7.782915e-03
Al 1.549429e+00 8.769530e-01 7.530103e+00 1.762810e-04 -4.299728e-04 6.611763e-04
Al 1.567857e+00 8.745592e-01 -2.699337e+00 4.427853e-03 -3.020318e-03 1.689150e-03
Al -2.977601e-02 3.622583e+00 2.411783e+00 -4.528371e-03 5.685606e-05 2.490176e-03
Al -1.468246e-02 3.600142e+00 7.500862e+00 -1.547560e-04 2.703407e-04 1.239535e-04
Ga -2.177575e-02 3.617187e+00 -2.690342e+00 -2.943734e-04 9.757704e-04 1.582203e-04
Al 3.142811e+00 -1.871358e+00 2.363525e+00 -9.091806e-04 -1.734226e-03 -5.546767e-04
Ga 3.150129e+00 -1.877755e+00 7.514102e+00 3.256611e-04 1.220657e-04 8.322569e-04
Al 3.144409e+00 -1.857406e+00 -2.666428e+00 1.756362e-03 -8.990710e-04 1.191932e-03
Al -4.782836e+00 8.691071e-01 2.346836e+00 2.731791e-03 -1.010642e-03 7.830644e-03
Ga -4.770914e+00 8.805614e-01 7.531579e+00 1.011798e-03 -8.408722e-04 3.147298e-04
Al -4.785222e+00 8.788347e-01 -2.673774e+00 -1.440058e-04 2.615715e-04 -2.698017e-04
Ga -6.354622e+00 3.617246e+00 2.422034e+00 9.707702e-04 -6.540786e-05 -3.163177e-04
Ga -6.366733e+00 3.614054e+00 7.527658e+00 3.593293e-06 7.972969e-04 4.276624e-04
Al -6.353999e+00 3.605050e+00 -2.716001e+00 -1.214720e-03 -1.273946e-03 2.386681e-03
Al -3.196141e+00 -1.865393e+00 2.382146e+00 -6.002244e-04 2.253381e-03 4.316257e-03
Ga -3.178477e+00 -1.877230e+00 7.533576e+00 -3.550194e-04 3.074256e-05 6.904512e-04
Al -3.183753e+00 -1.856198e+00 -2.691947e+00 -3.118711e-04 1.255413e-04 -1.358230e-04
Ga -1.624037e+00 8.819088e-01 2.403475e+00 -9.956732e-04 4.384083e-04 5.148872e-04
Al -1.596584e+00 8.877285e-01 7.501995e+00 4.691509e-04 -1.386475e-04 -2.555436e-05
Al -1.624257e+00 8.698635e-01 -2.677915e+00 2.826080e-04 -8.361044e-04 -1.423942e-04
Al -3.191844e+00 3.614074e+00 2.409836e+00 2.793565e-03 1.125937e-03 2.651158e-04
Ga -3.180560e+00 3.613297e+00 7.498364e+00 2.520580e-04 -4.020833e-04 6.483528e-04
Al -3.194915e+00 3.610859e+00 -2.680611e+00 5.025715e-04 -2.712839e-05 -2.091739e-04
Al -1.135237e-02 -1.848125e+00 2.370236e+00 -2.393579e-03 -3.739549e-03 1.258276e-03
Ga -1.539405e-02 -1.856878e+00 7.549409e+00 3.624013e-04 -4.896371e-04 1.221681e-03
Ga -1.810853e-02 -1.856429e+00 -2.705746e+00 -2.847784e-04 -6.788672e-05 7.465219e-04
Al -1.579436e-02 1.801223e+00 4.961752e+00 -6.346682e-03 1.879354e-03 1.110986e-03
Ga -1.027005e-02 1.771011e+00 -5.259780e+00 -1.319821e-03 5.325976e-04 5.025190e-04
Ga -2.695855e-02 1.773971e+00 -1.459379e-01 1.497301e-03 -1.179439e-06 2.670412e-04
Al 3.155023e+00 -3.716433e+00 4.927349e+00 -3.529483e-04 -7.790398e-05 -5.299913e-04
Ga 3.146158e+00 -3.692581e+00 -5.242970e+00 -5.768781e-04 6.342569e-04 1.365675e-03
Al 3.133616e+00 -3.689880e+00 -1.359880e-01 -4.770672e-04 9.699628e-04 2.657187e-04
Ga 1.560885e+00 -9.582662e-01 4.927905e+00 -2.608023e-04 -1.844582e-03 2.438134e-03
Al 1.566610e+00 -9.485121e-01 -5.235551e+00 -7.878209e-05 5.528080e-05 7.833991e-04
Al 1.574883e+00 -9.514626e-01 -1.487025e-01 -7.339047e-05 1.050160e-03 -1.980498e-03
Ga 3.136479e+00 1.789639e+00 4.952197e+00 3.177264e-03 5.536173e-04 -1.827202e-04
Al 3.127057e+00 1.792030e+00 -5.236571e+00 9.312358e-04 7.571687e-04 1.176277e-03
Al 3.142809e+00 1.769141e+00 -1.544480e-01 3.556510e-04 -3.912174e-05 -1.154554e-04
Al 6.300994e+00 -3.699757e+00 4.945942e+00 -2.426344e-04 4.670646e-04 -7.559114e-04
Al 6.326155e+00 -3.693976e+00 -5.239282e+00 3.301791e-04 -2.007768e-04 7.846733e-04
Ga 6.310453e+00 -3.678897e+00 -1.339569e-01 6.435173e-04 -1.186499e-03 9.015373e-05
Ga 4.738547e+00 -9.599726e-01 4.922307e+00 1.784969e-04 7.194057e-04 3.105135e-04
Ga 4.729414e+00 -9.536839e-01 -5.212254e+00 -3.205794e-04 -4.108014e-04 9.416594e-04
Al 4.728610e+00 -9.446406e-01 -1.478791e-01 -1.394569e-03 -7.941661e-04 -6.858603e-03
Al -3.192363e+00 1.799290e+00 4.945551e+00 -3.481795e-04 1.593540e-03 -4.976391e-04
Ga -3.195755e+00 1.789415e+00 -5.230787e+00 6.827630e-04 1.221274e-04 1.841729e-03
Al -3.192975e+00 1.784308e+00 -1.677876e-01 -5.009384e-03 2.395538e-03 3.714342e-03
Al -1.049452e-02 -3.691431e+00 4.933687e+00 1.195005e-03 -8.711233e-05 -5.180197e-04
Al -3.475315e-02 -3.691509e+00 -5.225108e+00 2.885299e-04 -1.219150e-04 6.439579e-04
Ga -1.093742e-02 -3.702130e+00 -1.426400e-01 1.926666e-04 7.189284e-06 -1.869329e-03
Ga -1.597324e+00 -9.560501e-01 4.946683e+00 -9.629280e-04 -5.225098e-04 6.116348e-04
Al -1.600190e+00 -9.531927e-01 -5.242176e+00 -5.678065e-04 3.612036e-04 5.615213e-04
Al -1.616195e+00 -9.456096e-01 -1.446950e-01 1.851224e-04 -3.995108e-04 -1.072864e-03
N 1.511622e+00 9.038445e-01 4.305122e+00 2.150745e-03 -2.959652e-03 -1.235349e-03
N 1.603048e+00 8.495172e-01 -5.883146e+00 -3.727851e-04 -1.306345e-03 -8.154629e-04
N 1.597536e+00 8.466968e-01 -7.835938e-01 4.307404e-04 1.804970e-04 1.534658e-04
N -1.821037e-02 3.607421e+00 4.337159e+00 -8.707093e-04 5.643753e-05 5.173616e-04
N 2.083152e-02 3.636903e+00 -5.902317e+00 3.435076e-06 -3.384177e-04 -1.024914e-03
N -6.411675e-02 3.640324e+00 -7.332213e-01 -1.075939e-05 -4.290938e-04 7.174974e-05
N 3.149830e+00 -1.918226e+00 4.283188e+00 -1.108488e-03 2.958216e-04 -1.980092e-03
N 3.112647e+00 -1.847012e+00 -5.851590e+00 -6.179004e-04 7.784123e-04 -9.760533e-04
N 3.145228e+00 -1.869096e+00 -7.396332e-01 -2.988500e-04 -4.018522e-05 -1.402713e-04
N -4.733087e+00 9.015888e-01 4.287160e+00 -1.893032e-03 -1.223644e-03 -3.905222e-03
N -4.816260e+00 9.000892e-01 -5.835180e+00 1.337736e-04 -5.704310e-04 -1.700933e-04
N -4.779042e+00 8.751723e-01 -7.527754e-01 5.275934e-04 3.056396e-04 -1.063145e-04
N -6.353244e+00 3.660959e+00 4.387103e+00 -1.092695e-03 -4.520179e-04 -1.841606e-04
N -6.356533e+00 3.616013e+00 -5.813962e+00 -7.123051e-05 4.495998e-05 -7.135327e-06
N -6.360531e+00 3.563027e+00 -7.898353e-01 -3.867583e-04 1.425456e-03 -1.486936e-03
N -3.176529e+00 -1.914572e+00 4.296726e+00 -9.360720e-04 4.886823e-04 -1.838676e-03
N -3.147640e+00 -1.891479e+00 -5.822184e+00 2.035669e-04 3.687625e-04 -4.869791e-04
N -3.184676e+00 -1.820128e+00 -7.761284e-01 2.021643e-04 3.392897e-04 1.367628e-05
N -1.616485e+00 9.254114e-01 4.376976e+00 5.046285e-03 7.311284e-05 2.760553e-04
N -1.615127e+00 8.351848e-01 -5.910838e+00 8.288908e-04 -4.669488e-04 -1.047370e-03
N -1.657743e+00 8.534123e-01 -7.615196e-01 3.191341e-03 -2.299098e-03 -1.269445e-03
N -3.189108e+00 3.612584e+00 4.337326e+00 4.106732e-04 2.832835e-04 -1.000471e-04
N -3.235708e+00 3.641668e+00 -5.859996e+00 -1.733806e-04 -2.586642e-04 -8.590686e-04
N -3.148511e+00 3.594647e+00 -7.734569e-01 2.903514e-05 -5.716987e-04 -4.093031e-04
N -2.157769e-02 -1.908306e+00 4.278026e+00 9.919101e-04 1.224199e-03 1.180290e-03
N -1.856309e-02 -1.866736e+00 -5.789717e+00 4.591581e-04 9.717553e-05 -1.375212e-04
N -2.202328e-02 -1.816304e+00 -7.261603e-01 -6.464784e-04 1.430462e-04 -8.509854e-04
N 8.921247e-03 1.814114e+00 1.826567e+00 1.762539e-03 -1.618204e-03 -5.510771e-04
N -1.227562e-02 1.784054e+00 6.904359e+00 -5.477259e-04 1.917847e-04 -7.637189e-04
N -2.251758e-02 1.731602e+00 -3.272483e+00 -3.149483e-03 1.248084e-03 -8.920574e-04
N 3.138612e+00 -3.703411e+00 1.784712e+00 5.189906e-04 -9.021830e-05 2.367516e-03
N 3.194761e+00 -3.723836e+00 6.849132e+00 1.885811e-04 3.210530e-04 -2.513249e-04
N 3.105369e+00 -3.667937e+00 -3.270745e+00 -3.220895e-04 -2.308300e-04 -4.735394e-05
N 1.553826e+00 -9.509189e-01 1.759924e+00 4.386832e-03 3.570267e-03 7.324167e-03
N 1.567952e+00 -9.116836e-01 6.908308e+00 -1.076106e-03 1.191677e-03 -1.517025e-03
N 1.618123e+00 -9.334078e-01 -3.317442e+00 -2.546041e-03 2.642369e-03 -1.700336e-03
N 3.150483e+00 1.750643e+00 1.768145e+00 -9.217026e-03 -1.703147e-03 -4.295472e-04
N 3.102059e+00 1.761842e+00 6.920072e+00 -9.012489e-04 -4.042922e-04 -3.130478e-04
N 3.135944e+00 1.786013e+00 -3.314191e+00 4.199381e-04 -3.273361e-04 7.196777e-04
N 6.265294e+00 -3.669095e+00 1.848684e+00 2.915551e-03 -2.205742e-03 -7.069206e-03
N 6.273491e+00 -3.715648e+00 6.862738e+00 -4.806695e-05 -3.527205e-04 -7.633440e-04
N 6.350395e+00 -3.667181e+00 -3.320878e+00 2.452039e-04 -9.257643e-05 -2.257920e-05
N 4.727620e+00 -9.583293e-01 1.755811e+00 -5.348186e-04 7.743363e-04 6.279961e-03
N 4.738186e+00 -9.538693e-01 6.891361e+00 -5.707165e-04 1.448654e-04 -8.617085e-04
N 4.726239e+00 -9.507767e-01 -3.232011e+00 -2.754830e-04 -1.452623e-04 4.954920e-04
N -3.247734e+00 1.818041e+00 1.765986e+00 4.540335e-03 -1.380303e-04 -4.967616e-03
N -3.155362e+00 1.765351e+00 6.860929e+00 1.560565e-04 -3.477329e-04 -3.207902e-04
N -3.194043e+00 1.787886e+00 -3.246807e+00 6.835865e-05 -4.700615e-05 6.620820e-04
N 2.547341e-02 -3.667314e+00 1.823177e+00 -2.544113e-03 -7.852892e-04 7.048949e-04
N -2.136968e-02 -3.685546e+00 6.849635e+00 -1.340152e-04 7.356096e-04 -1.164162e-03
N -2.048169e-02 -3.742234e+00 -3.308561e+00 1.016837e-03 7.508458e-04 -5.526828e-04
N -1.616455e+00 -9.956394e-01 1.768592e+00 1.496447e-03 1.228364e-03 7.629015e-05
N -1.597172e+00 -9.115645e-01 6.920349e+00 3.292600e-05 1.376229e-04 -6.566850e-04
N -1.645082e+00 -9.215272e-01 -3.326698e+00 -4.210872e-04 5.396132e-04 -3.273899e-04
