108
Energy=-1123293.223191 Lattice="9.476053 0.000000 0.000000 -4.739229 8.202135 0.000000 -0.000742 -0.000902 15.303328" Stress="-0.000047 0.000031 -0.000002 0.000031 -0.000039 -0.000004 -0.000002 -0.000004 0.000013" Properties=species:S:1:pos:R:3:forces:R:3
Al 1.556809 0.881853 2.486321 0.002444 -0.002885 -0.013753
Al 1.562722 0.889404 7.513266 -0.000408 -0.007915 -0.002285
Al 1.555723 0.900441 -2.775245 0.003173 -0.013692 0.002674
Al -0.012115 3.597094 2.484792 0.003116 -0.000355 -0.008446
Al -0.004507 3.603245 7.514620 -0.001183 -0.000492 -0.002708
Al -0.002290 3.609668 -2.760167 -0.001497 -0.001331 -0.002609
Al 3.165970 -1.885821 2.488175 0.000839 0.006756 -0.012898
Al 3.167739 -1.884022 7.512184 -0.002600 0.002129 -0.002989
Ga 3.169896 -1.876649 -2.758771 -0.003737 0.001548 -0.002072
Al -4.779972 0.884083 2.482363 -0.002107 -0.001944 -0.010168
Al -4.785425 0.897334 7.511655 0.001137 -0.011326 -0.003288
Al -4.789599 0.874169 -2.778730 0.003392 -0.000735 0.006980
Ga -6.350802 3.611494 2.467002 -0.000576 -0.001241 -0.006557
Al -6.346985 3.608202 7.513799 0.000647 -0.001089 -0.000345
Al -6.346214 3.602776 -2.759831 -0.000081 -0.001417 -0.000286
Al -3.182625 -1.873910 2.479669 0.002104 0.002598 -0.008916
Ga -3.174695 -1.877521 7.518165 -0.000514 0.001506 -0.001169
Ga -3.171576 -1.879380 -2.759527 -0.000098 0.001825 -0.002085
Al -1.655259 0.881469 2.466467 0.014203 -0.000654 -0.001974
Al -1.653233 0.887852 7.511383 0.013060 -0.002036 -0.002805
Ga -1.645101 0.901352 -2.762669 0.013406 -0.007199 -0.005354
Ga -3.214143 3.604712 2.486567 0.012834 0.006545 -0.009435
Al -3.216155 3.607019 7.511741 0.011183 0.004267 -0.003076
Al -3.216109 3.608001 -2.759232 0.010162 0.003533 -0.001966
Ga -0.032949 -1.863260 2.487502 0.012135 0.007104 -0.011776
Ga -0.040013 -1.872080 7.516071 0.013366 0.008490 -0.005338
Al -0.046348 -1.880841 -2.769561 0.013818 0.006671 -0.000936
Ga -0.008717 1.791966 5.003946 -0.013287 -0.009501 -0.005959
Al -0.009983 1.794623 -5.288513 -0.005834 -0.005378 -0.000067
Al -0.002881 1.802286 -0.250595 -0.008990 -0.009244 0.028002
Al 3.170571 -3.693446 5.003691 -0.013219 -0.004224 -0.002893
Ga 3.170589 -3.690450 -5.276777 -0.013367 -0.006613 -0.003790
Al 3.173178 -3.687715 -0.246471 -0.011071 -0.005137 0.028720
Al 1.598625 -0.987856 4.997871 -0.006189 0.012408 0.001029
Al 1.605375 -0.978390 -5.277432 -0.012607 0.007614 -0.004596
Ga 1.605554 -0.976226 -0.223144 -0.014867 0.011894 0.027287
Al 3.125964 1.796270 4.998914 -0.000200 -0.003118 -0.001388
Al 3.126922 1.800431 -5.279856 -0.000440 -0.002591 -0.001655
Al 3.137499 1.810173 -0.198843 -0.002985 -0.007285 0.018382
Ga 6.298780 -3.689878 4.998922 0.000610 0.000006 -0.000427
Al 6.302284 -3.694669 -5.275516 0.000559 0.002017 -0.000817
Ga 6.304927 -3.688078 -0.232143 0.000440 -0.000799 0.036798
Al 4.732036 -0.978745 5.000063 -0.001739 0.011886 -0.002384
Al 4.734900 -0.980308 -5.283628 -0.002161 0.012735 -0.000509
Ga 4.738447 -0.973293 -0.225610 -0.000660 0.019466 0.032930
Al -3.217929 1.798088 5.001975 0.002881 -0.002223 -0.002969
Ga -3.212574 1.797918 -5.277536 0.001996 -0.001257 -0.001826
Al -3.212788 1.815826 -0.201302 -0.000014 -0.007245 0.018426
Al -0.039819 -3.690416 5.003247 0.000714 0.003426 -0.005238
Al -0.045235 -3.686513 -5.274632 0.002302 0.001035 -0.002304
Al -0.039377 -3.682794 -0.249467 0.001847 0.001144 0.029669
Al -1.617280 -0.956309 4.986777 0.006653 0.003321 0.000831
Al -1.603361 -0.955501 -5.284853 -0.000639 0.004164 0.000373
Al -1.607508 -0.972053 -0.244186 0.002000 0.013920 0.027558
N 1.561043 0.889469 4.403840 0.018781 -0.021180 -0.005391
N 1.561044 0.896010 -5.875214 0.000023 -0.011919 0.004210
N 1.561606 0.901901 -0.839829 0.001249 0.005583 -0.001050
N -0.017044 3.607580 4.411485 -0.015793 0.008403 -0.015655
N -0.001544 3.604266 -5.874529 0.015158 -0.009855 -0.006038
N -0.002926 3.610155 -0.842306 -0.019478 -0.009142 -0.002570
N 3.167086 -1.886287 4.405708 -0.001302 0.002256 -0.000387
N 3.169101 -1.879949 -5.875466 -0.002235 0.020785 -0.006220
N 3.171354 -1.880054 -0.832898 -0.001627 -0.019269 0.011393
N -4.784071 0.895698 4.403154 0.000199 -0.011596 0.002141
N -4.784630 0.895385 -5.876523 -0.016083 -0.022160 -0.003287
N -4.783671 0.908379 -0.835406 0.003315 0.003802 -0.001096
N -6.355598 3.594973 4.392643 0.020085 -0.005130 0.017106
N -6.347576 3.608589 -5.872656 0.000263 0.000601 0.001346
N -6.342164 3.607967 -0.835379 0.016559 -0.008101 -0.003990
N -3.179284 -1.874561 4.399311 0.000169 0.019057 -0.006400
N -3.179279 -1.876178 -5.862916 0.002324 0.000341 0.021703
N -3.170344 -1.877079 -0.834291 0.015822 0.011392 0.010857
N -1.659172 0.869639 4.419860 -0.003088 -0.003726 -0.007867
N -1.633736 0.888869 -5.860541 0.024115 -0.012454 -0.007199
N -1.649039 0.902472 -0.843349 0.010571 -0.005996 0.033377
N -3.215982 3.604877 4.409684 0.011147 0.004457 0.025503
N -3.219588 3.609295 -5.875936 -0.003736 0.017852 -0.009171
N -3.214589 3.613377 -0.837820 0.012101 0.005833 0.007168
N -0.000170 -1.854113 4.411914 -0.005173 -0.002371 0.024318
N -0.042794 -1.875442 -5.868172 0.010696 0.005084 0.024953
N -0.043294 -1.876344 -0.838278 -0.004910 -0.002011 -0.001312
N -0.006009 1.790702 1.891761 -0.011252 -0.004674 -0.025001
N -0.004009 1.792965 6.923167 -0.010683 -0.005206 0.025264
N 0.008029 1.807735 -3.361060 -0.000302 0.001370 -0.004558
N 3.180017 -3.692023 1.899209 0.000647 0.005538 -0.032966
N 3.170764 -3.693189 6.918902 -0.011109 -0.004106 0.003232
N 3.171473 -3.691415 -3.355130 -0.011284 -0.025111 0.018770
N 1.606171 -0.949187 1.853390 0.006137 0.004513 -0.007104
N 1.611532 -0.952240 6.929530 0.001929 0.006193 -0.004202
N 1.600504 -0.976362 -3.362980 -0.029353 0.016231 -0.001326
N 3.132229 1.808046 1.829267 -0.000344 -0.025672 -0.019798
N 3.126538 1.799316 6.916968 0.000928 -0.000230 0.000720
N 3.126907 1.796034 -3.363718 0.001321 -0.000857 0.000057
N 6.301451 -3.677899 1.856352 -0.021262 0.008573 -0.013941
N 6.310252 -3.691038 6.921514 -0.002449 -0.020162 0.015504
N 6.302848 -3.693961 -3.357431 0.000122 -0.019245 -0.005497
N 4.751591 -0.935260 1.868920 -0.008653 -0.003996 -0.005945
N 4.731288 -0.977937 6.916502 -0.018113 0.021725 -0.004209
N 4.737819 -0.963353 -3.353621 -0.000939 0.025173 -0.014967
N -3.218749 1.791553 1.872830 0.003742 -0.017702 -0.031179
N -3.217620 1.797646 6.917575 0.002317 -0.001080 0.001692
N -3.216907 1.802621 -3.356088 -0.015545 0.007285 0.014247
N -0.038482 -3.680335 1.890837 0.003429 0.001760 -0.049061
N -0.041007 -3.688897 6.918073 0.001011 -0.018692 -0.006386
N -0.043015 -3.691172 -3.358046 0.002208 0.000161 0.002351
N -1.608730 -0.958047 1.905721 -0.017549 0.014096 -0.035364
N -1.609220 -0.959319 6.926732 0.000344 0.026467 -0.015584
N -1.598844 -0.981258 -3.359498 0.015605 0.008029 -0.010795
