108
Energy=-9.401944e+05 Lattice="9.461619e+00 0.000000e+00 0.000000e+00 -4.733973e+00 8.186769e+00 0.000000e+00 -2.192525e-03 -2.803838e-03 1.523435e+01" Stress="1.899687e-03 -3.565820e-04 -4.356213e-07 -3.476888e-04 9.288794e-04 -1.317154e-04 7.470683e-06 -1.272353e-04 3.561460e-03" Properties=species:S:1:pos:R:3:forces:R:3 Config_type=AlGaN_super3_11_2_15.xyz
Al 1.560821e+00 8.734254e-01 2.393957e+00 -1.917943e-04 -2.883486e-04 -2.717618e-05
Al 1.557788e+00 8.669725e-01 7.480097e+00 1.760113e-04 -2.121372e-04 3.162232e-04
Al 1.559937e+00 8.826818e-01 -2.710982e+00 -1.017852e-04 -7.917967e-04 -6.428682e-04
Al -2.156237e-02 3.597639e+00 2.374294e+00 1.176350e-03 -1.143690e-04 7.378049e-04
Al -2.919816e-02 3.596880e+00 7.495738e+00 -3.085446e-04 1.827454e-04 2.804177e-05
Al -1.641890e-02 3.592637e+00 -2.705031e+00 1.222237e-05 3.899736e-04 1.811987e-04
Al 3.140185e+00 -1.861513e+00 2.428721e+00 -6.141846e-04 2.723370e-05 8.822920e-04
Al 3.135704e+00 -1.859996e+00 7.464931e+00 -1.849193e-04 -4.849988e-05 1.673729e-04
Al 3.137703e+00 -1.852109e+00 -2.720794e+00 2.743669e-04 -4.053627e-04 -1.248188e-03
Al -4.762792e+00 8.685145e-01 2.398895e+00 -9.490383e-04 -5.038155e-05 6.732605e-04
Al -4.766118e+00 8.658926e-01 7.481224e+00 1.562438e-04 -1.850004e-04 1.288552e-04
Al -4.764357e+00 8.770283e-01 -2.712474e+00 2.757881e-04 1.042167e-04 -4.738047e-04
Al -6.342879e+00 3.588156e+00 2.403794e+00 1.621987e-04 1.145631e-04 5.393904e-05
Al -6.330160e+00 3.590744e+00 7.478087e+00 1.351253e-04 1.380109e-04 7.516985e-06
Al -6.344435e+00 3.584951e+00 -2.711185e+00 -1.215606e-03 -4.916697e-04 4.967978e-04
Al -3.175921e+00 -1.862053e+00 2.411139e+00 -9.466270e-04 -6.927714e-04 2.586648e-04
Al -3.177294e+00 -1.853526e+00 7.479791e+00 -8.438735e-05 2.485653e-04 3.052260e-05
Ga -3.182806e+00 -1.862321e+00 -2.714578e+00 -1.766287e-04 -2.101284e-05 -6.460373e-05
Al -1.593491e+00 8.609415e-01 2.392884e+00 -7.299705e-04 2.534543e-03 4.271435e-04
Al -1.602493e+00 8.665154e-01 7.490857e+00 4.635874e-04 -3.467894e-04 1.785510e-04
Al -1.596685e+00 8.854448e-01 -2.710643e+00 -8.676604e-05 -2.754838e-04 -4.317656e-04
Ga -3.167266e+00 3.603756e+00 2.403616e+00 -1.668181e-04 -2.001233e-04 2.502068e-04
Al -3.179270e+00 3.605938e+00 7.482357e+00 1.353588e-04 1.398763e-04 -2.086206e-04
Ga -3.170936e+00 3.591486e+00 -2.705332e+00 4.012559e-04 3.075760e-05 1.631212e-04
Al -2.783032e-02 -1.850945e+00 2.438812e+00 2.165183e-05 1.366108e-04 1.247107e-03
Al -2.179551e-02 -1.855814e+00 7.465616e+00 9.096132e-05 -2.234538e-04 1.318128e-04
Ga -1.463735e-02 -1.847601e+00 -2.726351e+00 2.019460e-05 9.177086e-05 -2.353694e-04
Ga -1.914186e-02 1.773253e+00 4.944072e+00 -1.466928e-04 1.122774e-04 2.089786e-04
Al -2.171654e-02 1.778860e+00 -5.234635e+00 -1.495313e-04 2.157195e-04 -1.143565e-04
Al -2.339776e-02 1.794112e+00 -1.624102e-01 6.692378e-04 2.620896e-04 9.488649e-05
Al 3.131994e+00 -3.666599e+00 4.957910e+00 3.564210e-04 3.902313e-04 7.547109e-04
Al 3.139862e+00 -3.674855e+00 -5.245610e+00 -1.518587e-04 3.579833e-04 5.813309e-05
Al 3.153364e+00 -3.682329e+00 -1.565507e-01 3.467479e-05 1.245657e-04 -3.030392e-04
Al 1.561655e+00 -9.563888e-01 4.940907e+00 -4.397167e-04 8.462343e-05 6.728919e-05
Al 1.565822e+00 -9.451348e-01 -5.251127e+00 -3.021655e-04 -9.101786e-05 -1.424771e-03
Ga 1.571625e+00 -9.409535e-01 -1.300802e-01 -4.185769e-04 1.749612e-04 -5.984551e-04
Al 3.130742e+00 1.770102e+00 4.943144e+00 1.039176e-04 -1.148844e-04 1.605651e-04
Al 3.129466e+00 1.780975e+00 -5.234390e+00 1.576721e-04 -2.788631e-05 1.808773e-05
Al 3.126130e+00 1.787957e+00 -1.616705e-01 -6.503330e-04 4.614894e-04 1.526098e-04
Ga 6.285681e+00 -3.676446e+00 4.945373e+00 1.637646e-04 8.523952e-05 1.992387e-04
Al 6.288065e+00 -3.683498e+00 -5.249993e+00 4.906524e-05 5.461004e-05 -2.235270e-04
Al 6.279682e+00 -3.699429e+00 -1.410754e-01 2.639006e-04 -4.088000e-04 6.763502e-05
Al 4.702019e+00 -9.496589e-01 4.940295e+00 -2.992103e-04 2.258808e-05 -7.279748e-05
Al 4.705529e+00 -9.442386e-01 -5.245858e+00 -3.172813e-04 -6.962520e-05 9.513260e-05
Ga 4.700978e+00 -9.449070e-01 -1.381803e-01 -1.764192e-04 1.696091e-04 -2.378409e-04
Ga -3.190876e+00 1.774085e+00 4.957431e+00 1.747370e-04 -2.522115e-04 2.335413e-04
Al -3.180727e+00 1.777460e+00 -5.249518e+00 1.799291e-04 -3.801191e-05 -3.166145e-04
Al -3.175925e+00 1.777207e+00 -1.504358e-01 -3.096367e-05 3.109126e-05 4.810294e-05
Al -2.625061e-02 -3.671900e+00 4.953809e+00 -3.113249e-04 4.907461e-04 1.525949e-04
Al -2.582017e-02 -3.678328e+00 -5.256311e+00 1.053344e-04 -1.204341e-04 -1.462217e-04
Ga -3.486715e-02 -3.691167e+00 -1.353276e-01 -2.873524e-05 -2.317287e-04 8.241396e-05
Al -1.599225e+00 -9.537141e-01 4.945787e+00 2.821985e-04 -3.806661e-05 8.329562e-05
Al -1.597748e+00 -9.407120e-01 -5.253757e+00 -1.347290e-04 2.582753e-05 -1.017000e-03
Ga -1.600425e+00 -9.318364e-01 -1.250786e-01 -3.058491e-04 -3.974439e-05 -6.774270e-04
N 1.593564e+00 8.479210e-01 4.313496e+00 3.199604e-04 6.762305e-05 -2.368481e-04
N 1.556602e+00 8.739510e-01 -5.837519e+00 1.375596e-04 7.548803e-05 7.384539e-05
N 1.552518e+00 9.166788e-01 -7.829349e-01 3.594905e-04 -3.532580e-04 -2.335460e-04
N -6.940363e-02 3.621548e+00 4.290124e+00 1.240711e-04 -3.786028e-04 -5.166731e-04
N -2.477284e-02 3.596818e+00 -5.831746e+00 -1.223458e-04 -6.947523e-05 7.769589e-05
N -1.910735e-02 3.600601e+00 -7.701670e-01 -4.298410e-04 -1.052416e-04 -1.496176e-04
N 3.134060e+00 -1.865425e+00 4.350008e+00 -1.106305e-04 1.156678e-04 -3.234011e-05
N 3.136652e+00 -1.858773e+00 -5.852760e+00 3.228151e-05 1.280922e-04 -3.269161e-04
N 3.132903e+00 -1.902083e+00 -8.113699e-01 -7.514627e-05 -6.747421e-05 8.412939e-04
N -4.799135e+00 8.482049e-01 4.315915e+00 2.687499e-04 1.438863e-04 -1.242248e-05
N -4.762210e+00 8.719374e-01 -5.840047e+00 1.637475e-04 3.179893e-05 3.902837e-05
N -4.758282e+00 9.205611e-01 -7.850723e-01 9.751394e-04 -5.040782e-04 -4.740426e-04
N -6.294855e+00 3.569373e+00 4.322737e+00 -8.272558e-05 -4.014253e-05 -4.256438e-05
N -6.330480e+00 3.593993e+00 -5.846008e+00 -1.012796e-04 -9.836791e-06 1.170989e-04
N -6.376662e+00 3.577598e+00 -7.878392e-01 -2.944707e-06 3.776602e-05 -6.804486e-05
N -3.176920e+00 -1.815804e+00 4.326841e+00 -1.035774e-04 3.194254e-04 -1.472844e-04
N -3.176321e+00 -1.855556e+00 -5.835709e+00 -1.017251e-04 1.514952e-04 2.289783e-06
N -3.173869e+00 -1.905939e+00 -7.401031e-01 -5.780197e-05 9.611636e-05 6.258729e-06
N -1.604846e+00 8.293140e-01 4.300189e+00 2.401109e-04 -4.892135e-04 3.503868e-04
N -1.598790e+00 8.759824e-01 -5.836901e+00 3.710305e-04 -2.366874e-04 2.442862e-04
N -1.598783e+00 9.222435e-01 -7.838792e-01 -6.982119e-04 -5.676569e-04 -5.539033e-04
N -3.176681e+00 3.647724e+00 4.381283e+00 9.436953e-05 -5.429438e-04 -7.861405e-04
N -3.175342e+00 3.605539e+00 -5.834219e+00 -1.140933e-05 -1.754047e-04 2.016093e-04
N -3.138080e+00 3.580350e+00 -7.213015e-01 3.074738e-04 -2.749025e-04 5.348062e-05
N -2.394939e-02 -1.858142e+00 4.360178e+00 -1.030429e-05 1.817416e-04 -9.743878e-05
N -1.828203e-02 -1.853284e+00 -5.846417e+00 6.724879e-05 -2.535894e-04 3.306797e-05
N -1.945608e-02 -1.853530e+00 -7.665242e-01 7.255090e-05 -1.191127e-04 -7.489075e-07
N -1.993737e-02 1.774816e+00 1.772794e+00 -3.492891e-04 -1.017497e-04 5.820684e-04
N -2.384411e-02 1.777564e+00 6.922960e+00 -7.965496e-05 1.402774e-04 -1.317275e-04
N -2.095752e-02 1.781453e+00 -3.309301e+00 -1.153634e-04 -2.888323e-04 3.691621e-04
N 3.180685e+00 -3.645926e+00 1.762758e+00 -9.206853e-04 -2.513125e-04 -9.732237e-04
N 3.137380e+00 -3.682515e+00 6.876953e+00 5.274473e-05 1.543856e-04 3.231384e-05
N 3.178654e+00 -3.655827e+00 -3.330408e+00 -1.208485e-04 -5.224322e-06 9.427135e-05
N 1.556265e+00 -9.614396e-01 1.857071e+00 9.867837e-04 2.238094e-03 2.125776e-04
N 1.558335e+00 -9.493975e-01 6.866134e+00 -3.590188e-04 3.240212e-04 -1.381316e-04
N 1.603057e+00 -9.226711e-01 -3.342716e+00 -3.217160e-04 1.570292e-03 1.962041e-03
N 3.131037e+00 1.779072e+00 1.769232e+00 1.333960e-04 -2.453154e-05 3.438565e-04
N 3.126979e+00 1.776943e+00 6.864730e+00 1.035315e-05 -7.794702e-05 -2.132191e-04
N 3.130129e+00 1.782091e+00 -3.315309e+00 -4.147209e-05 -5.210035e-04 3.190300e-04
N 6.290138e+00 -3.682042e+00 1.790696e+00 4.961880e-05 3.230925e-05 2.837676e-04
N 6.283154e+00 -3.681093e+00 6.925159e+00 1.136952e-04 -9.313729e-05 1.818966e-04
N 6.286119e+00 -3.726923e+00 -3.336294e+00 1.064318e-04 -3.050647e-04 -1.676724e-04
N 4.702648e+00 -9.513243e-01 1.847652e+00 8.362920e-04 2.239761e-04 -4.535088e-04
N 4.710871e+00 -9.486062e-01 6.865194e+00 -1.570336e-04 6.587879e-07 -1.815842e-04
N 4.670343e+00 -9.205551e-01 -3.331836e+00 -2.545091e-04 2.394210e-04 4.287610e-04
N -3.180566e+00 1.730621e+00 1.774760e+00 1.005330e-03 -3.940734e-04 -6.279844e-04
N -3.182276e+00 1.777064e+00 6.934049e+00 1.071242e-04 -8.968075e-05 2.162735e-04
N -3.179958e+00 1.732816e+00 -3.334129e+00 8.224172e-05 -1.524512e-04 1.943571e-04
N -6.484630e-02 -3.648009e+00 1.840357e+00 -8.106222e-04 -1.792543e-03 -3.389137e-04
N -2.634341e-02 -3.678952e+00 6.876167e+00 -2.344920e-05 -2.934243e-05 -3.405800e-05
N -6.606615e-02 -3.706708e+00 -3.343853e+00 1.179900e-03 6.967552e-04 -8.399025e-04
N -1.599740e+00 -9.519047e-01 1.853509e+00 9.600507e-04 -6.957457e-04 -8.311393e-04
N -1.601349e+00 -9.471498e-01 6.870859e+00 -2.623125e-04 3.175357e-05 -1.609893e-04
N -1.601445e+00 -8.976883e-01 -3.352639e+00 1.444593e-04 5.863063e-04 1.136666e-03
