108
Energy=-1123296.433449 Lattice="9.478125 0.000000 0.000000 -4.742688 8.205157 0.000000 -0.005752 -0.000889 15.276771" Stress="0.000003 -0.000001 -0.000001 -0.000001 0.000000 -0.000001 -0.000001 -0.000001 0.000007" Properties=species:S:1:pos:R:3:forces:R:3
Al 1.562912 0.876297 2.403649 0.000091 0.000661 -0.000135
Al 1.562380 0.875486 7.499030 0.000201 0.000106 0.000081
Al 1.563944 0.885515 -2.713424 -0.000272 0.000368 -0.000247
Al -0.035304 3.604998 2.399210 0.000216 -0.000249 -0.000372
Al -0.033410 3.599076 7.499756 -0.000097 -0.000011 0.000104
Al -0.015415 3.589735 -2.699643 0.000059 -0.000331 -0.000329
Al 3.150727 -1.867116 2.420656 -0.000218 -0.000559 -0.000012
Al 3.133902 -1.856291 7.480418 0.000240 0.000090 0.000084
Ga 3.136057 -1.859468 -2.703108 -0.000331 0.000076 0.000029
Al -4.767056 0.871658 2.418719 0.000010 -0.000364 -0.000312
Al -4.777168 0.876440 7.473312 0.000407 -0.000210 -0.000106
Al -4.775099 0.888517 -2.699855 -0.000512 0.000232 0.000132
Ga -6.345414 3.589150 2.403679 0.000115 -0.000058 -0.000249
Al -6.341105 3.587604 7.506461 0.000133 0.000035 0.000091
Al -6.333375 3.593025 -2.716196 0.000003 0.000189 0.000144
Al -3.186954 -1.848531 2.418725 0.000545 0.000143 -0.000066
Ga -3.195747 -1.854740 7.503949 -0.000248 0.000165 0.000070
Ga -3.173294 -1.864882 -2.717555 0.000006 -0.000060 0.000015
Al -1.610504 0.874300 2.382200 0.000547 -0.000367 -0.000165
Al -1.609169 0.883774 7.494213 -0.000065 0.000122 0.000293
Ga -1.589613 0.883465 -2.682126 0.000664 -0.000482 0.000013
Ga -3.172228 3.601479 2.405283 0.000142 0.000179 0.000546
Al -3.188526 3.601269 7.467303 0.000257 -0.000309 0.000201
Al -3.192686 3.611871 -2.680978 -0.000251 -0.000268 0.000295
Ga -0.027852 -1.854731 2.421944 0.000034 0.000044 0.000062
Ga -0.015882 -1.860529 7.489618 0.000351 0.000060 -0.000035
Al -0.017412 -1.867465 -2.713272 -0.000266 0.000116 0.000022
Ga -0.032961 1.773110 4.947867 -0.000139 -0.000004 0.000108
Al -0.005250 1.777786 -5.257057 -0.000501 -0.000452 -0.000002
Al -0.020121 1.784229 -0.139103 -0.000190 0.000527 0.000800
Al 3.128516 -3.677407 4.963678 0.000124 0.000165 0.000090
Ga 3.141490 -3.686173 -5.254876 -0.000124 0.000134 0.000072
Al 3.136509 -3.706716 -0.150082 -0.000121 0.000304 0.000065
Al 1.570271 -0.951777 4.943627 0.000070 0.000198 0.000610
Al 1.557430 -0.938349 -5.244409 -0.000192 0.000171 -0.000032
Ga 1.548609 -0.944959 -0.146415 -0.000537 0.000311 0.000538
Al 3.143196 1.772707 4.965068 -0.000024 0.000100 0.000327
Al 3.129959 1.780437 -5.250764 0.000384 -0.000128 -0.000000
Al 3.142139 1.783585 -0.165244 -0.001096 0.001003 0.000508
Ga 6.296528 -3.681621 4.954025 -0.000183 0.000123 -0.000031
Al 6.308186 -3.698998 -5.244964 0.000052 0.000035 0.000067
Ga 6.300211 -3.698937 -0.148135 0.000262 -0.000313 0.000686
Al 4.706405 -0.941237 4.934561 -0.000100 -0.000189 -0.000223
Al 4.711151 -0.939840 -5.256216 -0.000074 0.000138 -0.000130
Ga 4.723770 -0.931820 -0.113776 0.000012 -0.000143 -0.000588
Al -3.193221 1.776693 4.953825 -0.000025 0.000014 0.000245
Ga -3.193330 1.778171 -5.252449 0.000102 0.000044 0.000545
Al -3.189281 1.791416 -0.151334 0.000175 0.000105 -0.000191
Al -0.018068 -3.692529 4.971347 0.000261 0.000743 0.000389
Al -0.028742 -3.684737 -5.237070 0.000117 -0.000217 0.000052
Al -0.017816 -3.690785 -0.182046 0.000099 0.000513 -0.000075
Al -1.609683 -0.938754 4.944111 -0.000402 -0.000249 -0.000009
Al -1.588599 -0.947770 -5.244849 -0.000593 -0.001535 0.000799
Al -1.592269 -0.945995 -0.137624 0.000090 0.000026 0.000047
N 1.597106 0.855571 4.321572 0.000429 -0.000088 -0.000395
N 1.561961 0.870802 -5.857501 0.000185 -0.000107 -0.000022
N 1.554651 0.923181 -0.788901 0.000377 -0.000154 -0.000014
N -0.074326 3.628760 4.307498 -0.000139 0.000041 0.000309
N 0.017074 3.584263 -5.869788 0.000086 -0.000432 -0.000179
N -0.061345 3.576346 -0.780471 -0.000255 -0.000057 0.000396
N 3.135337 -1.871545 4.342762 -0.000018 0.000064 -0.000204
N 3.135670 -1.815347 -5.874830 0.000026 0.000190 -0.000125
N 3.145039 -1.904454 -0.737409 -0.000264 -0.000759 0.000167
N -4.768310 0.880864 4.343562 0.000256 0.000120 -0.000391
N -4.805220 0.851432 -5.890681 -0.000521 0.000092 0.000039
N -4.766629 0.917564 -0.784153 0.001388 -0.000288 0.000180
N -6.299789 3.579306 4.374929 -0.000147 -0.000565 -0.000199
N -6.335384 3.603407 -5.845537 -0.000164 0.000047 -0.000005
N -6.303542 3.580605 -0.793739 0.000010 -0.000294 0.000222
N -3.182526 -1.814580 4.332691 0.000262 0.000174 -0.000086
N -3.180014 -1.861175 -5.790540 0.000146 -0.000107 0.000040
N -3.142725 -1.837595 -0.747225 0.000260 0.000502 0.000224
N -1.651693 0.853358 4.303061 0.000275 0.000309 -0.000042
N -1.565366 0.847071 -5.867346 0.001021 0.002093 -0.000406
N -1.598405 0.876299 -0.697403 -0.000282 -0.000377 0.000365
N -3.185285 3.607145 4.395469 0.000125 -0.000235 0.000025
N -3.227284 3.630598 -5.900648 -0.000090 0.000194 -0.000187
N -3.181546 3.608899 -0.758318 0.000020 -0.000444 0.000179
N -0.025156 -1.863855 4.405681 -0.000081 -0.000614 -0.000021
N -0.016806 -1.864415 -5.807038 0.000384 -0.000044 0.000272
N -0.062849 -1.879143 -0.789805 0.000081 -0.000614 0.000114
N -0.016669 1.783025 1.794909 -0.000404 -0.000150 -0.000351
N -0.024898 1.779825 6.930315 -0.000282 0.000170 -0.000017
N 0.019673 1.803270 -3.339764 0.000018 0.000566 -0.000191
N 3.177562 -3.664976 1.768758 0.000063 0.000474 -0.000469
N 3.139947 -3.684358 6.889202 -0.000062 0.000065 -0.000127
N 3.140137 -3.739074 -3.279618 -0.000016 -0.000022 -0.000075
N 1.599417 -0.931204 1.834422 -0.000200 0.000071 -0.000445
N 1.598321 -0.921366 6.860889 -0.000282 -0.000205 -0.000229
N 1.522493 -0.922765 -3.324545 -0.000446 0.000007 -0.000034
N 3.136888 1.732752 1.757579 0.000462 -0.000729 -0.000521
N 3.127507 1.783462 6.884654 0.000012 0.000067 -0.000226
N 3.139102 1.781314 -3.326138 -0.000082 -0.000019 -0.000201
N 6.259354 -3.662829 1.835994 -0.000635 0.000192 -0.000881
N 6.295115 -3.733267 6.927198 0.000266 -0.000188 0.000074
N 6.300143 -3.739695 -3.324236 -0.000059 -0.000289 -0.000018
N 4.716342 -0.946712 1.862893 -0.000133 0.000727 0.000899
N 4.673231 -0.928481 6.851605 -0.000302 0.000294 -0.000130
N 4.716613 -0.895068 -3.347925 -0.000017 -0.000189 -0.000381
N -3.193082 1.740412 1.769837 -0.000654 -0.000571 -0.000055
N -3.186314 1.776785 6.880572 0.000052 0.000196 -0.000253
N -3.220801 1.809021 -3.272629 0.000021 0.000571 -0.000140
N -0.020378 -3.684539 1.727904 0.000147 0.000109 -0.000437
N -0.031124 -3.732699 6.875469 -0.000244 -0.000223 0.000020
N -0.015620 -3.688658 -3.308562 0.000259 -0.000070 -0.000090
N -1.638275 -0.932352 1.778577 -0.000626 0.000036 -0.000363
N -1.608933 -0.899647 6.851419 0.000211 -0.000278 -0.000189
N -1.555944 -0.962413 -3.343554 0.000358 0.000001 -0.000242
