108
Energy=-528215.310265 Lattice="9.407509 0.000000 0.000000 -4.703793 8.147264 0.000000 0.000802 -0.000513 15.081522" Stress="0.000001 -0.000000 0.000000 -0.000000 0.000000 -0.000000 0.000000 -0.000000 0.000003" Properties=species:S:1:pos:R:3:forces:R:3
Al 1.545932 0.868021 2.370375 -0.000008 -0.000023 -0.000168
Al 1.546875 0.868250 7.387197 0.000012 -0.000025 -0.000017
Al 1.549101 0.873288 -2.666582 -0.000016 -0.000039 -0.000016
Al -0.022148 3.582247 2.366008 -0.000015 -0.000023 -0.000162
Al -0.022692 3.582229 7.391816 0.000004 -0.000003 -0.000004
Al -0.021961 3.581810 -2.668578 0.000004 -0.000005 -0.000018
Al 3.115958 -1.850047 2.370513 -0.000031 0.000001 -0.000162
Al 3.115307 -1.851401 7.387221 -0.000006 0.000010 0.000005
Al 3.121785 -1.848527 -2.666286 -0.000042 -0.000001 0.000007
Al -4.725737 0.866174 2.366169 0.000005 -0.000037 -0.000173
Al -4.727105 0.866800 7.390786 0.000009 -0.000022 -0.000011
Al -4.726055 0.866177 -2.669206 0.000003 -0.000011 -0.000026
Al -6.295384 3.581023 2.370435 -0.000002 0.000001 -0.000161
Al -6.295122 3.579892 7.387231 0.000001 -0.000003 0.000002
Al -6.298436 3.575699 -2.666639 0.000002 -0.000007 0.000017
Al -3.166568 -1.854192 2.384643 0.000012 0.000013 -0.000153
Al -3.158935 -1.850436 7.386476 0.000001 -0.000006 -0.000014
Al -3.171399 -1.852284 -2.676980 -0.000030 0.000001 -0.000006
Al -1.590678 0.876167 2.384337 0.000030 -0.000034 -0.000131
Al -1.590223 0.867596 7.386459 0.000040 -0.000022 -0.000056
Al -1.594962 0.879446 -2.676923 0.000053 -0.000047 0.000002
Al -3.156787 3.580773 2.370531 0.000027 -0.000010 -0.000175
Al -3.156070 3.581640 7.387217 0.000025 0.000000 -0.000020
Al -3.155456 3.574885 -2.666156 0.000033 -0.000004 -0.000015
Al -0.014752 -1.853794 2.381385 0.000012 0.000009 -0.000219
Al -0.022178 -1.849562 7.388309 0.000027 0.000004 -0.000034
Ga -0.018032 -1.852072 -2.671024 0.000163 0.000061 -0.000076
Al -0.020893 1.774067 4.882469 -0.000015 -0.000023 -0.000015
Al -0.021417 1.771896 -5.184275 -0.000008 -0.000003 -0.000025
Al -0.018712 1.778586 -0.149020 -0.000010 -0.000032 0.000313
Al 3.114862 -3.660845 4.878416 -0.000011 -0.000007 -0.000023
Al 3.112679 -3.659653 -5.180554 -0.000008 -0.000001 -0.000035
Al 3.112859 -3.659822 -0.151588 0.000012 -0.000001 0.000300
Al 1.547803 -0.944075 4.881858 -0.000032 0.000030 -0.000060
Al 1.551486 -0.940556 -5.193872 -0.000034 0.000021 -0.000061
Al 1.560949 -0.939723 -0.134716 -0.000019 0.000025 0.000320
Al 3.114241 1.771106 4.877989 0.000015 -0.000004 -0.000010
Al 3.112336 1.772241 -5.179144 0.000012 -0.000000 -0.000025
Al 3.113169 1.771613 -0.151098 0.000021 0.000009 0.000314
Al 6.247951 -3.662567 4.882693 0.000017 0.000002 -0.000007
Al 6.249471 -3.661091 -5.184330 0.000011 0.000003 -0.000020
Al 6.244911 -3.666821 -0.149126 0.000033 -0.000004 0.000326
Al 4.679977 -0.943172 4.882610 0.000011 0.000025 -0.000024
Al 4.679825 -0.944011 -5.183893 0.000007 0.000024 -0.000034
Al 4.673111 -0.944361 -0.149024 0.000014 0.000018 0.000325
Al -3.160266 1.772495 4.882414 0.000029 -0.000016 0.000008
Al -3.159656 1.773036 -5.183858 0.000029 -0.000009 -0.000020
Al -3.162662 1.778821 -0.149026 0.000020 -0.000016 0.000361
Al -0.021799 -3.661826 4.881861 0.000004 -0.000011 -0.000020
Al -0.022930 -3.666649 -5.194041 0.000008 0.000003 -0.000010
Al -0.019101 -3.675585 -0.134651 0.000032 -0.000022 0.000357
Al -1.589939 -0.944374 4.878093 -0.000005 0.000027 -0.000054
Al -1.595406 -0.941232 -5.191878 0.000002 0.000023 -0.000031
Ga -1.598694 -0.939959 -0.130675 0.000099 0.000132 0.000584
N 1.545549 0.867019 4.285880 -0.000053 -0.000083 0.000019
N 1.546268 0.870266 -5.781496 -0.000048 -0.000074 0.000017
N 1.544819 0.865795 -0.745615 -0.000011 -0.000058 0.000204
N -0.021772 3.581822 4.281986 -0.000055 -0.000020 -0.000006
N -0.023585 3.582715 -5.774642 -0.000037 -0.000019 0.000008
N -0.022763 3.582190 -0.748871 -0.000051 -0.000018 0.000200
N 3.114863 -1.850028 4.285826 -0.000057 0.000023 0.000004
N 3.115863 -1.852242 -5.781724 -0.000052 0.000023 0.000023
N 3.112963 -1.849392 -0.747216 -0.000061 0.000032 0.000205
N -4.725832 0.866049 4.282424 0.000013 -0.000055 0.000018
N -4.727908 0.867286 -5.775180 0.000008 -0.000062 0.000007
N -4.725939 0.866013 -0.747179 0.000007 -0.000044 0.000211
N -6.294769 3.581728 4.285868 0.000002 0.000007 0.000023
N -6.297137 3.579529 -5.781513 -0.000015 -0.000010 0.000016
N -6.294168 3.582799 -0.745721 0.000002 -0.000015 0.000195
N -3.162548 -1.852533 4.295880 -0.000019 0.000035 0.000019
N -3.160999 -1.851096 -5.780339 -0.000023 0.000033 0.000020
N -3.200406 -1.873694 -0.765616 -0.000139 -0.000033 0.000111
N -1.590377 0.871771 4.295697 0.000077 -0.000037 0.000034
N -1.590847 0.869710 -5.780304 0.000058 -0.000031 0.000024
N -1.590955 0.914897 -0.765445 0.000065 0.000029 0.000110
N -3.157642 3.581390 4.285819 0.000064 0.000015 0.000006
N -3.155229 3.581525 -5.781741 0.000056 0.000015 0.000021
N -3.159236 3.582459 -0.747132 0.000037 0.000021 0.000191
N -0.018193 -1.852052 4.294416 0.000050 0.000076 0.000040
N -0.022666 -1.849360 -5.774982 0.000039 0.000070 0.000027
N 0.018934 -1.873559 -0.702835 0.000088 0.000017 0.000332
N -0.022634 1.771480 1.771444 -0.000062 -0.000101 -0.000353
N -0.021231 1.773352 6.795892 -0.000052 -0.000066 0.000033
N -0.019794 1.772528 -3.266918 -0.000061 -0.000053 0.000000
N 3.113550 -3.659777 1.769973 -0.000074 -0.000009 -0.000337
N 3.115147 -3.660896 6.792458 -0.000063 -0.000011 0.000025
N 3.112680 -3.659522 -3.260372 -0.000054 0.000004 0.000007
N 1.549662 -0.942421 1.781390 -0.000072 0.000044 -0.000342
N 1.547124 -0.944018 6.796985 -0.000071 0.000054 0.000054
N 1.590379 -0.918118 -3.285867 -0.000042 0.000054 -0.000008
N 3.113364 1.771848 1.769742 -0.000005 -0.000047 -0.000360
N 3.114557 1.771021 6.791768 0.000008 -0.000041 0.000024
N 3.113318 1.771818 -3.261048 0.000003 -0.000024 0.000005
N 6.249660 -3.659290 1.771259 -0.000033 0.000018 -0.000321
N 6.248460 -3.661775 6.796009 -0.000011 0.000007 0.000018
N 6.249834 -3.662537 -3.267038 -0.000023 0.000005 0.000013
N 4.682381 -0.944932 1.771336 -0.000028 0.000064 -0.000370
N 4.681062 -0.942963 6.795757 -0.000021 0.000066 0.000026
N 4.678867 -0.942249 -3.268406 0.000001 0.000064 0.000013
N -3.157497 1.771666 1.771299 0.000045 -0.000034 -0.000366
N -3.159955 1.771494 6.795585 0.000040 -0.000023 0.000045
N -3.161696 1.773202 -3.268363 0.000034 -0.000029 0.000009
N -0.022303 -3.664120 1.781409 0.000044 0.000042 -0.000362
N -0.022238 -3.661184 6.796972 0.000033 0.000018 0.000045
N -0.023034 -3.711184 -3.286007 0.000016 -0.000137 -0.000048
N -1.593313 -0.942629 1.844279 0.000047 0.000079 -0.000498
N -1.590142 -0.944398 6.795339 0.000035 0.000089 0.000062
N -1.632408 -0.919945 -3.280120 -0.000127 0.000160 -0.000039
