108
Energy=-1443724.740812 Lattice="9.517349 0.000000 0.000000 -4.763885 8.238406 0.000000 -0.007265 0.006909 15.365319" Stress="-0.000002 -0.000000 -0.000002 -0.000000 -0.000002 0.000002 -0.000002 0.000002 0.000003" Properties=species:S:1:pos:R:3:forces:R:3
Al 1.561056 0.886587 2.436818 0.001138 -0.001720 -0.000039
Al 1.548508 0.874646 7.510197 0.000052 -0.000007 -0.000004
Al 1.566259 0.877335 -2.713378 0.000380 -0.000290 -0.000268
Al -0.025476 3.615433 2.429840 -0.000326 0.000466 -0.000628
Al -0.044005 3.604869 7.512117 0.000151 -0.000021 0.000338
Al -0.004083 3.614907 -2.695450 -0.000034 0.000099 0.000245
Al 3.153425 -1.865665 2.431862 -0.000114 0.000046 -0.000692
Ga 3.129620 -1.863029 7.545113 0.000142 -0.000283 0.000191
Ga 3.158668 -1.854655 -2.729899 0.000034 0.000119 0.000091
Ga -4.797967 0.875826 2.414518 0.000116 -0.000169 0.000456
Al -4.781169 0.891861 7.537863 -0.000311 -0.000547 -0.001390
Al -4.785817 0.869332 -2.715070 0.000355 -0.000309 0.001331
Ga -6.383558 3.608635 2.392302 0.000053 0.000258 0.000590
Ga -6.368868 3.612498 7.550880 -0.000083 0.000224 0.000229
Al -6.368888 3.623486 -2.703675 0.000314 0.000200 -0.000010
Ga -3.196122 -1.866319 2.388939 0.000208 -0.000081 0.000422
Ga -3.185377 -1.852425 7.554545 -0.000210 -0.000335 0.000549
Al -3.187781 -1.870700 -2.706335 0.000679 0.000457 0.000011
Al -1.597757 0.876385 2.440903 0.000444 -0.001301 -0.000175
Al -1.613059 0.883255 7.524077 0.000134 -0.000170 0.000585
Ga -1.607537 0.862931 -2.729442 0.000293 -0.000049 -0.000015
Ga -3.181740 3.625102 2.435153 -0.000225 0.000241 -0.000006
Al -3.195204 3.610549 7.537179 -0.000326 0.001099 -0.000338
Ga -3.215197 3.618209 -2.720020 -0.000091 0.000098 -0.000335
Ga -0.020271 -1.850211 2.417038 -0.000089 -0.000026 0.000553
Al -0.018074 -1.840981 7.541613 -0.000165 -0.002165 0.000596
Al -0.031536 -1.867834 -2.725909 0.000313 -0.002118 0.000861
Al -0.032809 1.783633 4.969450 0.000243 -0.000005 0.000250
Ga -0.026094 1.773136 -5.288722 -0.000295 0.000404 0.000636
Ga -0.008704 1.787970 -0.126428 -0.000338 0.000049 0.000179
Al 3.149744 -3.708069 4.982175 -0.000296 0.000942 -0.000021
Ga 3.146754 -3.707887 -5.277500 -0.000206 -0.000151 0.000139
Ga 3.168941 -3.695333 -0.135689 -0.000344 0.000511 0.000696
Al 1.557233 -0.941792 4.971503 0.000181 0.000290 0.001143
Al 1.549958 -0.953072 -5.274720 0.000066 -0.001230 0.000893
Ga 1.565808 -0.950433 -0.146991 -0.000703 0.000068 0.001099
Al 3.137386 1.779263 4.993444 -0.000071 -0.000113 0.000194
Ga 3.162202 1.768329 -5.261150 -0.000069 0.000534 0.000940
Al 3.148465 1.793214 -0.181490 -0.000181 -0.000083 -0.000378
Ga 6.311165 -3.709191 4.979007 0.000069 0.000261 0.000064
Ga 6.325203 -3.693694 -5.242001 0.000017 0.000096 0.000733
Al 6.335079 -3.695912 -0.176524 0.000052 -0.000033 -0.000121
Ga 4.726946 -0.944354 4.980070 -0.000528 -0.000071 0.000334
Al 4.750771 -0.935931 -5.264513 0.000549 -0.000903 0.000291
Al 4.747185 -0.951879 -0.159553 -0.000145 0.000025 0.000408
Al -3.188831 1.788799 4.997332 -0.000076 -0.000171 -0.000231
Al -3.203731 1.769827 -5.295107 -0.000592 0.002902 -0.000214
Ga -3.209325 1.777765 -0.145144 0.000076 -0.000062 0.000438
Ga -0.013922 -3.694005 5.004674 0.000064 0.000418 0.000164
Al -0.005593 -3.684836 -5.284055 -0.001870 -0.000314 0.002665
Al -0.040745 -3.693732 -0.167555 -0.000178 0.000117 -0.000120
Al -1.599447 -0.930839 4.993652 0.000630 -0.000311 -0.000207
Al -1.597875 -0.963277 -5.269691 0.000392 0.001210 -0.000356
Al -1.613303 -0.966733 -0.168101 0.000138 -0.000504 0.000700
N 1.562789 0.882881 4.367766 0.000066 -0.000003 -0.000215
N 1.566291 0.824409 -5.937659 0.000387 0.000810 -0.000623
N 1.595439 0.894149 -0.809312 0.000722 0.000384 0.000738
N -0.070219 3.597759 4.346995 0.000058 -0.000157 0.000438
N -0.020957 3.617501 -5.948685 0.000340 -0.000183 -0.000504
N 0.014834 3.635671 -0.790649 0.000274 -0.000037 0.000398
N 3.104779 -1.892093 4.356578 0.000509 -0.000506 -0.000115
N 3.154443 -1.819854 -5.835657 -0.001122 -0.000007 -0.000149
N 3.190865 -1.844555 -0.761455 0.000482 0.000039 -0.000186
N -4.787701 0.931559 4.393656 0.000348 0.000188 -0.000099
N -4.745549 0.849265 -5.918144 0.000447 0.000764 0.000772
N -4.820158 0.849456 -0.790865 0.000061 0.000139 -0.000499
N -6.369762 3.574486 4.375407 0.000237 -0.000275 -0.000364
N -6.331225 3.638098 -5.847301 0.000575 -0.000015 -0.000640
N -6.365180 3.623162 -0.772773 -0.000353 -0.000360 -0.000084
N -3.150722 -1.841951 4.369810 0.000244 0.000097 -0.000219
N -3.187265 -1.824927 -5.837377 -0.000626 -0.000427 -0.000820
N -3.193399 -1.864739 -0.770004 -0.000076 -0.000132 -0.000454
N -1.616971 0.876126 4.372340 0.000370 -0.000252 -0.000237
N -1.652030 0.845960 -5.910584 0.001126 -0.001151 -0.000845
N -1.606751 0.832739 -0.759616 0.000441 -0.000042 -0.000352
N -3.163679 3.598136 4.410638 0.000170 -0.000119 -0.000054
N -3.238604 3.595593 -5.903393 0.000927 -0.002205 -0.000789
N -3.236547 3.646653 -0.746405 0.000036 -0.000409 0.000154
N -0.028065 -1.820641 4.393716 -0.000725 0.000250 -0.000196
N -0.016828 -1.863027 -5.894818 -0.000164 -0.000382 0.000161
N -0.059554 -1.889634 -0.796053 0.000136 0.000259 -0.000031
N -0.018193 1.787963 1.870102 -0.001422 0.000678 -0.000826
N -0.031105 1.788351 6.904141 -0.000146 0.000181 -0.000141
N 0.020245 1.813405 -3.309463 0.000117 0.000211 -0.000211
N 3.199676 -3.672051 1.846181 -0.000146 -0.000931 -0.001184
N 3.146416 -3.740635 6.906378 -0.000340 -0.000322 0.000096
N 3.197587 -3.733894 -3.309672 0.000254 0.000055 0.000043
N 1.608435 -0.924095 1.840207 -0.000222 0.000638 -0.000700
N 1.519501 -0.929293 6.895096 0.000595 0.000683 -0.001620
N 1.515614 -0.930251 -3.348870 0.000502 0.000840 -0.000866
N 3.101417 1.762687 1.737481 -0.000179 -0.000013 0.000107
N 3.142437 1.744697 6.909810 0.000322 -0.000138 0.000105
N 3.152928 1.786322 -3.273507 -0.000632 0.000367 -0.000325
N 6.278312 -3.726661 1.747290 0.000045 0.000001 0.000215
N 6.280134 -3.719445 6.945644 -0.000048 0.000140 -0.000612
N 6.325479 -3.701770 -3.257133 0.000053 -0.000205 -0.000074
N 4.693906 -0.974524 1.760469 -0.000235 0.000181 0.000136
N 4.731075 -0.907270 6.944325 -0.000047 0.000359 -0.000286
N 4.788809 -0.928022 -3.346839 -0.000273 0.000166 -0.000190
N -3.151933 1.764613 1.826394 -0.000588 0.000245 -0.000441
N -3.198781 1.790636 6.924963 0.000055 0.000171 -0.000108
N -3.238406 1.763627 -3.377920 -0.000225 -0.000406 0.000324
N -0.018158 -3.696298 1.748283 -0.000076 -0.000046 -0.000505
N 0.016616 -3.665491 6.975940 0.000791 -0.000403 0.000451
N -0.061651 -3.675544 -3.351343 0.000259 0.000831 -0.001669
N -1.604293 -0.903314 1.749119 -0.000170 0.000971 -0.000251
N -1.566626 -0.927705 6.909785 -0.000810 0.001237 -0.000181
N -1.602106 -1.008408 -3.353270 -0.001744 0.000649 0.000063
