108
Energy=-1.397949e+06 Lattice="9.485216e+00 0.000000e+00 0.000000e+00 -4.749084e+00 8.212467e+00 0.000000e+00 3.944082e-03 -1.710184e-03 1.532478e+01" Stress="-1.165818e-02 1.173297e-03 1.761786e-04 1.167597e-03 -1.065434e-02 -4.581698e-04 1.692624e-04 -4.523794e-04 -6.248441e-03" Properties=species:S:1:pos:R:3:forces:R:3 Config_type=AlGaN_super3_21_1_4.xyz
Al 1.541947e+00 8.631779e-01 2.364015e+00 -1.519304e-03 -1.172326e-02 6.974582e-03
Al 1.548558e+00 8.599804e-01 7.516929e+00 -9.278217e-04 4.505477e-03 4.407161e-03
Al 1.559848e+00 8.523328e-01 -2.738394e+00 5.354649e-03 9.997625e-03 1.308447e-02
Al -1.734986e-02 3.615780e+00 2.405887e+00 -1.009000e-02 1.031984e-02 1.442107e-02
Al -1.354893e-02 3.592116e+00 7.499624e+00 -5.347636e-06 -2.364242e-03 3.398117e-03
Ga -3.147395e-02 3.604695e+00 -2.709282e+00 3.607829e-03 -9.720125e-05 5.228298e-03
Al 3.154365e+00 -1.879388e+00 2.381551e+00 1.239403e-03 1.030376e-03 -2.911369e-03
Ga 3.153690e+00 -1.871096e+00 7.510930e+00 3.505764e-04 -5.117298e-03 3.142338e-03
Al 3.152717e+00 -1.861013e+00 -2.719941e+00 1.902996e-03 1.141257e-03 1.161121e-02
Al -4.761193e+00 8.625304e-01 2.418863e+00 -1.090017e-02 -3.148295e-03 -1.241073e-02
Ga -4.775697e+00 8.712784e-01 7.521583e+00 3.344355e-03 3.671149e-03 4.706179e-03
Al -4.780336e+00 8.790098e-01 -2.701555e+00 -6.633423e-04 1.465502e-03 6.023673e-03
Ga -6.354794e+00 3.593260e+00 2.437449e+00 1.087271e-03 -2.890002e-03 -5.062539e-04
Ga -6.361351e+00 3.603883e+00 7.523786e+00 2.188610e-03 1.650795e-03 2.566425e-03
Al -6.356680e+00 3.603557e+00 -2.728520e+00 1.961699e-03 -4.035356e-04 -6.598692e-03
Al -3.186138e+00 -1.850488e+00 2.435435e+00 -8.412790e-04 1.468671e-03 -1.538980e-02
Ga -3.171463e+00 -1.866576e+00 7.527236e+00 1.805924e-03 -3.579718e-03 4.252971e-03
Al -3.179269e+00 -1.845696e+00 -2.722659e+00 5.252540e-04 -4.119301e-03 8.528477e-03
Ga -1.645640e+00 9.232328e-01 2.428818e+00 3.214297e-03 -3.256949e-03 1.639432e-03
Al -1.603079e+00 8.766678e-01 7.507179e+00 3.545935e-03 3.268880e-03 1.745842e-03
Al -1.634427e+00 8.762307e-01 -2.717235e+00 2.220999e-03 -3.552585e-04 5.461416e-03
Al -3.177062e+00 3.616627e+00 2.414609e+00 6.488364e-03 5.697101e-03 9.815440e-03
Ga -3.176054e+00 3.611286e+00 7.491081e+00 1.060802e-03 -9.430841e-04 4.296589e-03
Al -3.197039e+00 3.605323e+00 -2.711465e+00 -2.454941e-03 -4.221899e-04 7.815675e-03
Al -6.126025e-02 -1.852892e+00 2.409061e+00 2.270234e-02 3.142338e-04 -9.305714e-03
Ga -1.191524e-02 -1.840854e+00 7.535489e+00 5.874627e-04 -5.821518e-03 4.841697e-03
Ga -1.137683e-02 -1.844101e+00 -2.731440e+00 1.318751e-03 -3.130506e-03 4.465148e-03
Al -2.574490e-02 1.772527e+00 4.978207e+00 2.065108e-03 1.301664e-02 2.478383e-03
Ga -2.473841e-03 1.756260e+00 -5.275012e+00 -4.023553e-03 3.713604e-03 3.205584e-03
Ga -3.731420e-02 1.758818e+00 -1.064593e-01 2.862532e-03 2.374136e-03 -1.719374e-02
Al 3.154270e+00 -3.711820e+00 4.951175e+00 1.300095e-03 -1.548595e-03 -3.347737e-03
Ga 3.137305e+00 -3.687944e+00 -5.255113e+00 3.182151e-03 -2.506003e-03 3.545152e-03
Al 3.141037e+00 -3.697184e+00 -1.556567e-01 -3.260564e-03 7.067759e-03 2.701244e-03
Ga 1.564513e+00 -9.615982e-01 4.946790e+00 2.012248e-03 3.290649e-03 -8.230745e-04
Al 1.577799e+00 -9.538242e-01 -5.262936e+00 -3.901431e-03 1.728438e-03 4.867237e-03
Al 1.591161e+00 -9.580505e-01 -1.896896e-01 -3.129304e-04 -2.361795e-04 3.172410e-03
Ga 3.117806e+00 1.786552e+00 4.958269e+00 -2.494981e-04 -3.280139e-03 -1.354883e-03
Al 3.113770e+00 1.798110e+00 -5.253480e+00 7.776028e-04 -4.531322e-04 5.659766e-03
Al 3.142679e+00 1.780941e+00 -1.389445e-01 -1.990662e-03 -6.231112e-03 -8.723757e-03
Al 6.297159e+00 -3.699489e+00 4.970268e+00 -4.490999e-03 -4.208188e-03 -1.570073e-03
Al 6.324502e+00 -3.684306e+00 -5.257245e+00 -4.563372e-03 -6.855898e-04 4.448173e-03
Ga 6.314175e+00 -3.688506e+00 -1.121882e-01 -2.979333e-03 5.752681e-03 -1.057499e-02
Ga 4.744510e+00 -9.638912e-01 4.940235e+00 -5.356302e-03 3.482016e-03 2.540524e-03
Ga 4.726262e+00 -9.467468e-01 -5.233708e+00 5.293283e-05 -3.577325e-04 2.940995e-03
Al 4.727048e+00 -9.400718e-01 -1.240237e-01 -2.185204e-03 -1.878172e-03 -2.063411e-02
Al -3.191559e+00 1.809280e+00 4.989649e+00 -8.676318e-04 5.176652e-04 -9.657775e-03
Ga -3.205694e+00 1.791137e+00 -5.258252e+00 1.571371e-03 -4.333866e-06 5.419173e-03
Al -3.185794e+00 1.779148e+00 -1.283279e-01 -1.114826e-02 4.718285e-03 -1.029233e-02
Al -1.633382e-02 -3.684456e+00 4.963530e+00 2.241899e-03 -4.959038e-03 -3.194056e-03
Al -2.780961e-02 -3.681532e+00 -5.249408e+00 -1.823678e-03 1.150872e-03 4.333154e-03
Ga -1.834541e-02 -3.705025e+00 -1.186575e-01 3.116246e-03 4.657738e-03 -8.588226e-03
Ga -1.591408e+00 -9.557951e-01 4.961494e+00 -1.779995e-03 2.932531e-03 3.148212e-03
Al -1.592909e+00 -9.474867e-01 -5.261082e+00 -1.857647e-03 4.153872e-04 4.391480e-03
Al -1.606837e+00 -9.253386e-01 -1.718822e-01 -1.847184e-03 -7.510239e-03 -9.164954e-04
N 1.493138e+00 8.958642e-01 4.304842e+00 4.712689e-03 -5.635667e-03 -5.414526e-03
N 1.600509e+00 8.349636e-01 -5.890997e+00 1.207211e-03 2.007941e-03 -3.384733e-03
N 1.584681e+00 8.494510e-01 -7.905724e-01 2.417823e-03 1.649075e-03 -4.489677e-04
N -1.750452e-02 3.595630e+00 4.360822e+00 -4.527695e-04 4.755288e-04 -2.568046e-03
N 1.201837e-02 3.625450e+00 -5.895063e+00 3.462180e-03 9.767304e-04 -4.357400e-03
N -5.617789e-02 3.621864e+00 -7.339524e-01 -4.482384e-06 -1.237104e-03 -8.607878e-04
N 3.154032e+00 -1.908253e+00 4.318065e+00 -5.007239e-04 -3.019655e-03 -7.046592e-03
N 3.115870e+00 -1.849836e+00 -5.851865e+00 -2.758319e-04 1.103693e-03 -3.229547e-03
N 3.150490e+00 -1.870731e+00 -7.770225e-01 3.687426e-03 -2.039501e-03 -1.061740e-04
N -4.738833e+00 8.967204e-01 4.294708e+00 5.688831e-03 -5.246596e-05 9.646104e-03
N -4.825988e+00 9.005850e-01 -5.841448e+00 1.980956e-03 4.733076e-04 -3.525197e-03
N -4.775762e+00 8.771602e-01 -7.632845e-01 2.714500e-03 1.556091e-03 2.805463e-03
N -6.353983e+00 3.644352e+00 4.403997e+00 2.093021e-03 4.780324e-03 -7.421262e-04
N -6.350414e+00 3.619450e+00 -5.822155e+00 1.281814e-03 -1.711331e-03 -8.170668e-04
N -6.353044e+00 3.574316e+00 -8.478021e-01 7.206485e-04 -4.490451e-03 2.257973e-02
N -3.173541e+00 -1.916567e+00 4.319901e+00 3.830802e-03 1.535621e-03 7.176840e-05
N -3.144993e+00 -1.879264e+00 -5.833054e+00 2.339057e-03 -1.193072e-03 2.716397e-04
N -3.178982e+00 -1.824356e+00 -7.785933e-01 1.312669e-03 1.477948e-03 -2.352213e-03
N -1.602111e+00 9.360742e-01 4.424178e+00 -8.195966e-03 -5.703569e-03 -1.059659e-02
N -1.621693e+00 8.419198e-01 -5.902333e+00 1.335199e-03 -2.854388e-03 -5.565572e-03
N -1.666890e+00 8.602668e-01 -7.843461e-01 4.187541e-03 2.082164e-04 3.661821e-03
N -3.190129e+00 3.616235e+00 4.364020e+00 1.071149e-03 -1.071324e-03 -1.947369e-03
N -3.227950e+00 3.641451e+00 -5.862792e+00 -2.820733e-03 -6.961529e-04 -4.323090e-03
N -3.158321e+00 3.594677e+00 -7.763138e-01 2.953367e-03 -5.032356e-03 -9.870709e-05
N -1.849511e-02 -1.905799e+00 4.328362e+00 -2.632283e-03 6.474158e-04 -9.072763e-03
N -1.719863e-02 -1.853114e+00 -5.810127e+00 1.815090e-03 -2.021033e-03 1.817706e-03
N -1.544564e-02 -1.819171e+00 -7.445646e-01 -2.457665e-03 7.207724e-04 1.148384e-03
N 3.204872e-04 1.857228e+00 1.839114e+00 -7.908172e-04 -2.046906e-02 -2.431917e-04
N -1.669076e-02 1.768794e+00 6.918363e+00 4.804246e-04 8.033998e-04 -2.753589e-03
N -2.851458e-02 1.724109e+00 -3.293552e+00 -2.198971e-03 9.577110e-04 -1.357267e-03
N 3.149302e+00 -3.700135e+00 1.799717e+00 5.139661e-05 -1.981190e-03 -2.478564e-03
N 3.196056e+00 -3.723511e+00 6.867540e+00 2.204656e-04 2.678329e-03 -3.555888e-03
N 3.097265e+00 -3.674522e+00 -3.286740e+00 4.304910e-04 1.945857e-03 -1.437298e-03
N 1.626640e+00 -9.751318e-01 1.720961e+00 -2.516138e-02 6.219698e-03 1.919672e-02
N 1.576736e+00 -9.199296e-01 6.921916e+00 -1.476685e-03 2.300357e-03 -6.423678e-03
N 1.631929e+00 -9.110285e-01 -3.347850e+00 -5.055177e-03 -9.446665e-03 -2.966459e-03
N 3.109116e+00 1.692361e+00 1.795100e+00 9.592347e-03 1.807378e-02 -6.272400e-03
N 3.098481e+00 1.756052e+00 6.923336e+00 -3.019404e-03 -8.272114e-04 -3.778279e-03
N 3.128445e+00 1.782718e+00 -3.331590e+00 -5.905906e-04 9.291627e-04 -7.410664e-04
N 6.248878e+00 -3.657563e+00 1.857966e+00 1.348133e-02 1.286251e-04 -3.314348e-03
N 6.273828e+00 -3.709964e+00 6.885161e+00 -2.321080e-03 7.596353e-04 -6.399957e-03
N 6.332831e+00 -3.666579e+00 -3.339866e+00 8.444429e-04 2.542413e-03 -8.649803e-04
N 4.739416e+00 -9.488146e-01 1.745624e+00 1.261333e-03 -1.010915e-03 2.396855e-02
N 4.738095e+00 -9.506808e-01 6.910921e+00 -9.263619e-04 -1.202602e-03 -8.414133e-03
N 4.728641e+00 -9.434539e-01 -3.271480e+00 -8.371500e-04 -8.178291e-04 2.832006e-03
N -3.288107e+00 1.850634e+00 1.795518e+00 1.538622e-02 -9.794184e-03 -6.248836e-03
N -3.152365e+00 1.759200e+00 6.872450e+00 -2.252138e-03 -4.975992e-04 2.112530e-03
N -3.195616e+00 1.788599e+00 -3.286416e+00 -9.943471e-04 9.350411e-05 3.669947e-03
N 4.646748e-02 -3.688074e+00 1.862257e+00 -1.843489e-02 8.911551e-03 -5.188400e-03
N -1.712664e-02 -3.680676e+00 6.869996e+00 -2.310398e-03 1.403179e-03 -4.950974e-03
N -1.679704e-02 -3.724454e+00 -3.336485e+00 -1.164973e-03 -1.279239e-03 -1.278957e-04
N -1.606061e+00 -9.581243e-01 1.756463e+00 -3.098866e-03 -1.307514e-03 9.401512e-03
N -1.589313e+00 -9.124666e-01 6.928778e+00 -2.712605e-03 1.052382e-03 -4.395612e-03
N -1.630879e+00 -9.182664e-01 -3.343405e+00 -3.523384e-03 8.613276e-04 -2.097476e-03
