108
Energy=-2.496561e+06 Lattice="9.650131e+00 0.000000e+00 0.000000e+00 -4.824674e+00 8.356797e+00 0.000000e+00 1.607045e-04 1.247508e-03 1.565933e+01" Stress="1.667255e-05 -6.025524e-06 -8.866687e-06 -8.352757e-06 6.573402e-06 2.631504e-06 -7.380822e-07 8.094558e-06 6.564815e-05" Properties=species:S:1:pos:R:3:forces:R:3 Config_type=AlGaN_super3_45_0_13.xyz
Al 1.577099e+00 9.009368e-01 2.463377e+00 -2.905774e-06 1.175788e-05 -4.803576e-06
Al 1.580141e+00 8.955626e-01 7.674055e+00 -1.677226e-05 1.512690e-05 -2.691832e-06
Ga 1.593986e+00 8.872609e-01 -2.753372e+00 9.507853e-06 -1.310657e-05 -1.606852e-05
Al -8.840580e-03 3.663069e+00 2.459451e+00 -2.723935e-05 3.886363e-05 2.495963e-05
Ga -1.056657e-02 3.661220e+00 7.680934e+00 -1.315276e-05 5.142468e-06 -9.668135e-06
Ga -1.124796e-03 3.676748e+00 -2.753375e+00 5.974616e-06 -1.593352e-05 -2.487413e-05
Ga 3.191481e+00 -1.895367e+00 2.458637e+00 -1.808326e-05 -3.174719e-06 9.366107e-06
Ga 3.189052e+00 -1.887843e+00 7.683697e+00 4.110825e-06 -2.917451e-05 -2.739925e-05
Ga 3.184744e+00 -1.889701e+00 -2.751520e+00 2.636911e-05 -3.305258e-05 -1.195045e-05
Ga -4.860574e+00 8.896656e-01 2.463910e+00 -3.974302e-05 4.642538e-05 2.095660e-05
Ga -4.860111e+00 8.904253e-01 7.685807e+00 -8.886003e-06 2.556745e-05 -1.537887e-05
Al -4.854839e+00 8.981980e-01 -2.756092e+00 -1.654265e-05 2.621007e-05 -1.703622e-05
Ga -6.474989e+00 3.667759e+00 2.445445e+00 -3.575634e-05 5.637701e-05 4.252510e-07
Ga -6.465411e+00 3.668015e+00 7.695628e+00 -2.467204e-05 4.115897e-06 -1.399170e-05
Al -6.462266e+00 3.678454e+00 -2.756324e+00 -3.506424e-06 1.768373e-05 -1.905590e-06
Ga -3.244568e+00 -1.912514e+00 2.439349e+00 -5.711883e-05 8.485229e-05 2.977444e-06
Ga -3.240128e+00 -1.903204e+00 7.704829e+00 -1.088541e-05 8.595058e-06 -1.148214e-05
Ga -3.230159e+00 -1.914200e+00 -2.754741e+00 2.346309e-06 7.682006e-06 6.518985e-07
Ga -1.611586e+00 8.991410e-01 2.471437e+00 -1.334173e-04 1.391707e-05 -1.147781e-05
Ga -1.612413e+00 8.942052e-01 7.669488e+00 -9.471122e-06 1.210087e-05 -8.819079e-06
Ga -1.632150e+00 8.824905e-01 -2.751895e+00 1.521485e-05 -3.070338e-05 -6.913898e-05
Ga -3.234034e+00 3.675387e+00 2.453615e+00 -1.426027e-05 1.089883e-05 -1.704592e-05
Ga -3.240331e+00 3.675576e+00 7.694150e+00 -1.474594e-05 2.164996e-05 -1.332340e-07
Ga -3.255636e+00 3.673175e+00 -2.752060e+00 1.043886e-05 -3.253832e-05 -7.841666e-05
Ga -1.910087e-02 -1.891052e+00 2.464133e+00 2.467446e-05 1.522487e-05 -3.768432e-05
Ga -1.783813e-02 -1.889983e+00 7.683702e+00 -8.091900e-06 2.723452e-05 -7.593713e-06
Al -2.570818e-02 -1.902572e+00 -2.755998e+00 -2.201655e-05 1.948232e-05 -1.832455e-05
Al -8.289816e-03 1.821479e+00 5.054620e+00 2.969586e-05 -2.307941e-05 -1.562911e-05
Ga -1.122009e-02 1.822844e+00 -5.371774e+00 1.431580e-05 -1.488434e-06 -2.031839e-05
Ga -1.281105e-02 1.829897e+00 -1.279905e-01 -3.907115e-05 3.969192e-05 -6.650661e-05
Ga 3.206515e+00 -3.767450e+00 5.059708e+00 2.420020e-05 2.029067e-05 -1.487798e-05
Ga 3.206796e+00 -3.756119e+00 -5.361469e+00 -3.447737e-05 2.038311e-05 -3.625796e-05
Ga 3.211132e+00 -3.758499e+00 -1.360114e-01 -5.730577e-05 2.248606e-05 1.743482e-05
Ga 1.580937e+00 -9.452058e-01 5.070507e+00 6.785150e-07 -3.454290e-05 2.041745e-06
Ga 1.580597e+00 -9.614462e-01 -5.366339e+00 1.184221e-05 -1.265968e-05 -2.678660e-05
Ga 1.576772e+00 -9.661243e-01 -1.411775e-01 -4.977954e-05 -1.370722e-05 -4.301081e-06
Ga 3.171636e+00 1.814297e+00 5.071140e+00 4.397340e-05 -2.185882e-05 -5.902606e-06
Ga 3.185019e+00 1.825357e+00 -5.352584e+00 1.495303e-05 3.113892e-05 -2.652693e-05
Ga 3.189904e+00 1.826692e+00 -1.599055e-01 -4.091680e-05 3.663726e-05 -5.213938e-07
Ga 6.400772e+00 -3.763281e+00 5.060251e+00 2.938131e-06 -1.386046e-05 -1.323125e-05
Al 6.414438e+00 -3.759645e+00 -5.353249e+00 -5.231338e-06 -3.281365e-06 -1.826325e-05
Al 6.410166e+00 -3.763156e+00 -1.478048e-01 1.560327e-05 -7.800360e-06 -1.291678e-05
Ga 4.805537e+00 -9.709116e-01 5.074367e+00 3.430794e-05 -1.360193e-05 7.857789e-06
Ga 4.806951e+00 -9.719792e-01 -5.346736e+00 -3.089468e-05 4.248557e-06 2.783845e-05
Ga 4.806682e+00 -9.682101e-01 -1.630100e-01 -4.709332e-05 2.704166e-05 5.633002e-05
Ga -3.231134e+00 1.818752e+00 5.073262e+00 -1.589701e-05 -1.350521e-05 -4.990634e-05
Ga -3.242085e+00 1.813211e+00 -5.352291e+00 1.633849e-05 -3.684571e-06 -5.109417e-05
Ga -3.245751e+00 1.811536e+00 -1.522996e-01 -7.097792e-05 2.375667e-06 7.520763e-06
Ga -2.536392e-02 -3.756522e+00 5.073716e+00 3.132262e-05 -1.499478e-05 -1.035338e-05
Ga -3.992532e-02 -3.751740e+00 -5.335816e+00 -8.920355e-06 -1.530475e-06 2.433455e-06
Ga -4.219497e-02 -3.748875e+00 -1.760136e-01 2.390717e-05 5.269391e-05 3.472698e-06
Ga -1.631724e+00 -9.624707e-01 5.071766e+00 2.717313e-05 -1.881861e-05 -4.986803e-05
Ga -1.632046e+00 -9.769024e-01 -5.351283e+00 3.373662e-06 -1.572397e-05 -5.961710e-06
Ga -1.628884e+00 -9.791075e-01 -1.590014e-01 4.396721e-06 7.626361e-06 6.175722e-06
N 1.543406e+00 9.150383e-01 4.388530e+00 8.333657e-06 2.678269e-05 2.218547e-05
N 1.587321e+00 8.917019e-01 -6.057804e+00 -2.038258e-05 1.604502e-05 9.937798e-06
N 1.582351e+00 8.889417e-01 -7.830914e-01 4.158137e-05 -1.137151e-05 4.456609e-05
N -1.774123e-02 3.624543e+00 4.390600e+00 -1.904477e-05 1.913671e-05 8.433741e-06
N 2.433882e-02 3.697046e+00 -5.989906e+00 2.481646e-05 -2.084732e-05 2.005282e-05
N 2.325527e-02 3.697163e+00 -7.709987e-01 1.281948e-05 -6.287822e-05 3.286671e-05
N 3.190607e+00 -1.895676e+00 4.439815e+00 -3.313699e-05 -1.647726e-05 -1.205928e-06
N 3.194337e+00 -1.894834e+00 -5.994355e+00 -1.412478e-05 5.782611e-05 -1.903353e-05
N 3.187964e+00 -1.898804e+00 -7.739640e-01 -3.289997e-05 2.134575e-05 6.477696e-06
N -4.852060e+00 8.916091e-01 4.442764e+00 -1.539704e-05 2.537786e-05 -1.553759e-05
N -4.853379e+00 8.888573e-01 -5.995422e+00 -9.130334e-06 2.029328e-05 -8.791583e-06
N -4.852047e+00 8.917333e-01 -8.374898e-01 4.859192e-05 1.822990e-05 8.301258e-06
N -6.458107e+00 3.673178e+00 4.425147e+00 -1.107939e-05 2.000369e-05 2.641704e-05
N -6.497960e+00 3.697632e+00 -5.978007e+00 -4.645475e-06 -4.046225e-05 3.184785e-05
N -6.508024e+00 3.698446e+00 -8.243970e-01 4.873785e-05 -6.528268e-05 6.165002e-06
N -3.238950e+00 -1.900411e+00 4.419943e+00 -3.085831e-05 2.428843e-05 2.020972e-05
N -3.240399e+00 -1.948295e+00 -5.965317e+00 7.757709e-06 -2.286999e-06 9.557190e-06
N -3.239188e+00 -1.954174e+00 -7.667215e-01 5.238086e-05 -2.654607e-05 -2.490123e-05
N -1.584984e+00 9.157279e-01 4.459311e+00 2.684135e-05 -3.575866e-05 -3.571572e-06
N -1.627958e+00 8.889187e-01 -6.003068e+00 1.158355e-05 -5.817786e-06 4.913362e-05
N -1.624401e+00 8.921874e-01 -7.739424e-01 4.310309e-05 1.031480e-05 1.850157e-05
N -3.240700e+00 3.675360e+00 4.430632e+00 -2.531048e-05 1.766648e-05 -2.236356e-06
N -3.244654e+00 3.677106e+00 -5.981524e+00 4.109855e-06 -2.549803e-05 -2.797132e-05
N -3.236527e+00 3.676420e+00 -7.750532e-01 9.627167e-07 -5.985971e-06 4.572572e-05
N -2.157735e-02 -1.896556e+00 4.440711e+00 -1.200631e-05 1.797528e-05 2.919789e-06
N -2.368286e-02 -1.900457e+00 -5.999804e+00 1.379457e-06 7.505676e-06 7.259631e-06
N -1.947100e-02 -1.892675e+00 -8.392709e-01 4.258732e-05 -1.085959e-05 2.572922e-05
N 2.101234e-02 1.843399e+00 1.859502e+00 -1.954473e-05 -3.770046e-05 -2.763680e-05
N 2.617120e-02 1.797299e+00 6.994227e+00 3.653442e-05 1.306365e-05 1.884925e-05
N -1.952951e-02 1.816060e+00 -3.396128e+00 -6.356423e-06 3.015462e-05 2.300151e-05
N 3.242469e+00 -3.780610e+00 1.850708e+00 4.951024e-05 -1.088019e-05 2.455399e-05
N 3.199083e+00 -3.757311e+00 7.046344e+00 4.461633e-07 2.453355e-05 5.711246e-05
N 3.197060e+00 -3.757542e+00 -3.383839e+00 1.678773e-05 1.936912e-05 -1.061540e-05
N 1.581724e+00 -9.160609e-01 1.845358e+00 4.953156e-06 -1.356698e-05 -2.218591e-05
N 1.585287e+00 -9.133089e-01 7.059482e+00 1.188681e-05 -1.728777e-05 2.286339e-05
N 1.540781e+00 -9.897647e-01 -3.381594e+00 -2.039706e-05 3.013770e-05 4.008976e-05
N 3.150428e+00 1.792010e+00 1.829762e+00 5.417054e-05 -3.594433e-05 -1.554706e-05
N 3.147430e+00 1.795236e+00 7.060935e+00 3.696881e-06 -1.922432e-05 1.394154e-05
N 3.232927e+00 1.844307e+00 -3.355425e+00 -3.783541e-05 -2.840623e-05 1.097683e-05
N 6.366767e+00 -3.783528e+00 1.780318e+00 7.042140e-05 -8.079659e-05 -4.414206e-06
N 6.410127e+00 -3.752773e+00 7.036744e+00 2.445066e-05 -2.996686e-05 1.317136e-05
N 6.453740e+00 -3.781810e+00 -3.432556e+00 -1.959903e-05 1.306069e-05 1.919423e-05
N 4.800250e+00 -9.643416e-01 1.813987e+00 4.497525e-05 -4.022819e-05 -4.680433e-06
N 4.806982e+00 -9.700639e-01 7.052860e+00 -3.880365e-07 -1.813989e-05 1.254783e-05
N 4.804373e+00 -9.214318e-01 -3.359843e+00 4.300625e-06 -3.076420e-05 -7.632170e-06
N -3.240640e+00 1.811019e+00 1.826901e+00 5.969312e-05 -6.556001e-05 3.323692e-05
N -3.239814e+00 1.817742e+00 7.051794e+00 1.841360e-05 -1.607764e-05 4.230015e-05
N -3.280340e+00 1.791138e+00 -3.369021e+00 -1.042142e-05 9.055354e-07 6.615878e-06
N -2.923567e-02 -3.752187e+00 1.807868e+00 7.162827e-06 -8.540538e-06 2.423387e-05
N -2.675420e-02 -3.756534e+00 7.052861e+00 1.252213e-05 -2.806593e-05 -7.060106e-06
N -7.030851e-02 -3.730809e+00 -3.342819e+00 -1.044808e-05 1.633345e-05 2.063066e-05
N -1.629554e+00 -9.657943e-01 1.821497e+00 6.813490e-05 -1.937114e-06 6.402082e-05
N -1.636088e+00 -9.707819e-01 7.051045e+00 -8.838407e-06 -5.009034e-06 -6.410124e-06
N -1.590655e+00 -9.936276e-01 -3.367491e+00 -2.162664e-05 6.118086e-06 1.046876e-05
