108
Energy=-5.739908e+05 Lattice="9.411698e+00 0.000000e+00 0.000000e+00 -4.710488e+00 8.148442e+00 0.000000e+00 -2.277832e-02 -1.251349e-03 1.509450e+01" Stress="-6.289466e-04 -2.409760e-04 -1.149687e-03 -2.413684e-04 -9.251616e-04 -7.638748e-05 -1.146054e-03 -7.863080e-05 -9.144558e-04" Properties=species:S:1:pos:R:3:forces:R:3 Config_type=AlGaN_super3_3_0_13.xyz
Al 1.541494e+00 8.663563e-01 2.364753e+00 2.878433e-04 1.176495e-04 7.236774e-05
Al 1.532445e+00 8.653154e-01 7.396175e+00 2.632181e-04 -1.841676e-05 -7.040370e-05
Al 1.552036e+00 8.663346e-01 -2.667335e+00 1.889277e-05 -4.147823e-05 -1.950494e-04
Al -2.641380e-02 3.581425e+00 2.365089e+00 2.431136e-04 6.415322e-05 1.163136e-04
Al -3.575077e-02 3.580444e+00 7.396387e+00 -7.872417e-06 6.403952e-05 -5.225642e-05
Al -1.935084e-02 3.583139e+00 -2.666467e+00 -2.685396e-05 -5.205558e-05 -1.601804e-04
Al 3.106440e+00 -1.853866e+00 2.379653e+00 7.433546e-04 2.226695e-04 1.794709e-04
Al 3.105381e+00 -1.851272e+00 7.396138e+00 5.515361e-05 -3.588135e-05 -2.568696e-04
Al 3.117113e+00 -1.854146e+00 -2.677058e+00 5.221005e-05 1.626232e-05 -1.901604e-04
Al -4.731611e+00 8.756798e-01 2.380148e+00 -1.265424e-04 -1.322140e-03 -2.352845e-04
Al -4.741370e+00 8.658214e-01 7.395431e+00 1.631867e-04 7.350399e-05 -2.666541e-04
Al -4.725549e+00 8.723379e-01 -2.675507e+00 3.451721e-04 3.183196e-04 -5.237137e-04
Al -6.301372e+00 3.583512e+00 2.365811e+00 9.902500e-05 2.957852e-05 -2.047669e-04
Al -6.315062e+00 3.579745e+00 7.386460e+00 6.485568e-05 1.936331e-05 -2.042922e-04
Al -6.301136e+00 3.577113e+00 -2.652704e+00 -8.183329e-05 1.309486e-04 -1.946396e-04
Al -3.157791e+00 -1.857392e+00 2.371563e+00 -1.459318e-04 1.653841e-04 -1.462283e-04
Al -3.176387e+00 -1.854583e+00 7.410359e+00 4.231046e-05 2.666435e-05 -3.646664e-04
Al -3.146900e+00 -1.853155e+00 -2.677767e+00 1.218212e-05 1.173509e-04 -1.934315e-04
Al -1.596537e+00 8.738670e-01 2.354694e+00 3.328433e-04 -3.198640e-04 -1.071206e-05
Al -1.604514e+00 8.750198e-01 7.410739e+00 1.916192e-04 -1.023722e-04 -1.010593e-04
Al -1.588821e+00 8.673471e-01 -2.666607e+00 2.505784e-04 -1.211126e-04 9.353084e-05
Al -3.165730e+00 3.583749e+00 2.364539e+00 6.203788e-05 1.079340e-04 1.193676e-04
Al -3.169677e+00 3.580408e+00 7.386762e+00 1.075400e-04 -8.357572e-05 -1.420596e-04
Al -3.149541e+00 3.579594e+00 -2.652036e+00 1.297436e-04 -6.478695e-05 5.323779e-05
Al -1.912028e-02 -1.851368e+00 2.354379e+00 1.311607e-04 -1.325219e-04 9.617089e-05
Al -2.592335e-02 -1.848543e+00 7.400816e+00 1.478716e-04 -1.121178e-04 -1.710381e-04
Al -1.592581e-02 -1.839901e+00 -2.652086e+00 8.995936e-06 -4.076373e-05 -1.598850e-04
Al -2.882744e-02 1.777589e+00 4.880344e+00 1.129275e-04 1.927753e-04 8.265114e-05
Al -1.389558e-02 1.772636e+00 -5.178294e+00 -6.356885e-05 1.248064e-04 -8.505258e-05
Al -2.128004e-02 1.771877e+00 -1.555147e-01 -3.865772e-04 4.772764e-06 -2.474435e-04
Al 3.109724e+00 -3.662906e+00 4.880358e+00 3.535793e-05 2.196189e-04 -1.678559e-04
Al 3.134599e+00 -3.662663e+00 -5.184176e+00 -5.337882e-05 1.246208e-04 -9.693263e-05
Al 3.113908e+00 -3.667431e+00 -1.456661e-01 2.427116e-04 8.892096e-05 -4.171529e-04
Al 1.547755e+00 -9.446427e-01 4.882568e+00 -9.010063e-05 7.704775e-05 -7.299956e-05
Al 1.561760e+00 -9.362256e-01 -5.180331e+00 -1.931744e-04 8.962001e-05 -9.529775e-05
Al 1.542039e+00 -9.430999e-01 -1.496470e-01 -1.955509e-05 1.088985e-04 -1.350548e-04
Al 3.103076e+00 1.771281e+00 4.880816e+00 1.032716e-04 -1.691550e-05 -3.116859e-04
Al 3.116392e+00 1.765877e+00 -5.184421e+00 3.481279e-06 -1.372145e-05 -4.006984e-04
Al 3.110167e+00 1.775867e+00 -1.491127e-01 -4.175575e-04 5.793226e-04 1.399199e-03
Al 6.240703e+00 -3.669179e+00 4.883317e+00 1.632102e-04 -5.790581e-06 -1.648240e-04
Al 6.254183e+00 -3.663723e+00 -5.180600e+00 3.667063e-05 -2.234181e-05 -1.695978e-04
Al 6.255795e+00 -3.669353e+00 -1.493824e-01 4.378003e-04 1.623531e-04 -1.844861e-05
Al 4.668411e+00 -9.454008e-01 4.883275e+00 6.333561e-06 3.179484e-05 -3.653734e-04
Al 4.692181e+00 -9.431881e-01 -5.179612e+00 -1.275013e-04 -7.534523e-05 -4.947604e-04
Ga 4.683853e+00 -9.450338e-01 -1.502256e-01 1.342076e-04 1.482276e-04 1.084084e-03
Al -3.173498e+00 1.779384e+00 4.882849e+00 -7.189189e-06 6.998275e-05 -1.305386e-04
Al -3.149336e+00 1.768060e+00 -5.180175e+00 4.874265e-07 2.974734e-05 -1.947605e-04
Al -3.159332e+00 1.779408e+00 -1.466884e-01 5.732211e-04 1.698686e-04 -1.105402e-03
Al -2.489936e-02 -3.667111e+00 4.881227e+00 7.291509e-05 8.292643e-05 -2.175541e-04
Ga -1.177744e-02 -3.661358e+00 -5.171800e+00 5.415467e-05 3.113947e-05 -4.824851e-05
Al -2.274286e-02 -3.661538e+00 -1.534060e-01 4.684470e-04 1.680072e-04 -8.898547e-04
Ga -1.597292e+00 -9.428588e-01 4.887522e+00 -1.098286e-04 2.604430e-05 -5.407266e-05
Al -1.583833e+00 -9.352334e-01 -5.182829e+00 -8.316016e-05 -3.712716e-05 -2.809608e-04
Al -1.584497e+00 -9.429143e-01 -1.461723e-01 2.162367e-04 1.611667e-04 -5.246597e-04
N 1.535374e+00 8.656375e-01 4.283041e+00 1.645210e-04 4.281199e-05 1.728135e-04
N 1.552240e+00 8.673753e-01 -5.781055e+00 1.140608e-04 -3.321906e-05 1.456111e-04
N 1.547966e+00 8.662589e-01 -7.497143e-01 8.756191e-05 -6.267151e-05 1.069058e-04
N -3.243687e-02 3.581450e+00 4.281612e+00 1.471625e-05 -1.261405e-04 1.372514e-04
N -1.521089e-02 3.580802e+00 -5.781153e+00 -6.780320e-06 -7.244791e-05 1.143455e-04
N -2.489599e-02 3.583835e+00 -7.485860e-01 -1.438722e-04 -5.912035e-05 -5.932514e-05
N 3.105930e+00 -1.852692e+00 4.291536e+00 4.039246e-06 -8.360155e-05 3.664133e-04
N 3.125432e+00 -1.849991e+00 -5.778138e+00 2.789169e-05 -1.768954e-05 1.648659e-04
N 3.074782e+00 -1.874752e+00 -7.687161e-01 -7.881148e-06 -2.644431e-04 1.036376e-04
N -4.737699e+00 8.691405e-01 4.293485e+00 1.993352e-04 1.408024e-04 2.945698e-04
N -4.720976e+00 8.675850e-01 -5.779270e+00 1.072962e-04 3.625375e-05 4.035461e-04
N -4.729361e+00 9.175236e-01 -7.672380e-01 -8.543562e-06 -7.282290e-04 -2.511467e-04
N -6.307243e+00 3.583120e+00 4.285027e+00 -2.088634e-05 -2.549272e-05 3.004662e-04
N -6.331434e+00 3.559399e+00 -5.799562e+00 6.504332e-06 1.068558e-04 1.678874e-04
N -6.302759e+00 3.579113e+00 -7.411532e-01 -9.525008e-05 -6.100266e-05 5.277901e-05
N -3.204878e+00 -1.876379e+00 4.274821e+00 1.477851e-04 6.062264e-05 4.066292e-04
N -3.152176e+00 -1.851834e+00 -5.768665e+00 4.241942e-06 5.056849e-05 3.071803e-04
N -3.115570e+00 -1.874847e+00 -7.676634e-01 -1.214862e-05 -5.411201e-05 1.547575e-04
N -1.601835e+00 9.168422e-01 4.262853e+00 2.654513e-04 -2.257704e-04 1.900933e-04
N -1.583330e+00 8.730903e-01 -5.771092e+00 1.266355e-04 -1.186694e-04 1.491114e-04
N -1.594290e+00 8.671143e-01 -7.454431e-01 2.431188e-04 4.453878e-05 -3.661446e-04
N -3.170254e+00 3.583638e+00 4.282732e+00 6.521188e-05 -2.504115e-04 1.842744e-04
N -3.112488e+00 3.560341e+00 -5.799151e+00 -1.029090e-04 -1.253526e-04 6.461580e-05
N -3.158740e+00 3.582862e+00 -7.394876e-01 6.516829e-05 -2.440206e-04 -1.738668e-04
N 1.276610e-02 -1.873109e+00 4.265007e+00 7.151626e-05 -1.073420e-04 8.470740e-05
N -8.574948e-03 -1.802664e+00 -5.789301e+00 -4.549091e-06 -3.124210e-04 1.792277e-04
N -2.165747e-02 -1.844528e+00 -7.382365e-01 6.352487e-05 -1.995332e-04 -3.290239e-05
N -2.378923e-02 1.772298e+00 1.761518e+00 2.078486e-04 2.479444e-04 1.857570e-04
N -3.523743e-02 1.769977e+00 6.799258e+00 -1.257168e-04 1.275766e-04 8.876298e-05
N -1.665190e-02 1.771524e+00 -3.259539e+00 -2.188245e-04 1.529578e-04 3.021939e-05
N 3.116687e+00 -3.660448e+00 1.771844e+00 -4.106000e-04 5.024542e-05 4.291628e-04
N 3.108952e+00 -3.661406e+00 6.795807e+00 2.132539e-05 1.066644e-04 2.188579e-04
N 3.123344e+00 -3.664697e+00 -3.268262e+00 -1.487765e-04 6.586118e-05 -2.176362e-05
N 1.550016e+00 -9.429659e-01 1.766256e+00 -2.896155e-04 7.248554e-05 8.132758e-05
N 1.539144e+00 -9.448022e-01 6.797406e+00 -2.194190e-04 1.655202e-04 1.742567e-04
N 1.552406e+00 -9.434152e-01 -3.265380e+00 -2.619420e-04 1.377943e-04 3.673464e-05
N 3.112354e+00 1.772349e+00 1.774078e+00 -2.672069e-04 -4.413671e-04 -6.280013e-04
N 3.101489e+00 1.768743e+00 6.795433e+00 -1.101110e-04 -6.011455e-05 2.328804e-04
N 3.116948e+00 1.773638e+00 -3.269555e+00 -1.272601e-04 -6.435887e-05 3.135354e-04
N 6.253313e+00 -3.662752e+00 1.767092e+00 -4.376791e-04 -2.162502e-04 -9.297868e-06
N 6.240546e+00 -3.659971e+00 6.797594e+00 -3.697491e-05 -8.422585e-05 2.400433e-04
N 6.260743e+00 -3.664727e+00 -3.265989e+00 -1.368925e-04 -1.323763e-04 7.210739e-05
N 4.682606e+00 -9.465512e-01 1.830309e+00 -8.041476e-04 1.505718e-03 -1.447045e-03
N 4.674467e+00 -9.455087e-01 6.802203e+00 -1.580841e-04 -6.588074e-05 3.518283e-04
N 4.690808e+00 -9.439536e-01 -3.261616e+00 -2.724566e-04 -7.759649e-05 2.947659e-04
N -3.166686e+00 1.774396e+00 1.765182e+00 -3.826641e-04 -2.365113e-04 1.008644e-03
N -3.171834e+00 1.769265e+00 6.797139e+00 -4.025361e-05 -9.532565e-06 2.074666e-04
N -3.154027e+00 1.774968e+00 -3.265512e+00 -1.959262e-04 -4.049190e-05 1.351923e-04
N -2.234344e-02 -3.662263e+00 1.762639e+00 -3.782823e-04 -9.738123e-05 8.264580e-04
N -3.162290e-02 -3.660111e+00 6.800041e+00 -2.383227e-05 1.466939e-05 1.887417e-04
N -1.492840e-02 -3.660266e+00 -3.197291e+00 -5.699453e-05 -3.190846e-05 1.351497e-04
N -1.592480e+00 -9.435893e-01 1.772095e+00 -5.062014e-04 -4.182348e-05 4.576813e-04
N -1.602879e+00 -9.429968e-01 6.859182e+00 -2.011328e-04 2.229028e-05 2.152305e-04
N -1.580607e+00 -9.422513e-01 -3.266397e+00 -2.676570e-04 7.217397e-05 4.918640e-05
