108
Energy=-1123296.471888 Lattice="9.476436 0.000000 0.000000 -4.746663 8.201725 0.000000 -0.002868 -0.062969 15.283765" Stress="-0.000000 -0.000005 0.000000 -0.000005 -0.000004 -0.000015 -0.000000 -0.000015 0.000010" Properties=species:S:1:pos:R:3:forces:R:3
Al 1.552530 0.866186 2.399945 -0.000719 -0.001584 0.000227
Al 1.557901 0.834397 7.467666 -0.000484 -0.000848 0.000131
Al 1.553908 0.884556 -2.678416 0.000277 0.000195 0.000701
Al -0.041983 3.590958 2.389575 -0.000105 -0.000048 -0.000103
Al -0.018175 3.559097 7.473795 -0.001180 0.000013 0.001445
Al -0.023915 3.624813 -2.671506 0.001148 -0.001410 0.000409
Al 3.135853 -1.884480 2.386553 -0.002412 0.000443 -0.001552
Al 3.140047 -1.894534 7.501026 0.000118 0.000018 0.000491
Ga 3.146726 -1.840384 -2.685480 -0.000590 0.000314 0.000551
Al -4.771117 0.871183 2.421373 -0.000786 -0.001926 -0.000983
Al -4.761385 0.838105 7.484265 0.000081 0.001074 0.000702
Al -4.763299 0.888894 -2.699604 0.000543 0.000037 -0.000514
Ga -6.343054 3.593711 2.386119 -0.000075 0.000019 0.000160
Al -6.339494 3.566377 7.492926 -0.000874 0.000486 0.000089
Ga -6.350966 3.620915 -2.683027 -0.000144 0.000309 0.000777
Al -3.176372 -1.858986 2.409099 0.000355 -0.001999 -0.002936
Ga -3.171363 -1.894887 7.506184 0.000335 0.000334 0.000433
Al -3.179951 -1.843954 -2.706302 -0.001340 -0.000093 -0.000128
Al -1.598853 0.860161 2.410108 0.000637 -0.000037 -0.000543
Al -1.600368 0.838164 7.473500 0.000368 -0.000359 0.001022
Ga -1.616179 0.895661 -2.682662 0.000273 -0.000155 -0.000144
Al -3.177439 3.607320 2.426048 -0.000315 0.000938 -0.000221
Ga -3.185880 3.568439 7.473295 -0.000109 -0.000103 -0.000160
Al -3.189627 3.618616 -2.695299 -0.000325 -0.000592 0.000027
Al -0.025494 -1.866551 2.391784 0.000826 0.001035 -0.000021
Al -0.015995 -1.891018 7.494914 -0.001422 -0.000381 0.000642
Ga -0.021694 -1.837882 -2.692719 0.000505 -0.000403 0.001326
Al -0.031389 1.754074 4.939651 -0.000221 0.000127 -0.000130
Ga -0.024808 1.797203 -5.255274 0.000283 0.000193 0.001042
Al -0.016764 1.790845 -0.133278 0.000646 0.000002 -0.000396
Al 3.142190 -3.726528 4.938041 -0.000148 0.001401 0.000836
Ga 3.145941 -3.663385 -5.242702 0.000144 0.000464 0.000438
Al 3.134849 -3.686834 -0.136050 0.000150 -0.000063 -0.000921
Ga 1.557066 -0.987458 4.936021 -0.001398 0.000822 0.000566
Al 1.556612 -0.932178 -5.267323 -0.000078 0.000238 -0.000068
Al 1.546324 -0.935469 -0.118475 -0.000144 0.000081 0.000754
Al 3.137914 1.761108 4.961781 -0.000192 0.000251 -0.000006
Ga 3.140334 1.801206 -5.257474 -0.000047 -0.000492 0.000987
Al 3.115057 1.784464 -0.151135 0.000286 -0.000029 0.000261
Ga 6.301227 -3.722507 4.941465 -0.000031 0.000053 -0.000092
Al 6.305258 -3.653749 -5.242601 -0.001484 -0.000046 0.000257
Al 6.289539 -3.675612 -0.142927 -0.000029 0.000403 0.000503
Ga 4.720382 -0.969922 4.932836 -0.000813 0.000136 0.001154
Al 4.728495 -0.921046 -5.245047 -0.000396 -0.000201 0.000047
Ga 4.722921 -0.940063 -0.122325 -0.000032 -0.001241 -0.002176
Al -3.180046 1.761242 4.927412 0.000743 -0.000051 -0.000293
Al -3.192340 1.799651 -5.248172 0.000218 -0.001780 0.000893
Ga -3.192634 1.809011 -0.114918 0.000229 -0.000091 -0.001386
Al -0.014728 -3.708028 4.945561 -0.000095 0.000442 -0.000126
Al -0.025368 -3.650310 -5.258483 0.000731 0.000010 0.001350
Al -0.013678 -3.666551 -0.135160 0.000191 -0.000409 0.000171
Al -1.584736 -0.967942 4.940052 -0.000142 0.000253 0.000199
Al -1.601475 -0.929771 -5.257341 0.000121 -0.000607 0.000378
Al -1.596742 -0.952367 -0.125041 -0.000439 -0.000470 -0.000176
N 1.558778 0.895283 4.325841 0.000335 0.000260 -0.000223
N 1.555538 0.849387 -5.911705 0.000210 0.000499 -0.000478
N 1.545105 0.874278 -0.753488 0.000598 -0.000217 0.000399
N -0.065726 3.551214 4.307998 -0.000502 0.000416 -0.000101
N 0.016443 3.647915 -5.900029 0.000322 0.000137 -0.000554
N -0.029077 3.612766 -0.746466 -0.000000 -0.000076 0.000427
N 3.139448 -1.940419 4.289463 0.000650 -0.000607 0.000625
N 3.145206 -1.796372 -5.864101 0.000193 -0.000103 0.000043
N 3.097189 -1.871466 -0.704754 -0.000821 -0.000145 -0.000147
N -4.770931 0.900866 4.328359 0.000302 -0.000075 -0.000835
N -4.720177 0.873822 -5.883593 0.000213 0.000067 -0.000337
N -4.800606 0.905243 -0.790220 -0.000219 0.000399 0.000370
N -6.298973 3.553911 4.360317 -0.000128 0.000198 -0.000282
N -6.345088 3.677330 -5.866364 0.000533 -0.000507 -0.001729
N -6.346433 3.619820 -0.693879 0.000022 -0.000373 0.000661
N -3.131141 -1.865136 4.307856 0.000170 0.000509 0.001426
N -3.176977 -1.839168 -5.802793 -0.000030 0.000090 -0.000200
N -3.139203 -1.871669 -0.778765 0.000279 -0.000519 -0.000654
N -1.599090 0.846658 4.334503 -0.000077 -0.000086 -0.000915
N -1.648450 0.872881 -5.878824 0.000165 0.001066 -0.001762
N -1.574114 0.858640 -0.705466 0.000213 0.000069 0.000195
N -3.184891 3.589365 4.351352 0.000027 -0.000195 -0.000225
N -3.225807 3.602361 -5.836042 -0.000230 0.001325 -0.000491
N -3.190704 3.662767 -0.777429 -0.000401 -0.000287 0.000058
N -0.060709 -1.910978 4.307582 -0.000203 -0.000082 -0.000500
N -0.022109 -1.835355 -5.863020 0.000030 -0.000718 -0.000157
N -0.022464 -1.846631 -0.705156 0.000174 -0.000479 0.000304
N -0.023763 1.773607 1.790914 -0.000235 -0.000011 0.000447
N -0.023197 1.744084 6.867618 -0.000372 0.000629 -0.000465
N 0.015596 1.821976 -3.272629 0.000015 0.000839 0.000474
N 3.135807 -3.703396 1.784044 -0.000574 -0.000035 0.000488
N 3.187116 -3.692705 6.863398 0.000277 -0.000681 -0.001782
N 3.145427 -3.717912 -3.266571 -0.000382 0.000562 -0.000186
N 1.554085 -0.951718 1.805156 0.000312 -0.000333 0.000565
N 1.560776 -1.002085 6.919841 0.001253 0.003140 -0.000485
N 1.561844 -0.887657 -3.349506 -0.000675 0.000447 -0.000758
N 3.128121 1.723054 1.764434 0.001498 0.000176 -0.000469
N 3.139542 1.749831 6.887106 -0.000129 -0.000290 -0.000396
N 3.126909 1.753141 -3.276822 0.000112 0.000058 -0.000028
N 6.247154 -3.665525 1.778171 0.001156 0.000862 0.000478
N 6.301077 -3.763788 6.907522 0.001277 -0.000013 0.000038
N 6.253980 -3.647461 -3.318163 0.000092 -0.000401 -0.000341
N 4.716159 -0.958586 1.850073 0.001476 0.003376 0.002866
N 4.681851 -0.963398 6.907505 -0.000666 -0.000673 -0.000525
N 4.756317 -0.906558 -3.324015 0.000532 -0.000381 0.000794
N -3.188217 1.784255 1.867035 0.000015 -0.000918 0.000583
N -3.181748 1.700438 6.843494 0.000066 -0.000140 -0.000362
N -3.227998 1.825133 -3.324286 0.000263 -0.000154 -0.000313
N 0.027664 -3.667829 1.779201 0.000687 -0.001119 -0.000023
N -0.059056 -3.688904 6.862507 -0.000054 -0.000217 -0.000265
N 0.016040 -3.685460 -3.341469 -0.000138 0.000010 -0.000811
N -1.606324 -0.956022 1.793514 0.000029 0.000110 0.000494
N -1.552570 -0.962082 6.860626 -0.000653 -0.000245 -0.000744
N -1.637573 -0.950915 -3.346811 0.000355 0.000159 -0.000080
