108
Energy=-5.282152e+05 Lattice="9.411220e+00 0.000000e+00 0.000000e+00 -4.720648e+00 8.137456e+00 0.000000e+00 2.180403e-02 5.003788e-02 1.510113e+01" Stress="-6.806762e-04 1.934536e-04 7.001207e-04 1.920901e-04 -2.006813e-03 2.353436e-03 6.973256e-04 2.356521e-03 3.816229e-03" Properties=species:S:1:pos:R:3:forces:R:3 Config_type=AlGaN_super3_2_2_7.xyz
Al 1.550057e+00 8.888248e-01 2.375377e+00 2.419961e-03 1.061491e-04 -2.756483e-04
Al 1.550496e+00 8.903557e-01 7.398521e+00 1.005190e-03 -1.653766e-04 -1.778191e-04
Al 1.531853e+00 8.417476e-01 -2.675335e+00 1.169927e-03 -6.257082e-05 3.091146e-04
Al -2.142921e-02 3.597940e+00 2.370164e+00 -5.608018e-04 2.847889e-04 1.143895e-03
Al -1.680672e-02 3.600598e+00 7.397915e+00 2.998619e-04 3.486190e-05 9.807685e-05
Al -3.766566e-02 3.555423e+00 -2.676325e+00 1.951197e-04 2.266420e-04 -4.180795e-04
Al 3.133109e+00 -1.821157e+00 2.378679e+00 1.886069e-03 -1.249060e-03 -8.793357e-04
Al 3.135007e+00 -1.820564e+00 7.398131e+00 7.602169e-04 -4.565626e-04 1.288515e-04
Al 3.112244e+00 -1.869458e+00 -2.675047e+00 6.542717e-04 -4.907693e-04 -2.740608e-04
Al -4.725837e+00 8.960637e-01 2.381064e+00 1.107741e-03 -2.260918e-04 -1.966723e-03
Al -4.723296e+00 8.919335e-01 7.400141e+00 9.599168e-04 -1.062398e-04 -6.957554e-04
Al -4.743759e+00 8.453575e-01 -2.675033e+00 8.176353e-04 1.787802e-04 -6.410284e-04
Al -6.290426e+00 3.611235e+00 2.392072e+00 -2.465971e-03 -5.805838e-03 -2.676551e-04
Al -6.292099e+00 3.606309e+00 7.398157e+00 1.807355e-04 2.936473e-04 -5.878195e-04
Al -6.319083e+00 3.554534e+00 -2.684598e+00 2.922533e-04 3.195555e-04 -2.582554e-04
Al -3.142106e+00 -1.821007e+00 2.377696e+00 -1.395768e-03 2.389184e-04 -8.183814e-04
Al -3.148523e+00 -1.820818e+00 7.390823e+00 7.110627e-04 2.974960e-05 -3.730679e-04
Al -3.167802e+00 -1.869245e+00 -2.659898e+00 -6.984602e-05 -4.384139e-04 -1.235487e-03
Al -1.589411e+00 8.923295e-01 2.376253e+00 -1.468534e-03 -7.398055e-04 -1.243269e-03
Al -1.587797e+00 9.039768e-01 7.390835e+00 1.141315e-03 -1.141945e-03 -4.529189e-04
Al -1.610691e+00 8.551744e-01 -2.658631e+00 1.213024e-03 6.928883e-05 -5.675823e-05
Al -3.166718e+00 3.617795e+00 2.393657e+00 1.851603e-02 -1.349598e-02 3.187055e-03
Al -3.158929e+00 3.609320e+00 7.397830e+00 5.149458e-04 -4.574832e-04 -5.029512e-04
Al -3.173407e+00 3.557205e+00 -2.682977e+00 6.803222e-04 -2.207835e-04 4.182564e-04
Al -2.889134e-04 -1.833838e+00 2.386028e+00 2.721297e-04 3.268858e-03 4.831089e-04
Al -1.412674e-03 -1.818809e+00 7.388852e+00 2.523821e-04 -7.674683e-04 -1.736251e-04
Al -2.251537e-02 -1.858577e+00 -2.668684e+00 1.241093e-03 -1.383257e-03 -7.527594e-04
Al -1.419375e-02 1.791036e+00 4.880608e+00 -8.980375e-04 1.019471e-03 6.224371e-04
Al -3.326899e-02 1.750367e+00 -5.187330e+00 -4.256667e-04 4.998355e-04 5.093761e-04
Al -3.043945e-02 1.754007e+00 -1.568365e-01 -1.229032e-03 -5.151590e-04 3.824680e-03
Al 3.138152e+00 -3.631873e+00 4.892497e+00 -8.213723e-04 1.638844e-04 -9.508085e-04
Al 3.115763e+00 -3.680352e+00 -5.191254e+00 -5.270794e-04 4.605321e-04 -7.368561e-04
Al 3.125153e+00 -3.679759e+00 -1.590600e-01 -1.365833e-03 2.920931e-03 5.735027e-03
Al 1.569442e+00 -9.196005e-01 4.890337e+00 -1.056484e-03 8.205869e-04 -7.308955e-04
Al 1.555164e+00 -9.694198e-01 -5.190684e+00 -1.514487e-03 1.069775e-03 -2.307586e-05
Al 1.552256e+00 -9.583382e-01 -1.515390e-01 4.750603e-04 2.190010e-03 4.291036e-03
Al 3.118084e+00 1.793222e+00 4.892915e+00 -1.504624e-04 -7.949454e-05 -6.626844e-04
Al 3.098269e+00 1.745158e+00 -5.193080e+00 -3.044080e-04 3.352109e-04 -3.444450e-04
Al 3.095675e+00 1.740535e+00 -1.597524e-01 1.705760e-03 2.055946e-03 6.372749e-03
Al 6.267397e+00 -3.630058e+00 4.889881e+00 -5.160155e-04 -1.870459e-04 -6.939393e-04
Al 6.242878e+00 -3.683060e+00 -5.191121e+00 5.232593e-04 -9.785928e-05 -1.382838e-04
Al 6.239969e+00 -3.677275e+00 -1.563295e-01 1.670562e-03 2.439087e-03 4.883003e-03
Al 4.700605e+00 -9.159753e-01 4.885024e+00 -8.332993e-04 2.410550e-04 -6.201236e-04
Al 4.671767e+00 -9.664465e-01 -5.185931e+00 -4.637216e-04 5.132656e-04 -1.973308e-05
Al 4.679369e+00 -9.636029e-01 -1.591210e-01 -1.838706e-04 2.172418e-03 5.366041e-03
Al -3.156233e+00 1.796582e+00 4.889181e+00 -6.224546e-04 6.800702e-04 -8.085224e-04
Al -3.180391e+00 1.756593e+00 -5.191806e+00 -9.070303e-04 -1.599901e-04 5.247045e-04
Al -3.172013e+00 1.744998e+00 -1.544230e-01 -8.812152e-04 2.601962e-03 6.519224e-03
Al -5.343991e-03 -3.627714e+00 4.883353e+00 -6.018860e-05 -6.665351e-04 2.046587e-03
Al -2.068912e-02 -3.680629e+00 -5.186573e+00 -1.015411e-03 -9.522301e-06 -1.567461e-04
Ga -2.525862e-02 -3.674061e+00 -1.582372e-01 1.901551e-03 -6.202427e-04 6.254722e-03
Al -1.574553e+00 -9.142931e-01 4.892190e+00 -1.156522e-03 3.363209e-04 -6.571352e-04
Ga -1.595225e+00 -9.625850e-01 -5.185553e+00 -1.227163e-03 6.106764e-04 -2.710640e-04
Al -1.598092e+00 -9.519393e-01 -1.517285e-01 -9.270425e-04 1.811361e-03 3.058164e-03
N 1.551163e+00 8.892843e-01 4.291163e+00 1.107982e-03 -2.950355e-04 3.313250e-04
N 1.527249e+00 8.412080e-01 -5.784651e+00 1.167802e-03 -7.794871e-05 2.654724e-04
N 1.531539e+00 8.450385e-01 -7.536017e-01 7.357279e-04 -2.535957e-05 -6.187234e-04
N -1.939090e-02 3.602095e+00 4.288453e+00 5.632979e-04 -2.400467e-04 3.015982e-04
N -3.913095e-02 3.552528e+00 -5.785594e+00 1.030038e-04 5.032687e-05 2.416881e-05
N -3.730795e-02 3.557505e+00 -7.579154e-01 6.096558e-04 4.096860e-04 6.240868e-04
N 3.132663e+00 -1.822158e+00 4.291610e+00 5.649287e-04 -4.879823e-04 1.116625e-03
N 3.112363e+00 -1.869949e+00 -5.785897e+00 6.499080e-04 -6.485792e-04 1.240866e-04
N 3.110837e+00 -1.869235e+00 -7.573093e-01 7.252581e-04 3.041316e-04 7.774111e-04
N -4.725847e+00 8.938841e-01 4.292521e+00 6.211140e-04 -1.511848e-04 1.412520e-03
N -4.745188e+00 8.420931e-01 -5.784459e+00 8.148457e-04 1.514510e-04 4.300971e-04
N -4.743857e+00 8.463065e-01 -7.581298e-01 7.830050e-04 2.879601e-04 7.894187e-04
N -6.298611e+00 3.602186e+00 4.305552e+00 5.896707e-04 8.075262e-04 -1.024107e-03
N -6.313972e+00 3.557744e+00 -5.783899e+00 1.033065e-04 7.947814e-05 7.073636e-04
N -6.353544e+00 3.534867e+00 -7.701502e-01 -8.561218e-04 7.057698e-04 -8.879561e-04
N -3.142533e+00 -1.819894e+00 4.292071e+00 4.455200e-04 -2.512129e-04 1.071195e-03
N -3.204442e+00 -1.889242e+00 -5.801858e+00 -7.602896e-04 -8.287901e-04 -2.961607e-04
N -3.165243e+00 -1.867962e+00 -7.484190e-01 6.957324e-04 2.455171e-04 1.347756e-03
N -1.590493e+00 8.945814e-01 4.292011e+00 1.329174e-03 -9.523660e-04 4.616528e-04
N -1.610221e+00 8.957287e-01 -5.801570e+00 1.232101e-03 1.934753e-04 -5.427533e-04
N -1.608674e+00 8.557548e-01 -7.423697e-01 2.025309e-03 -5.793571e-04 -6.860908e-04
N -3.154466e+00 3.607972e+00 4.305619e+00 6.110868e-04 -4.953302e-04 3.221876e-04
N -3.179862e+00 3.561134e+00 -5.784450e+00 7.394741e-04 -4.045043e-04 1.359373e-04
N -3.138134e+00 3.538172e+00 -7.689700e-01 1.578273e-03 -1.692026e-04 -2.481552e-03
N -6.611227e-03 -1.814265e+00 4.304741e+00 2.213889e-04 -9.978776e-04 -1.808411e-03
N 1.021149e-02 -1.886668e+00 -5.801235e+00 1.889752e-03 -1.476900e-03 -2.172148e-04
N -2.489327e-02 -1.815140e+00 -7.605059e-01 7.315020e-04 -2.931727e-04 8.230265e-04
N -1.814431e-02 1.782657e+00 1.776795e+00 -9.552656e-05 1.641417e-03 -3.296524e-03
N -1.195911e-02 1.792593e+00 6.797081e+00 -4.681583e-04 8.125491e-04 6.609544e-05
N -3.539610e-02 1.743697e+00 -3.265290e+00 -7.701344e-04 5.688445e-04 -3.751954e-04
N 3.129640e+00 -3.629372e+00 1.782188e+00 8.217400e-04 -2.375211e-03 -5.026910e-03
N 3.137519e+00 -3.631925e+00 6.807873e+00 -3.902182e-04 4.763876e-04 3.993016e-04
N 3.117391e+00 -3.679233e+00 -3.275814e+00 -3.050746e-04 5.962229e-04 5.444689e-04
N 1.570858e+00 -9.232510e-01 1.785615e+00 -4.106724e-03 -1.712600e-03 -4.966620e-03
N 1.571505e+00 -9.193087e-01 6.803094e+00 -1.352335e-03 9.717804e-04 -5.589843e-05
N 1.549154e+00 -9.675608e-01 -3.273905e+00 -1.548947e-03 7.515493e-04 3.605312e-04
N 3.122701e+00 1.800680e+00 1.783298e+00 -3.229648e-03 -2.072429e-03 -5.059785e-03
N 3.120741e+00 1.794213e+00 6.808256e+00 -5.600908e-04 3.228933e-04 4.401783e-04
N 3.100108e+00 1.745080e+00 -3.276611e+00 -4.634102e-04 8.168720e-05 5.237829e-04
N 6.270707e+00 -3.629212e+00 1.783647e+00 8.533605e-04 -2.557724e-03 -5.098414e-03
N 6.269024e+00 -3.629988e+00 6.802706e+00 1.469884e-04 -4.723742e-04 2.363610e-04
N 6.247514e+00 -3.674212e+00 -3.274483e+00 9.961873e-07 3.804652e-05 5.053730e-04
N 4.701289e+00 -9.146587e-01 1.782772e+00 -1.216750e-03 -2.026719e-03 -4.927189e-03
N 4.700238e+00 -9.148619e-01 6.798080e+00 -9.049005e-04 8.067524e-05 4.178516e-04
N 4.681662e+00 -9.646874e-01 -3.267693e+00 -6.860775e-04 -1.305239e-04 2.395918e-04
N -3.161234e+00 1.803961e+00 1.785831e+00 1.581746e-03 -3.536607e-03 -4.207111e-03
N -3.156884e+00 1.798429e+00 6.802380e+00 -6.950219e-04 3.240503e-04 4.371174e-04
N -3.174934e+00 1.747824e+00 -3.273939e+00 -4.893598e-04 -1.758430e-05 4.612596e-05
N 3.594307e-02 -3.669707e+00 1.854332e+00 -2.213114e-02 1.677636e-02 -1.083842e-02
N -3.947482e-03 -3.628235e+00 6.798671e+00 -6.926806e-04 -1.154992e-04 9.077629e-04
N -2.473637e-02 -3.673173e+00 -3.264329e+00 -5.266998e-04 4.177737e-04 -1.363847e-04
N -1.572319e+00 -9.256304e-01 1.780409e+00 6.287956e-04 -2.357779e-03 -2.711397e-03
N -1.573822e+00 -9.134126e-01 6.808752e+00 -9.253368e-04 1.975949e-04 6.646802e-05
N -1.596226e+00 -9.596550e-01 -3.216783e+00 -1.017478e-03 6.607297e-06 2.095487e-03
