108
Energy=-2267682.864048 Lattice="9.576914 0.000000 0.000000 -4.801613 8.262502 0.000000 -0.051008 0.112703 15.508365" Stress="-0.000126 0.000010 -0.000011 0.000010 -0.000140 0.000023 -0.000011 0.000023 -0.000099" Properties=species:S:1:pos:R:3:forces:R:3
Al 1.551669 0.941041 2.457850 0.000492 -0.005509 -0.002560
Al 1.540345 0.945135 7.600363 0.000971 -0.005715 0.000759
Al 1.589043 0.845480 -2.743411 0.001079 -0.006018 0.002253
Al -0.031962 3.677997 2.446189 -0.000880 -0.002571 0.001590
Ga -0.046100 3.691934 7.594335 -0.000518 -0.000511 0.002575
Ga 0.002498 3.585471 -2.748809 -0.002285 0.000007 0.001041
Ga 3.178752 -1.828322 2.466567 -0.001696 -0.000740 -0.001145
Ga 3.160092 -1.825851 7.594330 -0.000039 0.000623 0.001548
Ga 3.208429 -1.926993 -2.747880 -0.001197 -0.000536 0.001109
Al -4.851263 0.935998 2.468218 0.001026 -0.004780 -0.002336
Ga -4.860719 0.950331 7.600553 0.001006 -0.007195 0.000566
Ga -4.814489 0.848764 -2.735057 0.000883 -0.006177 0.000040
Ga -6.450040 3.681401 2.463898 0.000742 -0.000895 -0.001742
Ga -6.446796 3.698643 7.601601 -0.000537 -0.000510 0.001572
Ga -6.400262 3.589862 -2.740832 0.001464 -0.000150 0.002791
Al -3.239017 -1.839092 2.454640 0.000413 -0.001388 0.001375
Ga -3.231991 -1.824272 7.590100 -0.000604 0.000878 0.002183
Ga -3.186361 -1.926481 -2.739537 -0.000085 0.001643 0.000627
Ga -1.673805 0.946351 2.453818 0.008913 -0.003590 -0.003351
Ga -1.668904 0.952959 7.607268 0.007327 -0.004003 -0.001726
Ga -1.622453 0.853881 -2.733644 0.006786 -0.004028 -0.001319
Ga -3.259224 3.690075 2.464418 0.006785 0.002352 -0.001945
Ga -3.266081 3.709212 7.609537 0.006861 0.002011 0.000798
Ga -3.221756 3.598009 -2.752920 0.006472 0.003629 0.000950
Ga -0.057459 -1.821560 2.457000 0.007859 0.003173 -0.001996
Al -0.054071 -1.816384 7.609702 0.005595 0.002668 0.000923
Ga -0.007064 -1.920832 -2.747579 0.007074 0.002714 0.000348
Ga -0.035032 1.864627 5.020923 -0.006682 -0.002662 0.000446
Ga 0.008765 1.754576 -5.328455 -0.005788 -0.003272 0.000728
Al 0.004081 1.782332 -0.179999 -0.004488 -0.004286 0.014002
Al 3.178824 -3.658607 5.020863 -0.004555 -0.002783 0.000044
Al 3.210907 -3.764592 -5.329097 -0.004746 -0.002386 0.000927
Ga 3.218831 -3.760767 -0.149647 -0.008254 -0.000308 0.005325
Ga 1.581906 -0.918597 5.040559 -0.006471 0.003914 -0.001292
Ga 1.626186 -1.027546 -5.331429 -0.007536 0.004371 -0.000868
Ga 1.619560 -1.008273 -0.149409 -0.007960 0.008050 0.004435
Ga 3.130480 1.854841 5.025046 0.001638 -0.000834 0.001284
Ga 3.179063 1.756402 -5.326379 -0.000477 -0.000848 0.002352
Ga 3.164492 1.765583 -0.142667 -0.000687 0.001127 0.007349
Al 6.334727 -3.653523 5.013566 -0.000132 -0.000197 0.001423
Ga 6.391512 -3.761143 -5.327588 -0.000020 -0.001415 0.001478
Al 6.377293 -3.739870 -0.175447 0.001193 -0.002034 0.015165
Al 4.757361 -0.922707 5.018088 -0.000119 0.005921 0.000065
Ga 4.801257 -1.026423 -5.324397 -0.001031 0.006869 0.000569
Ga 4.802053 -1.017565 -0.143245 -0.002408 0.010582 0.007355
Ga -3.263019 1.863578 5.028383 -0.000537 -0.000654 0.000596
Ga -3.215394 1.767205 -5.324002 0.000590 -0.000603 0.000822
Ga -3.216323 1.768610 -0.147466 -0.001433 0.001095 0.006682
Ga -0.051207 -3.649087 5.037171 0.000624 -0.001989 0.000851
Al -0.000102 -3.755177 -5.334492 0.000282 0.000103 0.001428
Ga -0.011118 -3.751158 -0.148156 -0.000786 0.001559 0.005669
Ga -1.647965 -0.920100 5.030877 -0.002061 0.007024 0.000044
Ga -1.592045 -1.023283 -5.329168 0.000242 0.007068 0.000362
Ga -1.596229 -1.011790 -0.143425 -0.001859 0.010596 0.003767
N 1.545036 0.942872 4.383080 0.000296 -0.007938 -0.010524
N 1.592681 0.841670 -5.979079 0.000365 -0.007136 -0.010338
N 1.567792 0.864495 -0.800853 -0.009326 -0.001042 -0.007162
N -0.043232 3.708852 4.393619 -0.001294 0.010270 -0.005781
N -0.018014 3.596833 -5.945231 -0.009768 0.005518 0.001642
N 0.014494 3.591427 -0.782433 0.008706 -0.004036 0.007696
N 3.184194 -1.839934 4.429220 0.007304 -0.004545 0.005975
N 3.214772 -1.958958 -5.945746 -0.000868 -0.009319 0.001007
N 3.209264 -1.926642 -0.785143 -0.001317 0.001590 0.000439
N -4.852130 0.924287 4.397477 0.000949 -0.015412 -0.007071
N -4.806104 0.842281 -5.947228 0.001209 -0.006602 -0.000216
N -4.812024 0.852326 -0.776217 0.000063 -0.005694 0.001653
N -6.462315 3.703329 4.422945 -0.008280 0.005507 0.003157
N -6.377259 3.598939 -5.941377 0.009242 0.005644 0.002156
N -6.420731 3.609939 -0.768471 -0.010261 0.006316 0.002141
N -3.251265 -1.839344 4.397572 -0.008545 -0.003963 -0.005568
N -3.186234 -1.932212 -5.955617 -0.000225 0.001371 -0.002786
N -3.188618 -1.939218 -0.780750 -0.000241 -0.008130 0.004514
N -1.673353 0.950644 4.410620 0.007744 -0.004620 0.001579
N -1.626681 0.847678 -5.944884 0.006773 -0.004077 0.001560
N -1.609049 0.872000 -0.769045 0.015198 0.000642 0.006102
N -3.243193 3.709816 4.421636 0.014035 0.007545 0.003584
N -3.213792 3.616580 -5.931388 0.004919 0.012079 0.006438
N -3.222544 3.599522 -0.789832 0.006475 0.004330 0.001507
N -0.054689 -1.821341 4.409225 0.007171 0.003896 -0.000027
N -0.007959 -1.950166 -5.964170 0.006337 -0.006568 -0.007421
N -0.010524 -1.921306 -0.786735 0.006120 0.004628 0.001302
N -0.009050 1.848135 1.839422 0.000597 0.003094 -0.016310
N -0.020135 1.848854 6.986202 0.001953 -0.008446 0.002723
N 0.027839 1.743258 -3.362380 0.001852 -0.008216 0.003568
N 3.195972 -3.675561 1.834049 0.003245 -0.010729 0.000358
N 3.169030 -3.659600 6.950658 -0.006791 -0.002686 -0.010640
N 3.215711 -3.762225 -3.395586 -0.005779 -0.002634 -0.010091
N 1.585972 -0.894809 1.842255 -0.006271 0.007645 -0.001936
N 1.554055 -0.902340 7.005282 -0.015187 0.008303 0.007320
N 1.624402 -0.992214 -3.364060 -0.007640 0.013262 0.004179
N 3.140583 1.827395 1.857496 0.002124 -0.012969 -0.000826
N 3.111955 1.850434 6.988946 -0.008911 -0.005202 0.001713
N 3.157751 1.746978 -3.357183 -0.008533 -0.005502 0.001382
N 6.332212 -3.666522 1.839508 -0.008986 0.007127 -0.017894
N 6.341928 -3.655384 6.950987 0.000551 -0.000527 -0.013229
N 6.391320 -3.758339 -3.368773 0.000145 0.000108 -0.001216
N 4.779126 -0.904674 1.855243 0.009453 0.006475 -0.000418
N 4.754878 -0.913475 6.950861 -0.001248 0.006926 -0.010985
N 4.801928 -1.017261 -3.365845 -0.000496 0.007266 -0.000052
N -3.284455 1.848000 1.842358 -0.006435 -0.008186 -0.003337
N -3.264464 1.868185 6.987589 0.000918 -0.000144 -0.001222
N -3.216951 1.760845 -3.363987 0.000808 -0.001645 -0.001336
N -0.050741 -3.660255 1.830658 0.001823 -0.002850 -0.005311
N -0.052727 -3.626565 6.995464 0.000357 0.010255 0.002569
N -0.008318 -3.755010 -3.396183 -0.000348 0.000177 -0.012689
N -1.667312 -0.933993 1.835788 -0.008144 -0.000706 -0.000658
N -1.621972 -0.923126 6.992209 0.008726 0.002289 0.003061
N -1.595556 -1.013986 -3.367089 -0.001011 0.007870 -0.000222
