108
Energy=-2.588111e+06 Lattice="9.623672e+00 0.000000e+00 0.000000e+00 -4.829531e+00 8.326117e+00 0.000000e+00 -9.067762e-02 3.638343e-01 1.552415e+01" Stress="-1.913278e-02 4.572960e-04 -3.320911e-03 4.584319e-04 -1.909278e-02 1.363596e-02 -3.321183e-03 1.365092e-02 -2.528129e-02" Properties=species:S:1:pos:R:3:forces:R:3 Config_type=AlGaN_super3_47_0_4.xyz
Al 1.534399e+00 1.057121e+00 2.446839e+00 1.722553e-03 -5.222709e-03 1.154794e-04
Ga 1.521410e+00 1.089288e+00 7.617944e+00 1.736222e-03 -5.081507e-03 1.183513e-03
Ga 1.608222e+00 7.615023e-01 -2.744871e+00 7.587724e-04 -4.491988e-03 8.766563e-04
Al -6.287381e-02 3.812319e+00 2.449149e+00 -2.328224e-04 -1.609060e-03 3.940723e-04
Ga -8.092363e-02 3.845661e+00 7.615685e+00 6.055392e-04 7.260797e-04 1.543585e-03
Ga 1.511817e-02 3.514733e+00 -2.746251e+00 -2.855726e-04 1.483395e-04 1.469926e-03
Ga 3.165094e+00 -1.735831e+00 2.447155e+00 1.158636e-04 -1.949012e-03 1.026444e-03
Ga 3.149220e+00 -1.708495e+00 7.611976e+00 9.237535e-04 -4.796912e-04 9.018884e-04
Ga 3.235002e+00 -2.037429e+00 -2.736880e+00 -9.348790e-05 8.754991e-05 1.188584e-03
Ga -4.894127e+00 1.055644e+00 2.444290e+00 1.586449e-03 -5.424117e-03 4.421595e-04
Ga -4.894896e+00 1.097439e+00 7.616345e+00 1.353402e-03 -5.056000e-03 -2.809103e-04
Ga -4.817995e+00 7.658599e-01 -2.740023e+00 4.700716e-04 -4.460096e-03 -2.528320e-04
Ga -6.495661e+00 3.818071e+00 2.450551e+00 1.043632e-03 -1.218635e-03 1.836270e-03
Ga -6.488016e+00 3.858198e+00 7.600999e+00 3.194272e-04 4.622461e-04 1.487843e-03
Al -6.415065e+00 3.526214e+00 -2.742363e+00 1.158048e-04 2.606213e-04 1.719203e-03
Ga -3.261369e+00 -1.746938e+00 2.434685e+00 7.584272e-04 -6.171808e-04 2.063112e-03
Ga -3.269985e+00 -1.699095e+00 7.614133e+00 4.980892e-04 -4.999124e-04 1.457892e-03
Ga -3.180346e+00 -2.032138e+00 -2.730585e+00 -1.023293e-03 -5.289534e-04 2.284542e-03
Ga -1.681227e+00 1.046047e+00 2.413394e+00 5.779910e-03 -5.681331e-03 4.897192e-03
Ga -1.695746e+00 1.104925e+00 7.616086e+00 3.924602e-03 -4.548547e-03 -9.203422e-04
Ga -1.614333e+00 7.629877e-01 -2.749006e+00 5.616579e-03 -1.492917e-03 -1.179880e-03
Ga -3.289369e+00 3.824621e+00 2.447599e+00 5.909286e-03 -8.024351e-05 3.624762e-04
Al -3.301530e+00 3.864850e+00 7.601347e+00 2.342112e-03 3.771154e-04 1.572420e-03
Ga -3.226040e+00 3.529953e+00 -2.736814e+00 4.352674e-03 2.390621e-03 2.066806e-04
Ga -6.055802e-02 -1.739364e+00 2.450354e+00 6.688032e-03 7.523563e-04 -4.175111e-04
Ga -6.822533e-02 -1.703843e+00 7.604291e+00 3.504453e-03 2.524837e-04 7.467446e-04
Ga 1.488980e-03 -2.027952e+00 -2.725301e+00 5.762100e-03 9.210165e-04 2.290199e-03
Ga -6.379489e-02 1.988607e+00 5.004187e+00 -4.025226e-03 -2.428315e-03 1.494969e-03
Al 1.529271e-02 1.656104e+00 -5.328003e+00 -3.033463e-03 -8.720034e-04 1.371992e-03
Ga 7.863959e-03 1.688441e+00 -1.394823e-01 -4.140112e-03 5.944414e-03 3.536698e-03
Ga 3.154699e+00 -3.570494e+00 5.028944e+00 -2.220050e-03 -2.697968e-03 3.628323e-04
Ga 3.244616e+00 -3.907965e+00 -5.332194e+00 -4.246799e-03 -1.657672e-03 1.943816e-04
Ga 3.238521e+00 -3.867474e+00 -1.423688e-01 -5.562145e-03 4.712376e-03 4.512655e-03
Ga 1.558380e+00 -8.014866e-01 5.024830e+00 -5.145674e-03 3.764910e-03 -1.055949e-03
Ga 1.639198e+00 -1.127668e+00 -5.320415e+00 -4.326959e-03 2.822526e-03 -8.896590e-04
Ga 1.629728e+00 -1.090427e+00 -1.337921e-01 -7.689180e-03 8.022291e-03 2.168789e-03
Ga 3.131618e+00 1.995990e+00 5.020849e+00 -1.277668e-03 -1.318914e-03 1.408875e-03
Ga 3.206119e+00 1.666636e+00 -5.321767e+00 1.337459e-04 -1.870837e-03 1.116739e-03
Ga 3.201659e+00 1.700690e+00 -1.546530e-01 -2.324783e-03 6.376261e-03 5.976522e-03
Ga 6.362234e+00 -3.563611e+00 5.022472e+00 -8.243587e-04 -1.859084e-03 1.164962e-03
Ga 6.444442e+00 -3.904024e+00 -5.319233e+00 -9.154239e-04 3.007221e-04 1.339222e-03
Ga 6.441548e+00 -3.856381e+00 -1.499947e-01 -2.668734e-03 6.816555e-03 4.590040e-03
Ga 4.760217e+00 -7.952296e-01 5.032412e+00 -4.059384e-04 3.558240e-03 -1.914961e-05
Ga 4.841436e+00 -1.129047e+00 -5.321055e+00 -8.409366e-04 3.918713e-03 3.917086e-04
Ga 4.832858e+00 -1.090375e+00 -1.455286e-01 -2.626857e-03 9.142280e-03 1.777465e-03
Ga -3.294411e+00 2.005575e+00 5.028380e+00 1.587827e-03 -2.025828e-03 1.347077e-03
Ga -3.201851e+00 1.671519e+00 -5.338186e+00 -2.261859e-04 -4.737035e-04 1.394600e-03
Ga -3.216910e+00 1.697152e+00 -1.574673e-01 -3.452796e-03 7.345718e-03 2.980552e-03
Al -6.011350e-02 -3.561461e+00 5.030793e+00 -5.695353e-04 -6.646092e-04 1.707194e-03
Ga 1.800946e-02 -3.894338e+00 -5.328129e+00 1.414883e-03 -3.552805e-04 2.781163e-03
Ga -4.263936e-03 -3.848386e+00 -1.548867e-01 -9.267790e-04 7.514631e-03 2.263241e-03
Ga -1.663024e+00 -7.982493e-01 5.024145e+00 -5.838000e-04 5.239157e-03 6.801250e-04
Ga -1.576801e+00 -1.118780e+00 -5.327750e+00 -1.302247e-03 4.354243e-03 3.749421e-04
Al -1.603199e+00 -1.038530e+00 -1.628325e-01 -1.940929e-04 -2.823943e-03 7.005772e-03
N 1.532923e+00 1.066560e+00 4.369124e+00 1.468404e-03 -4.996372e-03 -6.844380e-03
N 1.585143e+00 7.516318e-01 -5.933723e+00 -4.492039e-03 -1.060898e-03 1.807849e-03
N 1.602835e+00 7.709075e-01 -7.759746e-01 2.735971e-04 -1.522622e-03 -1.375968e-03
N -7.030335e-02 3.834426e+00 4.374433e+00 -4.002656e-04 1.150504e-03 -8.050721e-03
N 1.544871e-02 3.468748e+00 -5.935002e+00 3.168085e-04 -5.908914e-03 1.084010e-03
N 7.526921e-03 3.533723e+00 -7.754298e-01 -4.753441e-04 2.895669e-03 -2.166149e-03
N 3.159716e+00 -1.722455e+00 4.410661e+00 1.435344e-04 -4.458154e-04 -6.352496e-04
N 3.240252e+00 -2.055052e+00 -5.946508e+00 -4.669938e-04 6.515934e-04 -1.126987e-03
N 3.229367e+00 -2.020956e+00 -7.697172e-01 -1.004776e-03 3.470892e-03 -1.797842e-04
N -4.890528e+00 1.070664e+00 4.408982e+00 1.078675e-03 -4.482998e-03 -6.124984e-04
N -4.810791e+00 7.395699e-01 -5.943389e+00 4.470388e-04 -3.676249e-03 2.538257e-04
N -4.821619e+00 7.743232e-01 -7.757881e-01 5.796644e-04 -9.836708e-04 -6.360266e-04
N -6.464003e+00 3.854543e+00 4.421929e+00 6.354276e-03 3.787573e-03 1.287269e-03
N -6.407782e+00 3.506962e+00 -5.955073e+00 -2.459486e-04 7.448065e-04 -1.987098e-03
N -6.420928e+00 3.540984e+00 -8.126777e-01 -3.544000e-04 3.065652e-03 -7.645369e-03
N -3.264626e+00 -1.719044e+00 4.403815e+00 -3.875311e-04 4.548661e-04 -2.406878e-03
N -3.181504e+00 -2.052322e+00 -5.942641e+00 2.292169e-04 3.118635e-04 -1.137151e-03
N -3.166606e+00 -1.989437e+00 -7.535664e-01 6.550689e-03 5.406636e-03 -6.278768e-04
N -1.697040e+00 1.070261e+00 4.391182e+00 3.941173e-03 -3.220758e-03 2.893919e-04
N -1.579564e+00 7.619606e-01 -5.938473e+00 9.348442e-03 -5.297036e-04 2.528924e-03
N -1.620383e+00 7.571788e-01 -7.795465e-01 4.918330e-03 -2.521213e-03 4.289943e-03
N -3.324137e+00 3.857085e+00 4.414589e+00 -1.716399e-03 4.864144e-03 2.102948e-03
N -3.216053e+00 3.511761e+00 -5.988426e+00 3.563218e-03 2.465176e-03 -8.185315e-03
N -3.224441e+00 3.548193e+00 -7.730017e-01 3.510495e-03 4.645519e-03 -3.376966e-04
N -6.966988e-02 -1.750382e+00 4.420696e+00 4.481317e-03 -5.523887e-03 1.573541e-03
N 1.509428e-02 -2.050029e+00 -5.950358e+00 4.081301e-03 1.953458e-03 -1.183062e-03
N -2.816184e-02 -1.980337e+00 -7.463138e-01 -2.605481e-03 7.466007e-03 -1.551824e-03
N -2.625655e-02 1.984224e+00 1.840223e+00 8.098158e-04 -7.270891e-03 6.706254e-04
N -6.712822e-02 2.002524e+00 6.976065e+00 -4.158253e-03 -9.132971e-04 -1.666763e-03
N 1.459268e-02 1.668381e+00 -3.399770e+00 -4.908972e-03 -6.338078e-04 -7.505494e-03
N 3.197177e+00 -3.604429e+00 1.841511e+00 2.426797e-03 -1.261672e-02 -1.800017e-03
N 3.130021e+00 -3.572972e+00 7.002283e+00 -8.430885e-03 -3.647088e-03 1.561891e-03
N 3.239712e+00 -3.888831e+00 -3.364635e+00 -4.089679e-03 -1.173653e-03 -4.806437e-04
N 1.567259e+00 -7.834397e-01 1.843721e+00 -3.573809e-03 -9.227387e-05 -1.688666e-03
N 1.557586e+00 -7.814516e-01 6.990531e+00 -4.919456e-03 3.680116e-03 6.200117e-05
N 1.638325e+00 -1.118478e+00 -3.355868e+00 -5.648495e-03 3.381378e-03 6.470276e-04
N 3.107017e+00 1.957532e+00 1.833978e+00 -3.462179e-03 -1.046140e-02 -3.996003e-03
N 3.125114e+00 2.004821e+00 6.989267e+00 -3.786068e-04 -2.869843e-04 -1.706302e-03
N 3.209722e+00 1.707724e+00 -3.350904e+00 -8.575427e-06 7.316686e-03 1.008048e-03
N 6.332636e+00 -3.608168e+00 1.835555e+00 -3.052578e-03 -1.164631e-02 -3.299926e-03
N 6.352345e+00 -3.551488e+00 6.990730e+00 -5.022577e-04 -1.211145e-04 -1.185472e-03
N 6.467677e+00 -3.896718e+00 -3.345726e+00 5.371915e-03 -2.207815e-03 9.449902e-04
N 4.765193e+00 -8.165976e-01 1.816197e+00 7.191606e-04 -2.840455e-03 -1.909098e-03
N 4.754914e+00 -7.810314e-01 6.995550e+00 -1.475163e-03 4.955414e-03 -1.754139e-04
N 4.838405e+00 -1.114623e+00 -3.355470e+00 -4.753243e-04 4.929737e-03 7.017069e-05
N -3.288293e+00 1.973135e+00 1.807330e+00 2.416023e-03 -8.513059e-03 -2.683883e-03
N -3.293543e+00 2.043105e+00 7.002636e+00 3.390628e-05 6.544946e-03 1.142407e-03
N -3.212818e+00 1.681453e+00 -3.367902e+00 1.355950e-04 2.267527e-04 -1.474124e-03
N -5.820487e-02 -3.587008e+00 1.810950e+00 4.921496e-04 -8.889139e-03 -2.313610e-03
N -3.919173e-02 -3.562074e+00 6.964162e+00 5.773292e-03 -2.737354e-03 -6.325711e-03
N -1.289368e-02 -3.891931e+00 -3.348764e+00 -5.968812e-03 -2.278359e-03 2.962450e-04
N -1.650035e+00 -8.558124e-01 1.787026e+00 -2.113279e-03 7.685655e-03 -1.273021e-02
N -1.668110e+00 -7.759574e-01 6.991769e+00 -6.800995e-04 5.345348e-03 1.382896e-04
N -1.585345e+00 -1.108643e+00 -3.361997e+00 -1.328526e-03 5.081020e-03 -1.121188e-03
