108
Energy=-1.123296e+06 Lattice="9.476298e+00 0.000000e+00 0.000000e+00 -4.742925e+00 8.202212e+00 0.000000e+00 -2.940293e-03 -5.033675e-02 1.527893e+01" Stress="-1.616681e-04 -8.535516e-04 2.213844e-04 -8.543093e-04 -5.100608e-04 -2.038050e-03 2.165405e-04 -2.044716e-03 9.518179e-04" Properties=species:S:1:pos:R:3:forces:R:3 Config_type=AlGaN_super3_15_1_36.xyz
Al 1.553332e+00 8.644314e-01 2.401576e+00 1.582082e-03 6.191835e-04 -5.717068e-04
Al 1.557938e+00 8.415387e-01 7.463580e+00 -5.428988e-04 5.232315e-04 4.987446e-04
Al 1.558916e+00 8.810457e-01 -2.673229e+00 -3.386840e-04 1.878669e-05 2.713257e-04
Al -3.939666e-02 3.595137e+00 2.389236e+00 -9.369657e-04 -6.153234e-04 -1.121770e-03
Al -1.006116e-02 3.568328e+00 7.475252e+00 -6.235390e-03 9.089929e-04 -6.592077e-04
Al -1.280633e-02 3.622745e+00 -2.666704e+00 -2.415931e-03 -1.783145e-03 3.926329e-04
Al 3.130676e+00 -1.880533e+00 2.382909e+00 -1.710341e-04 1.708037e-04 3.595310e-04
Al 3.134092e+00 -1.876749e+00 7.500678e+00 -2.181128e-04 -2.968559e-03 -1.153475e-03
Ga 3.140922e+00 -1.842094e+00 -2.684433e+00 -2.817602e-04 1.333121e-04 1.158547e-04
Al -4.757527e+00 8.791176e-01 2.412256e+00 -5.296790e-03 -5.948121e-03 2.209498e-03
Al -4.758931e+00 8.422174e-01 7.479616e+00 3.666611e-05 3.130926e-03 8.077674e-04
Al -4.757663e+00 8.854323e-01 -2.700422e+00 -3.524675e-04 -1.164481e-04 2.903548e-04
Ga -6.338554e+00 3.595409e+00 2.384952e+00 -2.959632e-04 -7.511621e-04 -1.681536e-04
Al -6.336260e+00 3.570157e+00 7.492183e+00 -2.857619e-03 9.615687e-04 -1.269571e-03
Ga -6.348010e+00 3.616918e+00 -2.678459e+00 3.684149e-04 3.239080e-04 9.554748e-04
Al -3.173213e+00 -1.860102e+00 2.407286e+00 -1.497299e-03 -1.084086e-03 -2.447441e-03
Ga -3.174941e+00 -1.887454e+00 7.503556e+00 4.921449e-04 -9.905904e-05 3.414920e-05
Al -3.184631e+00 -1.852323e+00 -2.705051e+00 6.732894e-05 6.710182e-04 -3.055525e-04
Al -1.595931e+00 8.625598e-01 2.407118e+00 1.019319e-03 -9.661426e-04 -1.749514e-04
Al -1.596793e+00 8.507338e-01 7.476705e+00 -2.487568e-04 -2.093548e-03 -2.443858e-03
Ga -1.613064e+00 8.894516e-01 -2.680654e+00 8.633647e-05 1.462090e-04 -3.781011e-04
Al -3.173689e+00 3.607937e+00 2.423129e+00 -8.196700e-04 8.520921e-04 -4.770710e-04
Ga -3.188124e+00 3.577344e+00 7.468081e+00 5.704697e-04 5.716025e-04 -9.467781e-04
Al -3.187202e+00 3.612728e+00 -2.695752e+00 -3.049888e-04 -7.188641e-04 1.060851e-03
Al -2.164453e-02 -1.862697e+00 2.392701e+00 -6.418816e-04 1.298912e-03 -2.277013e-03
Al -2.016831e-02 -1.881742e+00 7.492515e+00 -2.095936e-03 -2.074920e-03 9.256063e-04
Ga -2.098796e-02 -1.843704e+00 -2.687779e+00 4.388349e-04 -4.483755e-04 1.297559e-03
Al -3.237469e-02 1.764669e+00 4.936773e+00 -3.673224e-04 3.921946e-04 -5.179643e-04
Ga -2.236616e-02 1.795457e+00 -5.249763e+00 7.382026e-05 -4.111887e-04 1.025932e-03
Al -1.045078e-02 1.788987e+00 -1.330741e-01 -3.159817e-04 -3.064055e-04 3.878827e-04
Al 3.135036e+00 -3.713582e+00 4.937078e+00 4.252455e-04 -1.588100e-04 -4.688681e-04
Ga 3.144345e+00 -3.666203e+00 -5.239767e+00 -2.561013e-04 1.551266e-04 3.494485e-04
Al 3.136298e+00 -3.688650e+00 -1.384867e-01 -1.052968e-03 -1.229618e-03 -4.634425e-05
Ga 1.548994e+00 -9.782017e-01 4.934514e+00 -3.021701e-04 3.620797e-04 -2.447373e-04
Al 1.553826e+00 -9.349232e-01 -5.265620e+00 -3.213299e-04 1.939335e-04 -2.744123e-04
Al 1.545974e+00 -9.377051e-01 -1.140024e-01 -1.153931e-03 4.217321e-05 6.052281e-04
Al 3.140064e+00 1.769741e+00 4.958399e+00 -4.851039e-04 -6.689534e-04 -2.336402e-04
Ga 3.142124e+00 1.796318e+00 -5.253713e+00 1.043638e-04 -1.429525e-04 5.581874e-04
Al 3.121941e+00 1.779575e+00 -1.467987e-01 -5.636710e-04 6.393597e-04 7.146620e-05
Ga 6.295131e+00 -3.714854e+00 4.937478e+00 -1.101203e-04 1.851277e-04 1.511732e-04
Al 6.297011e+00 -3.662293e+00 -5.243786e+00 2.279733e-03 1.008003e-03 9.536102e-04
Al 6.292685e+00 -3.677655e+00 -1.352355e-01 -4.645848e-04 -1.097200e-03 -8.172878e-04
Ga 4.714264e+00 -9.615244e-01 4.933063e+00 -5.015565e-04 4.046702e-04 -7.582754e-04
Al 4.724823e+00 -9.268706e-01 -5.244360e+00 5.930819e-04 5.121510e-04 9.470265e-04
Ga 4.718960e+00 -9.483467e-01 -1.277024e-01 1.903659e-04 -8.343812e-05 1.552492e-03
Al -3.178089e+00 1.767155e+00 4.922481e+00 -4.415337e-04 -3.950302e-04 -8.032839e-04
Al -3.189124e+00 1.797227e+00 -5.256706e+00 -4.109656e-04 -2.702646e-03 4.187139e-03
Ga -3.190392e+00 1.801358e+00 -1.158400e-01 4.187350e-04 2.743154e-04 -8.437947e-04
Al -2.000456e-02 -3.702338e+00 4.937491e+00 5.014697e-04 1.148075e-03 1.562849e-03
Al -2.359205e-02 -3.657580e+00 -5.255808e+00 -8.936568e-04 3.208553e-04 8.889799e-04
Al -1.252522e-02 -3.674311e+00 -1.237647e-01 -3.155041e-04 7.667598e-04 -3.221214e-03
Al -1.586204e+00 -9.595112e-01 4.939707e+00 -6.814206e-04 -3.590131e-04 -1.457340e-03
Al -1.602494e+00 -9.392624e-01 -5.252914e+00 2.335064e-05 1.117874e-03 -3.484454e-04
Al -1.599120e+00 -9.571258e-01 -1.236495e-01 7.818412e-04 -1.174019e-03 1.199450e-04
N 1.557809e+00 9.037311e-01 4.325147e+00 2.465463e-04 3.977077e-04 -1.174108e-04
N 1.556067e+00 8.471525e-01 -5.908966e+00 1.587870e-04 -1.017856e-04 -9.859944e-04
N 1.550912e+00 8.706914e-01 -7.489493e-01 1.389803e-04 -2.722063e-04 1.630670e-04
N -6.884406e-02 3.562196e+00 4.299246e+00 -3.787866e-04 -2.403025e-04 2.363806e-03
N 1.942309e-02 3.645892e+00 -5.896268e+00 -1.226623e-03 -7.323913e-04 -1.036052e-03
N -2.172105e-02 3.611515e+00 -7.422565e-01 -5.764250e-04 -1.502388e-04 -1.583004e-04
N 3.134038e+00 -1.933102e+00 4.289630e+00 -1.401359e-04 3.848155e-04 -1.589253e-04
N 3.143368e+00 -1.800336e+00 -5.862849e+00 -4.770450e-04 4.272728e-04 4.132638e-04
N 3.089320e+00 -1.875180e+00 -7.054140e-01 4.717023e-04 -2.166267e-04 1.364536e-04
N -4.774434e+00 9.069661e-01 4.320604e+00 2.270968e-03 5.249179e-04 5.980157e-04
N -4.718864e+00 8.684750e-01 -5.882221e+00 4.251883e-04 -1.199398e-04 -6.247200e-04
N -4.799863e+00 8.999281e-01 -7.898995e-01 6.512480e-04 -2.908510e-04 -1.232697e-04
N -6.299507e+00 3.561387e+00 4.357966e+00 -4.569419e-04 2.721430e-04 -4.163758e-04
N -6.342044e+00 3.670990e+00 -5.869616e+00 -1.264378e-04 8.625251e-05 6.253099e-04
N -6.343332e+00 3.614922e+00 -6.889895e-01 6.002757e-04 -1.205111e-05 6.544244e-04
N -3.135694e+00 -1.856264e+00 4.307607e+00 1.014309e-03 9.338607e-05 1.290816e-03
N -3.180088e+00 -1.845797e+00 -5.800598e+00 1.020873e-04 3.669306e-04 1.327600e-04
N -3.142082e+00 -1.881181e+00 -7.771479e-01 1.019495e-03 9.565014e-04 -8.852550e-04
N -1.597766e+00 8.530213e-01 4.329966e+00 1.260619e-04 2.817763e-05 -2.460349e-04
N -1.645537e+00 8.736071e-01 -5.881405e+00 5.936308e-04 -1.496077e-03 4.286141e-04
N -1.571108e+00 8.517078e-01 -7.040415e-01 9.450472e-04 8.458432e-04 5.944980e-04
N -3.184395e+00 3.595491e+00 4.347159e+00 -4.579202e-04 -1.311838e-04 -4.845354e-04
N -3.222210e+00 3.597951e+00 -5.835112e+00 6.753004e-05 1.846269e-03 -7.090158e-04
N -3.189880e+00 3.655546e+00 -7.742964e-01 7.906904e-04 1.601439e-04 -1.076086e-04
N -6.398861e-02 -1.902757e+00 4.293835e+00 -3.114118e-04 -8.718374e-04 4.117770e-03
N -2.344856e-02 -1.842499e+00 -5.861078e+00 1.997005e-04 -8.852544e-05 -1.256236e-04
N -2.014607e-02 -1.853566e+00 -7.012449e-01 -7.503967e-04 8.937441e-05 5.997404e-04
N -2.066075e-02 1.775854e+00 1.791837e+00 -2.430167e-04 -3.070576e-04 -5.492763e-04
N -2.135581e-02 1.755078e+00 6.864845e+00 -5.524401e-04 4.864379e-04 -2.242565e-04
N 1.805316e-02 1.818547e+00 -3.266991e+00 4.977835e-04 9.263001e-04 3.167813e-04
N 3.133932e+00 -3.701044e+00 1.782623e+00 -6.860789e-04 -2.889853e-04 -5.177494e-04
N 3.176404e+00 -3.678223e+00 6.852323e+00 3.241457e-03 -1.694037e-03 2.620125e-03
N 3.142938e+00 -3.720016e+00 -3.264063e+00 1.094259e-03 -3.854091e-04 2.605860e-04
N 1.554663e+00 -9.509359e-01 1.807589e+00 -1.184260e-04 3.999965e-04 -7.933545e-04
N 1.550497e+00 -9.905639e-01 6.917315e+00 2.566549e-03 2.626751e-03 -2.494363e-04
N 1.557662e+00 -8.895961e-01 -3.351075e+00 -2.348726e-04 5.683193e-04 1.214608e-04
N 3.142069e+00 1.723655e+00 1.763178e+00 -2.423210e-03 3.941966e-05 -4.006155e-05
N 3.141753e+00 1.754480e+00 6.883187e+00 -4.704066e-04 -2.287347e-04 -2.198897e-04
N 3.131081e+00 1.749403e+00 -3.273555e+00 -1.715235e-04 -1.430861e-04 -2.342001e-04
N 6.245686e+00 -3.671391e+00 1.775327e+00 1.951763e-03 3.210100e-03 1.967323e-03
N 6.293393e+00 -3.757098e+00 6.904518e+00 3.972743e-03 3.001020e-06 2.331685e-04
N 6.252757e+00 -3.655739e+00 -3.318092e+00 7.724791e-04 7.208404e-04 -8.582324e-04
N 4.713619e+00 -9.549531e-01 1.857321e+00 2.773754e-03 1.830274e-03 -1.650862e-03
N 4.678085e+00 -9.534623e-01 6.906492e+00 -5.409098e-04 -1.460473e-03 -4.618248e-04
N 4.754283e+00 -9.102838e-01 -3.319427e+00 5.092383e-04 -1.049614e-03 -4.689262e-04
N -3.189243e+00 1.775712e+00 1.868375e+00 3.848679e-03 3.944093e-03 -1.810875e-03
N -3.179894e+00 1.709763e+00 6.835679e+00 1.382719e-04 -1.140207e-03 1.586884e-03
N -3.225154e+00 1.818191e+00 -3.322870e+00 8.889804e-04 6.598567e-04 -2.229234e-03
N 2.477455e-02 -3.660257e+00 1.777058e+00 2.263554e-03 -3.391503e-03 2.075804e-03
N -6.930645e-02 -3.683713e+00 6.862403e+00 1.798792e-03 1.226108e-03 -2.373577e-03
N 1.463405e-02 -3.690587e+00 -3.340125e+00 1.473913e-04 -1.913575e-04 -8.978086e-04
N -1.603627e+00 -9.552891e-01 1.794235e+00 -4.669523e-04 7.186026e-05 -5.768379e-04
N -1.555960e+00 -9.589826e-01 6.854978e+00 -4.562303e-04 2.687756e-03 1.065114e-03
N -1.636543e+00 -9.566749e-01 -3.343437e+00 -8.852848e-04 -3.325862e-04 -1.807147e-04
