108
Energy=-528212.645759 Lattice="9.474176 0.000000 0.000000 -4.738766 8.200664 0.000000 -0.000088 -0.000186 15.283089" Stress="0.000110 0.000025 -0.000001 0.000025 0.000134 -0.000002 -0.000001 -0.000001 0.000186" Properties=species:S:1:pos:R:3:forces:R:3
Al 1.563065 0.899813 2.475810 -0.001245 -0.013790 -0.009039
Al 1.562408 0.899761 7.502502 -0.000930 -0.013168 -0.004597
Al 1.562244 0.901202 -2.755125 -0.001256 -0.013023 -0.003918
Al -0.003119 3.607361 2.468999 -0.002640 -0.001698 -0.006902
Al -0.002630 3.608871 7.502485 -0.002525 -0.001060 -0.002730
Al -0.003099 3.608562 -2.752019 -0.002457 -0.001288 -0.001756
Al 3.172017 -1.883169 2.475953 -0.003260 0.001730 -0.008848
Al 3.171317 -1.882255 7.502426 -0.002658 0.001471 -0.003890
Al 3.173106 -1.882421 -2.755076 -0.002714 0.001201 -0.003543
Al -4.782017 0.899590 2.470568 0.001085 -0.012171 -0.006961
Al -4.781827 0.900361 7.502646 0.001378 -0.012096 -0.003513
Al -4.781583 0.900492 -2.751468 0.001259 -0.011984 -0.002677
Al -6.346823 3.609930 2.469429 -0.000312 -0.000358 -0.005556
Al -6.346786 3.609538 7.502556 -0.000140 0.000130 -0.001750
Al -6.346709 3.609574 -2.751071 -0.000369 0.000121 -0.000854
Al -3.175167 -1.882239 2.471939 0.001930 0.004338 -0.008089
Al -3.173094 -1.881518 7.502483 -0.000306 0.002680 -0.002750
Al -3.173632 -1.880698 -2.752536 -0.000169 0.002418 -0.002136
Al -1.651777 0.896560 2.472726 0.013444 -0.004513 -0.008707
Al -1.652324 0.901010 7.502553 0.012844 -0.007289 -0.005320
Al -1.652520 0.901257 -2.759012 0.013805 -0.006892 -0.001243
Al -3.217360 3.609665 2.469690 0.011506 0.004854 -0.006709
Al -3.217078 3.610048 7.502471 0.011256 0.004951 -0.003458
Al -3.217541 3.609388 -2.750905 0.011403 0.004991 -0.002215
Al -0.042787 -1.877954 2.476033 0.012061 0.007876 -0.008907
Al -0.043323 -1.880934 7.502723 0.011039 0.007398 -0.004317
Ga -0.043517 -1.880478 -2.755525 0.013509 0.009480 -0.004661
Al -0.002322 1.802480 4.989186 -0.010975 -0.007478 -0.004832
Al -0.002035 1.802751 -5.268638 -0.010987 -0.007482 -0.004303
Al -0.004369 1.799825 -0.227365 -0.008940 -0.006449 0.026080
Al 3.171714 -3.689362 4.989103 -0.011172 -0.004988 -0.003707
Al 3.171531 -3.688920 -5.267483 -0.011261 -0.004961 -0.003316
Al 3.170729 -3.688109 -0.229217 -0.011032 -0.005351 0.026643
Al 1.606747 -0.979412 4.990687 -0.012642 0.007504 -0.006295
Al 1.607369 -0.978846 -5.268618 -0.013153 0.007296 -0.005552
Al 1.607819 -0.979971 -0.249300 -0.013403 0.007918 0.028410
Al 3.127652 1.803275 4.988850 0.000280 -0.002818 -0.003080
Al 3.127692 1.803262 -5.267646 0.000258 -0.002749 -0.002579
Al 3.124619 1.800985 -0.230812 0.000115 -0.002764 0.027446
Al 6.300954 -3.688446 4.988468 0.000075 -0.000440 -0.001947
Al 6.301316 -3.688028 -5.267202 0.000157 -0.000168 -0.001567
Al 6.299732 -3.688194 -0.228642 0.000018 -0.000402 0.027960
Al 4.736461 -0.979146 4.989730 -0.001614 0.012349 -0.003664
Al 4.736647 -0.978547 -5.267659 -0.001383 0.012177 -0.003462
Al 4.734968 -0.978750 -0.229708 -0.001264 0.012160 0.026877
Al -3.216845 1.803473 4.988041 0.002649 -0.001596 -0.003981
Al -3.217090 1.803997 -5.268241 0.002699 -0.001594 -0.003745
Al -3.220622 1.804624 -0.221132 0.005972 -0.002874 0.024844
Al -0.043227 -3.687537 4.988595 0.002526 0.000956 -0.002883
Al -0.042854 -3.688162 -5.268096 0.002494 0.001344 -0.002791
Al -0.043633 -3.692532 -0.219712 0.002629 0.002769 0.025938
Al -1.608441 -0.978239 4.989874 0.000954 0.013355 -0.004320
Al -1.608501 -0.977909 -5.268997 0.001226 0.013169 -0.004692
Ga -1.603471 -0.976421 -0.227088 0.001445 0.017742 0.033127
N 1.562559 0.900698 4.394036 -0.000376 -0.012620 0.004457
N 1.562687 0.900103 -5.864075 -0.000388 -0.012644 0.004242
N 1.560471 0.899332 -0.836260 0.000284 -0.012639 0.005952
N -0.002645 3.608598 4.391064 -0.001767 0.000169 0.001424
N -0.002405 3.609242 -5.863713 -0.001769 0.000145 0.001876
N -0.004309 3.607773 -0.829270 -0.001179 0.000784 0.002989
N 3.172184 -1.883027 4.394228 -0.002170 0.001361 0.001718
N 3.171591 -1.882009 -5.863869 -0.002091 0.001281 0.001557
N 3.172362 -1.882610 -0.836353 -0.002023 0.001031 0.003485
N -4.781976 0.899975 4.391590 0.000979 -0.012506 0.004128
N -4.781857 0.900527 -5.863643 0.000920 -0.012602 0.004759
N -4.782964 0.900028 -0.829182 0.001638 -0.012506 0.005336
N -6.346905 3.609823 4.391072 -0.000310 0.000334 0.001638
N -6.346700 3.609629 -5.863669 -0.000589 0.000243 0.002218
N -6.347729 3.608928 -0.828197 -0.000245 0.000612 0.003426
N -3.173739 -1.882012 4.392440 -0.000431 0.001858 0.001007
N -3.173146 -1.881448 -5.863958 -0.001059 0.001515 0.001879
N -3.174033 -1.880351 -0.830202 -0.018031 -0.008321 -0.003739
N -1.652166 0.900531 4.392546 0.012588 -0.007510 0.006719
N -1.652366 0.901283 -5.864193 0.012745 -0.007273 0.007005
N -1.633395 0.911026 -0.823441 0.005188 0.007654 -0.001169
N -3.217139 3.610201 4.391073 0.011116 0.005484 0.004001
N -3.217019 3.610240 -5.863925 0.011468 0.005451 0.004403
N -3.217890 3.609672 -0.827381 0.010959 0.005565 0.005210
N -0.044249 -1.880683 4.394193 0.010408 0.006569 0.004109
N -0.043231 -1.880872 -5.863718 0.010792 0.006786 0.003543
N -0.039913 -1.882619 -0.835626 0.028095 -0.004622 0.021974
N -0.001968 1.798970 1.871413 -0.010496 -0.005548 -0.022693
N -0.002350 1.802449 6.906706 -0.010907 -0.006845 0.004085
N -0.002324 1.802849 -3.351961 -0.010690 -0.006833 0.003938
N 3.170852 -3.689031 1.870852 -0.011248 -0.005455 -0.022811
N 3.171509 -3.689179 6.906653 -0.011386 -0.005498 0.004390
N 3.171507 -3.689248 -3.349597 -0.011660 -0.005451 0.004811
N 1.607970 -0.979563 1.890794 -0.013049 0.007479 -0.023618
N 1.606653 -0.979424 6.907364 -0.012835 0.007289 0.006745
N 1.609543 -0.977672 -3.352450 0.002281 0.015590 0.001588
N 3.127438 1.802286 1.871259 0.000985 -0.001339 -0.025640
N 3.127657 1.803133 6.906544 0.000920 -0.001621 0.001684
N 3.127670 1.803644 -3.349382 0.001284 -0.001698 0.002004
N 6.300735 -3.688530 1.869708 0.000802 0.000500 -0.024884
N 6.301133 -3.688322 6.906412 0.000397 -0.000177 0.001995
N 6.301073 -3.687936 -3.348714 0.000600 -0.000188 0.002464
N 4.735106 -0.979343 1.871875 -0.000386 0.012443 -0.022867
N 4.736470 -0.978744 6.906896 -0.000884 0.012496 0.004329
N 4.736918 -0.978607 -3.349943 -0.000973 0.012921 0.004561
N -3.216335 1.801157 1.870286 0.001996 -0.000702 -0.025628
N -3.216840 1.803593 6.906220 0.002303 -0.001352 0.001207
N -3.217131 1.803882 -3.350366 0.001961 -0.001520 0.001802
N -0.043408 -3.685348 1.870769 0.001612 -0.000024 -0.025323
N -0.043059 -3.687766 6.906484 0.001852 0.000012 0.001629
N -0.043045 -3.690251 -3.350566 0.001999 -0.021014 -0.005748
N -1.598186 -0.960406 1.870203 -0.003418 0.006225 -0.008394
N -1.608077 -0.978137 6.907015 0.000390 0.012705 0.003984
N -1.610545 -0.976740 -3.352876 -0.017417 0.023074 -0.003321
