108
Energy=-1306398.292760 Lattice="9.499209 0.000000 0.000000 -4.749790 8.225138 0.000000 -0.000436 0.000370 15.323251" Stress="-0.000000 0.000000 0.000000 0.000000 -0.000002 -0.000000 0.000000 -0.000000 -0.000000" Properties=species:S:1:pos:R:3:forces:R:3
Al 1.558414 0.886507 2.374636 0.000015 0.000075 0.000008
Al 1.554398 0.877518 7.521722 -0.000126 0.000150 -0.000079
Al 1.544075 0.878542 -2.683215 -0.000065 -0.000069 0.000034
Al -0.029617 3.606118 2.388426 0.000070 0.000026 0.000036
Al -0.027860 3.603174 7.527048 0.000040 0.000033 0.000040
Al -0.018330 3.607246 -2.704035 0.000118 -0.000013 0.000112
Al 3.150727 -1.870326 2.393316 -0.000254 -0.000007 0.000115
Al 3.151353 -1.859477 7.526970 0.000050 -0.000195 -0.000094
Ga 3.139580 -1.874423 -2.706765 -0.000014 0.000014 0.000051
Al -4.768990 0.879506 2.397433 -0.000075 -0.000086 0.000089
Al -4.775443 0.864136 7.490950 0.000129 0.000013 -0.000023
Ga -4.772441 0.874598 -2.671143 0.000046 -0.000027 0.000039
Al -6.357856 3.603846 2.405428 0.000049 0.000119 -0.000135
Ga -6.353899 3.608960 7.514591 -0.000012 0.000022 0.000090
Al -6.376786 3.618079 -2.693617 0.000054 0.000343 0.000136
Al -3.192888 -1.858256 2.412181 0.000387 0.000295 0.000020
Ga -3.212704 -1.863040 7.513655 -0.000013 0.000026 0.000121
Al -3.179681 -1.876286 -2.702824 -0.000047 0.000078 -0.000155
Al -1.606340 0.883516 2.398371 0.000037 -0.000062 0.000087
Ga -1.598981 0.895158 7.488359 0.000136 -0.000041 0.000062
Al -1.587426 0.872455 -2.672538 0.000001 0.000138 0.000083
Al -3.179718 3.604224 2.400567 -0.000045 0.000088 0.000026
Al -3.185373 3.613521 7.494678 0.000050 -0.000059 0.000260
Ga -3.170561 3.615484 -2.675331 0.000006 0.000030 -0.000009
Ga -0.026766 -1.859780 2.401176 -0.000076 -0.000018 -0.000000
Ga -0.008553 -1.869294 7.502337 -0.000068 -0.000071 0.000091
Al -0.025066 -1.846561 -2.675574 -0.000051 -0.000290 -0.000186
Al -0.028923 1.784084 4.934268 -0.000190 0.000216 0.000168
Al -0.012926 1.796785 -5.233204 0.000050 0.000119 0.000062
Al -0.029752 1.781974 -0.153251 0.000006 -0.000031 0.000017
Ga 3.142160 -3.702799 4.959478 0.000055 0.000070 0.000067
Al 3.160366 -3.692213 -5.285863 -0.000056 -0.000117 -0.000040
Al 3.147625 -3.705617 -0.120369 -0.000204 0.000069 -0.000025
Ga 1.564731 -0.944202 4.954019 -0.000029 0.000029 0.000036
Al 1.569965 -0.943998 -5.253151 0.000001 0.000090 -0.000116
Al 1.557182 -0.939390 -0.141176 0.000149 -0.000152 -0.000123
Ga 3.147207 1.779729 4.949519 0.000076 0.000006 0.000059
Ga 3.127959 1.771128 -5.254903 0.000090 0.000005 -0.000036
Al 3.131655 1.785171 -0.133149 0.000015 -0.000059 0.000034
Ga 6.305957 -3.690417 4.933632 -0.000013 0.000002 0.000087
Al 6.284377 -3.698955 -5.230312 0.000074 -0.000097 0.000027
Ga 6.301014 -3.700864 -0.139639 0.000061 -0.000032 -0.000029
Al 4.733739 -0.943634 4.934244 0.000010 -0.000037 0.000193
Al 4.717257 -0.964311 -5.253300 0.000088 0.000084 -0.000003
Ga 4.727513 -0.953555 -0.122778 -0.000111 -0.000022 -0.000045
Al -3.188996 1.784121 4.931910 0.000055 0.000028 0.000093
Ga -3.182455 1.786952 -5.261187 0.000001 0.000038 0.000057
Al -3.170588 1.783501 -0.115483 0.000114 0.000143 -0.000007
Al -0.017210 -3.704669 4.937083 0.000013 0.000049 0.000040
Ga -0.012434 -3.688024 -5.226187 0.000062 -0.000039 0.000113
Ga -0.019012 -3.695793 -0.144194 0.000039 0.000036 -0.000049
Al -1.615969 -0.939324 4.933902 -0.000033 0.000006 -0.000005
Ga -1.603923 -0.949832 -5.220511 -0.000062 -0.000037 0.000093
Al -1.603843 -0.933000 -0.154946 0.000195 -0.000128 0.000022
N 1.517824 0.899681 4.284368 0.000156 -0.000056 -0.000070
N 1.508704 0.853876 -5.884252 0.000069 -0.000189 0.000124
N 1.558109 0.876104 -0.753909 0.000044 -0.000065 -0.000072
N -0.030439 3.566605 4.292815 0.000014 -0.000100 -0.000033
N -0.016528 3.605247 -5.866758 -0.000020 0.000007 0.000006
N -0.068662 3.592668 -0.777608 0.000045 0.000058 -0.000242
N 3.182519 -1.849290 4.302851 0.000059 0.000023 -0.000065
N 3.144768 -1.861454 -5.864576 -0.000045 0.000000 0.000028
N 3.101730 -1.896777 -0.724064 -0.000038 0.000067 0.000055
N -4.732710 0.855032 4.314453 0.000006 -0.000044 -0.000186
N -4.770044 0.822768 -5.912231 -0.000062 -0.000073 0.000053
N -4.769739 0.923611 -0.697167 -0.000068 -0.000064 -0.000057
N -6.316770 3.632962 4.310437 -0.000022 -0.000029 0.000026
N -6.395751 3.644637 -5.835494 -0.000090 0.000019 -0.000024
N -6.362475 3.568208 -0.785267 0.000007 0.000009 -0.000170
N -3.188234 -1.816790 4.322888 -0.000138 0.000027 -0.000018
N -3.227260 -1.890979 -5.825744 -0.000064 0.000004 -0.000026
N -3.152258 -1.845979 -0.792179 0.000035 0.000009 0.000091
N -1.604363 0.879477 4.330752 0.000103 -0.000026 -0.000042
N -1.555791 0.898189 -5.862275 -0.000069 -0.000055 -0.000099
N -1.605750 0.880669 -0.751195 0.000041 -0.000049 -0.000012
N -3.222469 3.592034 4.317756 -0.000013 -0.000151 -0.000089
N -3.154640 3.638791 -5.911343 0.000048 0.000061 -0.000138
N -3.140127 3.589127 -0.705598 0.000019 -0.000046 0.000013
N -0.062107 -1.886044 4.376298 0.000013 -0.000072 -0.000056
N 0.016002 -1.843235 -5.849790 -0.000020 0.000062 -0.000076
N -0.018398 -1.813856 -0.758128 -0.000245 0.000190 0.000312
N -0.027163 1.787013 1.768507 -0.000004 0.000087 0.000033
N 0.024879 1.816115 6.857466 0.000027 -0.000057 -0.000117
N -0.021050 1.786885 -3.301796 0.000031 0.000018 -0.000010
N 3.146000 -3.696681 1.797733 -0.000026 0.000052 0.000037
N 3.149956 -3.692871 6.954439 -0.000095 0.000216 -0.000005
N 3.187633 -3.722268 -3.370214 -0.000060 0.000070 -0.000049
N 1.601665 -0.928005 1.772462 0.000017 -0.000137 0.000058
N 1.609708 -0.924818 6.929918 0.000072 -0.000043 -0.000045
N 1.521049 -0.923675 -3.327824 -0.000009 0.000067 0.000088
N 3.142644 1.790014 1.789564 -0.000024 -0.000002 0.000060
N 3.138562 1.738069 6.930328 0.000011 -0.000046 -0.000069
N 3.099936 1.803859 -3.275807 0.000104 -0.000061 -0.000012
N 6.309325 -3.691408 1.846340 -0.000129 -0.000304 -0.000108
N 6.263616 -3.719822 6.904478 0.000043 0.000023 -0.000083
N 6.302701 -3.697974 -3.303125 0.000035 0.000029 -0.000016
N 4.728904 -0.954544 1.846479 0.000216 0.000243 0.000052
N 4.681452 -0.932925 6.859998 -0.000093 -0.000048 -0.000226
N 4.765580 -0.972247 -3.339375 -0.000031 -0.000023 -0.000081
N -3.182777 1.785864 1.802059 -0.000050 -0.000033 0.000063
N -3.232771 1.811494 6.860652 -0.000076 0.000018 -0.000095
N -3.145790 1.761912 -3.292168 -0.000022 -0.000014 -0.000010
N -0.022609 -3.741458 1.824747 -0.000011 -0.000101 0.000091
N 0.017621 -3.722046 6.851433 0.000026 -0.000011 -0.000091
N -0.057340 -3.669094 -3.245566 -0.000069 0.000026 0.000022
N -1.650104 -0.924302 1.766789 -0.000284 -0.000104 -0.000039
N -1.611652 -0.952732 6.841518 -0.000118 0.000025 -0.000149
N -1.603283 -0.947880 -3.241201 -0.000045 -0.000157 -0.000040
