108
Energy=-802868.097566 Lattice="9.439759 0.000000 0.000000 -4.722228 8.171490 0.000000 0.001866 0.000035 15.175239" Stress="0.000001 -0.000001 0.000001 -0.000001 -0.000002 -0.000000 0.000001 -0.000000 0.000004" Properties=species:S:1:pos:R:3:forces:R:3
Al 1.555834 0.877162 2.373727 -0.000231 0.000101 0.000056
Al 1.556857 0.877411 7.443435 -0.000027 0.000274 0.000110
Al 1.550412 0.871557 -2.684690 0.000147 -0.000068 0.000291
Al -0.008488 3.583898 2.384302 0.000084 0.000045 0.000045
Al -0.013889 3.586186 7.447153 -0.000004 0.000235 -0.000217
Al -0.012016 3.590035 -2.693147 0.000145 0.000055 0.000173
Al 3.129301 -1.844961 2.395332 0.000102 0.000176 0.000362
Al 3.130937 -1.848767 7.443163 0.000278 -0.000194 -0.000145
Al 3.120662 -1.852238 -2.689661 -0.000046 0.000221 0.000082
Al -4.741254 0.875206 2.393939 -0.000171 0.000042 -0.000224
Al -4.744276 0.873248 7.423102 0.000142 0.000173 -0.000162
Al -4.750555 0.875030 -2.677511 0.000477 0.000327 -0.000268
Al -6.321115 3.586172 2.379278 -0.000182 0.000035 -0.000059
Al -6.321573 3.583387 7.440029 0.000007 -0.000004 0.000071
Al -6.329314 3.589607 -2.680742 0.000048 0.000059 0.000081
Al -3.174190 -1.863194 2.378640 -0.000443 0.000021 -0.000152
Al -3.177300 -1.861865 7.445329 -0.000439 -0.000201 0.000172
Al -3.159286 -1.862783 -2.680007 -0.000044 0.000034 -0.000129
Al -1.597516 0.883247 2.367544 0.000031 0.000174 -0.000120
Al -1.598438 0.885576 7.452025 0.000058 -0.000063 0.000193
Al -1.596542 0.864461 -2.682711 0.000476 -0.000296 0.000064
Al -3.175080 3.578623 2.378731 -0.000540 -0.000338 0.000380
Al -3.171487 3.580189 7.455208 0.000267 0.000134 -0.000009
Ga -3.172594 3.588749 -2.686225 0.000232 -0.000088 -0.000362
Ga -0.013742 -1.856132 2.375134 -0.000063 -0.000007 -0.000096
Ga -0.013265 -1.856266 7.454854 0.000148 -0.000072 0.000015
Al -0.028185 -1.845736 -2.682852 0.000184 -0.000235 -0.000092
Al -0.012206 1.773957 4.912864 -0.000278 -0.000355 -0.000114
Al -0.023921 1.774620 -5.207027 -0.000074 0.000261 0.000173
Al -0.019969 1.768874 -0.160386 0.000158 0.000268 0.000048
Ga 3.124904 -3.675911 4.913441 -0.000136 0.000105 -0.000207
Al 3.125330 -3.677923 -5.223252 0.000013 0.000139 -0.000001
Ga 3.128703 -3.675783 -0.130513 -0.000014 -0.000054 0.000272
Al 1.565249 -0.929249 4.917284 0.000227 0.000286 -0.000067
Al 1.546894 -0.941243 -5.194558 -0.000009 0.000117 0.000174
Al 1.542874 -0.935964 -0.163884 -0.000582 0.000445 -0.000175
Al 3.120496 1.778704 4.906075 -0.000104 -0.000016 -0.000129
Al 3.117013 1.784316 -5.212531 0.000075 0.000079 0.000101
Al 3.115918 1.786334 -0.148570 0.000197 0.000171 0.000153
Al 6.280355 -3.679601 4.914107 -0.000283 -0.000452 -0.000106
Al 6.276615 -3.681535 -5.207575 0.000071 0.000123 -0.000034
Al 6.284274 -3.680558 -0.153402 0.000155 0.000091 0.000157
Al 4.696897 -0.941235 4.912739 -0.000063 0.000004 -0.000078
Ga 4.697863 -0.943926 -5.201145 -0.000106 0.000291 0.000038
Ga 4.700986 -0.936509 -0.150027 0.000092 -0.000081 0.000063
Al -3.174867 1.777067 4.913718 -0.000215 0.000085 -0.000175
Al -3.169778 1.777617 -5.217970 0.000059 0.000040 0.000158
Al -3.173069 1.770164 -0.140455 0.000437 0.000073 0.000327
Al -0.026308 -3.691076 4.916335 -0.000071 0.000165 -0.000072
Al -0.030793 -3.675568 -5.202825 0.000098 0.000095 -0.000063
Al -0.038475 -3.671038 -0.155659 -0.000262 0.000011 0.000170
Ga -1.602409 -0.939498 4.913965 -0.000335 0.000405 -0.000014
Al -1.593766 -0.941358 -5.198018 -0.000116 0.000063 0.000114
Al -1.591637 -0.943773 -0.158489 -0.000119 0.000233 -0.000324
N 1.549669 0.871648 4.297969 0.000224 -0.000015 -0.000162
N 1.548339 0.869411 -5.808836 0.000147 -0.000043 -0.000185
N 1.551060 0.873420 -0.762735 0.000181 0.000023 0.000004
N 0.023911 3.564412 4.296674 0.000148 0.000180 0.000060
N -0.017988 3.587893 -5.810350 -0.000065 -0.000194 0.000146
N 0.017283 3.570137 -0.774445 0.000004 -0.000273 -0.000272
N 3.124147 -1.806824 4.302461 0.000093 0.000112 -0.000122
N 3.081144 -1.872205 -5.822827 -0.000060 0.000056 -0.000029
N 3.082033 -1.835287 -0.788342 0.000378 -0.000328 0.000002
N -4.743186 0.871714 4.317023 0.000281 -0.000003 0.000215
N -4.748541 0.917466 -5.839091 0.000039 -0.000131 -0.000020
N -4.746938 0.925510 -0.768317 -0.000246 -0.000349 0.000038
N -6.317935 3.592750 4.301486 0.000072 -0.000102 0.000059
N -6.319561 3.591001 -5.817210 -0.000077 0.000005 -0.000072
N -6.320188 3.590718 -0.761897 -0.000076 -0.000236 -0.000014
N -3.208317 -1.885233 4.291711 -0.000131 0.000501 0.000062
N -3.129849 -1.881204 -5.819077 0.000128 -0.000106 0.000070
N -3.127360 -1.882136 -0.768817 0.000293 -0.000139 0.000121
N -1.595544 0.922404 4.282156 0.000636 0.000047 0.000417
N -1.596854 0.872991 -5.806725 0.000422 -0.000202 -0.000159
N -1.600606 0.872610 -0.758161 0.000207 -0.000056 0.000094
N -3.214986 3.565468 4.290232 0.000474 -0.000023 -0.000242
N -3.177105 3.592084 -5.801334 0.000048 -0.000179 0.000132
N -3.209916 3.569585 -0.718355 0.000133 -0.000072 0.000217
N 0.024306 -1.877496 4.350762 -0.000345 -0.000712 0.000108
N -0.020714 -1.853218 -5.747353 -0.000058 -0.000265 -0.000002
N -0.023833 -1.852700 -0.754594 0.000185 -0.000252 0.000145
N -0.018765 1.775877 1.762464 -0.000158 -0.000095 -0.000172
N -0.020255 1.773409 6.838059 -0.000180 0.000199 -0.000031
N -0.024621 1.773383 -3.285827 -0.000139 0.000124 -0.000009
N 3.129975 -3.670314 1.851066 0.000237 -0.000081 -0.000274
N 3.126660 -3.674590 6.895763 -0.000119 -0.000232 0.000317
N 3.168417 -3.649731 -3.308141 -0.000139 -0.000337 -0.000118
N 1.597294 -0.920197 1.747933 -0.000250 0.000053 0.000314
N 1.596268 -0.917005 6.824256 -0.000248 -0.000098 0.000289
N 1.550781 -0.943514 -3.279217 -0.000310 0.000274 -0.000159
N 3.126555 1.777507 1.777425 -0.000109 -0.000199 -0.000013
N 3.120369 1.778575 6.827508 -0.000105 -0.000196 -0.000040
N 3.120575 1.777943 -3.290560 0.000041 -0.000115 -0.000160
N 6.275015 -3.673702 1.768131 -0.000082 -0.000017 -0.000201
N 6.274343 -3.673312 6.835163 -0.000021 -0.000027 -0.000026
N 6.273089 -3.672825 -3.291504 -0.000022 0.000003 -0.000022
N 4.698384 -0.943104 1.827883 0.000370 0.000083 -0.000164
N 4.701123 -0.948129 6.838088 -0.000095 -0.000074 -0.000037
N 4.700593 -0.945188 -3.224523 0.000086 -0.000042 0.000006
N -3.171975 1.771432 1.774764 -0.000102 -0.000041 -0.000110
N -3.166005 1.777774 6.834654 0.000212 -0.000005 -0.000088
N -3.169956 1.725289 -3.309646 -0.000706 -0.000060 -0.000050
N -0.025249 -3.719348 1.756105 -0.000169 0.000221 -0.000545
N -0.019881 -3.723016 6.829210 -0.000242 0.000094 -0.000084
N -0.067872 -3.649563 -3.293932 -0.000281 0.000178 0.000203
N -1.636053 -0.922120 1.760305 0.000062 -0.000165 0.000180
N -1.637029 -0.919092 6.880799 0.000195 0.000099 -0.000121
N -1.597754 -0.943580 -3.279416 -0.000208 0.000078 0.000052
