108
Energy=-9.401945e+05 Lattice="9.457486e+00 0.000000e+00 0.000000e+00 -4.734169e+00 8.186128e+00 0.000000e+00 -8.907088e-04 1.630877e-03 1.522944e+01" Stress="1.216437e-03 -3.705177e-04 5.733104e-05 -3.785995e-04 3.107194e-04 1.506707e-04 5.581846e-05 1.424232e-04 2.601975e-03" Properties=species:S:1:pos:R:3:forces:R:3 Config_type=AlGaN_super3_11_1_44.xyz
Al 1.551902e+00 8.729082e-01 2.399512e+00 -2.772770e-04 1.751318e-05 -4.278960e-05
Al 1.549546e+00 8.767314e-01 7.451954e+00 1.636790e-04 1.233895e-04 -5.244492e-05
Al 1.542603e+00 8.663429e-01 -2.686395e+00 1.364064e-04 -2.342701e-04 1.469611e-04
Al -1.131514e-02 3.593360e+00 2.381231e+00 -8.509309e-05 8.496463e-05 -5.181010e-04
Al -1.112107e-02 3.588369e+00 7.452427e+00 -2.452166e-04 1.314543e-04 -1.846106e-04
Al -2.627115e-02 3.582223e+00 -2.661653e+00 1.125026e-04 -8.029336e-05 4.625194e-05
Al 3.144064e+00 -1.845062e+00 2.377333e+00 -1.062200e-04 -5.377006e-05 -3.582973e-04
Al 3.145416e+00 -1.835854e+00 7.467741e+00 1.871285e-05 1.106913e-04 -1.250927e-05
Al 3.128013e+00 -1.849963e+00 -2.676360e+00 -9.183728e-05 2.184025e-04 2.206105e-04
Al -4.749815e+00 8.616826e-01 2.402462e+00 1.145334e-04 -2.358360e-04 3.766610e-05
Al -4.755442e+00 8.606130e-01 7.448723e+00 1.765278e-04 -7.283548e-05 -2.815018e-05
Al -4.748160e+00 8.697942e-01 -2.685099e+00 1.161897e-05 -9.742779e-05 -1.359579e-04
Al -6.351219e+00 3.592389e+00 2.414006e+00 -2.528737e-04 1.426399e-04 7.340038e-05
Al -6.339838e+00 3.595513e+00 7.443539e+00 -8.856704e-04 -5.073725e-04 4.457910e-04
Al -6.329395e+00 3.594020e+00 -2.680128e+00 2.949452e-04 7.331549e-05 5.037091e-05
Al -3.181740e+00 -1.859849e+00 2.383418e+00 -1.357946e-04 1.315113e-04 1.510994e-04
Al -3.185622e+00 -1.851385e+00 7.451558e+00 -9.768005e-05 6.303418e-05 -8.687100e-05
Ga -3.175918e+00 -1.851249e+00 -2.670465e+00 9.409191e-05 8.241009e-05 -3.507081e-05
Al -1.599127e+00 8.711458e-01 2.387404e+00 -2.045877e-04 3.080021e-04 -2.913269e-05
Al -1.602307e+00 8.742499e-01 7.464928e+00 3.744717e-04 -1.062289e-04 2.374027e-04
Al -1.595603e+00 8.788030e-01 -2.687191e+00 4.236459e-04 -1.818180e-04 8.249448e-05
Ga -3.166079e+00 3.582973e+00 2.394494e+00 -6.880256e-05 8.150619e-05 -5.884438e-04
Ga -3.187837e+00 3.587720e+00 7.475072e+00 3.321810e-04 -1.767586e-04 2.060701e-05
Al -3.176939e+00 3.590889e+00 -2.686502e+00 -1.200946e-04 -7.196221e-05 -3.403692e-04
Ga -2.263813e-02 -1.839655e+00 2.405574e+00 2.437091e-04 1.777074e-04 1.261540e-04
Ga -2.611124e-02 -1.848512e+00 7.467435e+00 2.688948e-04 1.303251e-04 -1.744512e-05
Al -1.387457e-02 -1.849056e+00 -2.697676e+00 1.317439e-04 6.221881e-05 -3.231070e-04
Al -2.418458e-02 1.770526e+00 4.918951e+00 -4.477111e-05 -3.954112e-06 -3.143952e-05
Al -3.338703e-02 1.764294e+00 -5.224836e+00 -1.241236e-04 -1.882451e-04 1.491900e-04
Al -3.137057e-02 1.774724e+00 -1.455136e-01 -1.269295e-04 6.784442e-05 1.530313e-04
Ga 3.142339e+00 -3.668075e+00 4.933849e+00 -1.142208e-04 -1.123269e-04 -6.856248e-05
Ga 3.134217e+00 -3.673642e+00 -5.211975e+00 -9.480596e-05 9.962362e-05 4.109396e-05
Al 3.147793e+00 -3.676329e+00 -1.587196e-01 -5.161204e-05 1.491908e-04 -3.944489e-04
Al 1.560623e+00 -9.353495e-01 4.929276e+00 2.742560e-04 1.739614e-04 7.828080e-05
Al 1.554852e+00 -9.452017e-01 -5.216655e+00 -2.525449e-04 1.156161e-05 2.274393e-04
Al 1.559279e+00 -9.461414e-01 -1.589975e-01 -1.893134e-04 2.109600e-04 -1.886416e-04
Al 3.125824e+00 1.778659e+00 4.922907e+00 8.403049e-05 -8.958682e-05 -2.121697e-04
Ga 3.132501e+00 1.771037e+00 -5.226461e+00 6.193818e-05 -1.487122e-04 -3.550634e-06
Ga 3.126274e+00 1.768838e+00 -1.416396e-01 -1.933618e-04 4.286731e-05 7.878821e-04
Al 6.289463e+00 -3.673783e+00 4.924723e+00 9.830915e-05 -2.593801e-05 -2.713724e-04
Ga 6.287473e+00 -3.673397e+00 -5.233174e+00 1.148613e-04 2.348283e-05 -3.996244e-05
Al 6.275728e+00 -3.675434e+00 -1.351723e-01 -3.365850e-04 -7.767059e-04 1.295329e-03
Al 4.710429e+00 -9.434324e-01 4.918116e+00 1.160265e-04 3.330542e-04 9.260761e-05
Al 4.709291e+00 -9.382427e-01 -5.234529e+00 -1.728805e-04 3.143360e-05 1.899300e-04
Al 4.708389e+00 -9.510733e-01 -1.334089e-01 -3.067852e-04 7.698507e-05 6.685657e-04
Al -3.178538e+00 1.759078e+00 4.931999e+00 6.550842e-05 -9.211152e-05 -4.347656e-04
Al -3.173829e+00 1.762265e+00 -5.217225e+00 9.660221e-05 5.059745e-06 1.293484e-04
Al -3.162311e+00 1.763947e+00 -1.588003e-01 1.775571e-04 6.535563e-05 2.541263e-04
Al -3.747910e-02 -3.678796e+00 4.923221e+00 -2.214704e-04 -1.882006e-04 5.533562e-04
Al -2.470358e-02 -3.672396e+00 -5.198694e+00 4.513677e-05 4.457642e-05 1.388680e-04
Ga -1.740316e-02 -3.669868e+00 -1.607817e-01 -3.411996e-04 2.064465e-04 6.915110e-04
Al -1.609957e+00 -9.392556e-01 4.926336e+00 -1.736337e-04 1.254794e-04 1.403497e-04
Al -1.597430e+00 -9.341775e-01 -5.227495e+00 -6.847881e-05 4.385167e-05 -6.115943e-04
Al -1.597931e+00 -9.338378e-01 -1.438917e-01 1.463984e-04 2.058748e-04 -3.176191e-04
N 1.548475e+00 8.712789e-01 4.320040e+00 1.922874e-05 -2.431741e-04 -4.083966e-05
N 1.509350e+00 8.462350e-01 -5.854677e+00 -2.507225e-04 -2.593018e-05 -1.185165e-04
N 1.509121e+00 8.483795e-01 -7.728498e-01 -2.616503e-04 -3.827855e-05 -1.981262e-04
N 1.645139e-02 3.574032e+00 4.298478e+00 2.286633e-04 -1.372405e-04 1.400359e-04
N -2.436069e-02 3.545755e+00 -5.870373e+00 -6.394954e-05 -1.428403e-04 -1.143428e-04
N -1.865565e-02 3.591403e+00 -7.424564e-01 -7.026595e-05 7.932964e-06 2.347725e-04
N 3.131438e+00 -1.807888e+00 4.291087e+00 -5.369473e-04 1.309896e-04 -3.086121e-04
N 3.131694e+00 -1.807644e+00 -5.846884e+00 -5.908253e-05 3.114723e-04 -2.738070e-05
N 3.136599e+00 -1.853942e+00 -7.538625e-01 -3.962114e-05 3.413355e-04 2.105008e-04
N -4.752854e+00 8.705731e-01 4.322587e+00 2.773258e-04 -1.883429e-04 1.151032e-04
N -4.712117e+00 8.490216e-01 -5.862089e+00 5.030195e-04 -1.773524e-04 -2.344587e-04
N -4.709565e+00 8.417396e-01 -7.725929e-01 3.903895e-05 -3.089950e-05 2.470502e-04
N -6.338766e+00 3.598611e+00 4.327491e+00 3.334740e-05 4.106221e-05 3.242607e-04
N -6.286069e+00 3.621696e+00 -5.873829e+00 -2.891088e-05 1.348612e-06 -3.595994e-04
N -6.373683e+00 3.620276e+00 -7.812392e-01 -3.979680e-06 6.392940e-05 -2.341564e-04
N -3.175659e+00 -1.858455e+00 4.311810e+00 4.578153e-05 2.312953e-05 2.168058e-04
N -3.174111e+00 -1.809197e+00 -5.855391e+00 -6.623224e-07 3.263330e-04 -1.173748e-04
N -3.173479e+00 -1.856502e+00 -6.909616e-01 1.302622e-04 1.537208e-04 1.045349e-04
N -1.601269e+00 8.729262e-01 4.308461e+00 2.215721e-04 -1.180199e-04 -2.673322e-05
N -1.602081e+00 8.742994e-01 -5.838356e+00 3.357326e-04 -1.623159e-04 -3.080594e-04
N -1.595684e+00 8.713555e-01 -7.653407e-01 2.445864e-04 -2.589127e-04 -1.391633e-04
N -3.214618e+00 3.570926e+00 4.364215e+00 1.140034e-04 4.098919e-04 3.365213e-04
N -3.223873e+00 3.573532e+00 -5.778813e+00 3.241730e-04 -2.259335e-04 1.604173e-04
N -3.134218e+00 3.571531e+00 -7.685644e-01 9.926033e-05 -3.705587e-04 1.526357e-04
N -2.154442e-02 -1.848532e+00 4.384135e+00 7.533538e-05 -1.533749e-04 -5.977724e-05
N -2.055595e-02 -1.858648e+00 -5.775444e+00 9.510756e-05 4.169622e-05 2.332736e-04
N -2.162124e-02 -1.804699e+00 -7.791710e-01 -2.072870e-04 1.174714e-04 2.216615e-04
N -2.293484e-02 1.774243e+00 1.780992e+00 -6.757652e-05 8.359557e-05 -1.939783e-04
N -2.863390e-02 1.775422e+00 6.842318e+00 -1.210760e-04 3.345798e-05 -1.769697e-04
N -2.451025e-02 1.779938e+00 -3.298662e+00 -1.969473e-04 2.846419e-04 -1.272929e-04
N 3.178035e+00 -3.653374e+00 1.764561e+00 -1.320012e-04 -1.152773e-05 -6.944580e-05
N 3.172639e+00 -3.648437e+00 6.906265e+00 1.272659e-04 -2.098766e-04 1.752061e-04
N 3.140293e+00 -3.675779e+00 -3.229361e+00 1.249575e-04 4.328485e-05 5.119252e-04
N 1.595314e+00 -9.224939e-01 1.757334e+00 2.248535e-04 -4.302093e-05 3.528802e-04
N 1.599020e+00 -9.240740e-01 6.839668e+00 -2.183593e-04 3.254508e-05 3.209282e-04
N 1.562754e+00 -9.482149e-01 -3.295343e+00 -2.735053e-04 2.103900e-04 -6.771127e-05
N 3.130654e+00 1.778016e+00 1.846627e+00 3.296132e-05 -5.730254e-05 -9.763049e-04
N 3.126117e+00 1.778236e+00 6.852213e+00 1.631961e-05 -1.795003e-04 -7.716012e-06
N 3.127981e+00 1.775860e+00 -3.241760e+00 1.193508e-05 -3.833257e-05 9.566431e-05
N 6.287532e+00 -3.680491e+00 1.788524e+00 2.639528e-04 2.146381e-04 -6.606090e-04
N 6.282326e+00 -3.672416e+00 6.850109e+00 -4.079186e-05 -1.187335e-04 3.996525e-05
N 6.280505e+00 -3.723442e+00 -3.262443e+00 -2.719304e-04 -1.522666e-04 1.789417e-04
N 4.708712e+00 -9.437682e-01 1.785766e+00 1.096697e-05 -3.736387e-06 -3.797540e-04
N 4.706755e+00 -9.489047e-01 6.839457e+00 -2.653722e-04 3.561370e-05 -8.993164e-05
N 4.667582e+00 -9.259930e-01 -3.316615e+00 -3.145354e-04 -1.692333e-04 -5.108919e-04
N -3.177047e+00 1.727006e+00 1.756718e+00 1.785279e-04 -2.504337e-04 2.717362e-04
N -3.176003e+00 1.729572e+00 6.839961e+00 -6.191454e-05 -2.500443e-04 4.474715e-05
N -3.175856e+00 1.773204e+00 -3.294830e+00 7.031970e-05 -2.859241e-05 1.882667e-04
N -6.332877e-02 -3.699627e+00 1.808473e+00 2.283764e-04 2.909545e-05 -6.805725e-04
N -6.433509e-02 -3.696998e+00 6.823674e+00 8.067513e-04 2.531915e-04 -7.765886e-04
N -2.315713e-02 -3.678560e+00 -3.276517e+00 1.279106e-04 7.233296e-05 2.995276e-04
N -1.636226e+00 -9.232938e-01 1.771237e+00 -1.485352e-04 -5.455575e-05 -5.033424e-04
N -1.642354e+00 -9.199009e-01 6.841686e+00 -2.864249e-04 1.717273e-04 -1.605626e-04
N -1.562696e+00 -9.206913e-01 -3.313692e+00 1.160873e-04 -6.837953e-06 5.891582e-04
