108
Energy=-5.739866e+05 Lattice="9.476278e+00 0.000000e+00 0.000000e+00 -4.738139e+00 8.206697e+00 0.000000e+00 9.377101e-16 1.624162e-15 1.531397e+01" Stress="1.715468e-02 4.725948e-03 -2.100023e-06 4.712516e-03 2.314636e-02 -2.638082e-04 1.565519e-06 -2.612297e-04 3.130984e-02" Properties=species:S:1:pos:R:3:forces:R:3 Config_type=AlGaN_super3_3_0_0.xyz
Al 1.564294e+00 9.031460e-01 2.504900e+00 -1.133448e-03 -1.422272e-02 -1.192085e-02
Al 1.564294e+00 9.031460e-01 7.521855e+00 -1.225384e-03 -1.420324e-02 -6.320763e-03
Al 1.564294e+00 9.031460e-01 -2.775158e+00 -1.228271e-03 -1.416639e-02 -6.271635e-03
Al 2.938992e-08 3.612582e+00 2.504900e+00 -2.743606e-03 -1.180653e-03 -1.085646e-02
Al 2.938992e-08 3.612582e+00 7.521855e+00 -2.830199e-03 -1.239886e-03 -4.521688e-03
Al 2.938992e-08 3.612582e+00 -2.775158e+00 -2.857494e-03 -1.311538e-03 -4.648647e-03
Al 3.173845e+00 -1.884678e+00 2.504900e+00 -3.346484e-03 1.527719e-03 -1.211132e-02
Al 3.173845e+00 -1.884678e+00 7.521855e+00 -3.057566e-03 1.705820e-03 -5.576773e-03
Al 3.173845e+00 -1.884678e+00 -2.775158e+00 -2.857973e-03 1.873507e-03 -6.149891e-03
Al -4.783396e+00 9.031460e-01 2.504900e+00 1.352050e-03 -1.284949e-02 -1.065128e-02
Al -4.783396e+00 9.031460e-01 7.521855e+00 1.364537e-03 -1.294777e-02 -5.118892e-03
Al -4.783396e+00 9.031460e-01 -2.775158e+00 1.425658e-03 -1.319952e-02 -5.495187e-03
Al -6.347690e+00 3.612582e+00 2.504900e+00 -2.372559e-04 6.728309e-05 -9.462832e-03
Al -6.347690e+00 3.612582e+00 7.521855e+00 -8.948075e-05 1.450748e-04 -3.642973e-03
Al -6.347690e+00 3.612582e+00 -2.775158e+00 -1.368915e-04 6.439980e-05 -3.027036e-03
Al -3.173845e+00 -1.884678e+00 2.504900e+00 8.532338e-05 2.832187e-03 -1.109797e-02
Al -3.173845e+00 -1.884678e+00 7.521855e+00 -4.550246e-04 3.013081e-03 -3.942404e-03
Al -3.173845e+00 -1.884678e+00 -2.775158e+00 -5.153676e-04 3.244617e-03 -5.081607e-03
Al -1.654808e+00 9.031460e-01 2.504900e+00 1.367391e-02 -8.086453e-03 -1.215044e-02
Al -1.654808e+00 9.031460e-01 7.521855e+00 1.354048e-02 -7.868159e-03 -6.669424e-03
Al -1.654808e+00 9.031460e-01 -2.775158e+00 1.355778e-02 -7.769346e-03 -6.887254e-03
Al -3.219102e+00 3.612582e+00 2.504900e+00 1.202764e-02 5.305440e-03 -1.061094e-02
Al -3.219102e+00 3.612582e+00 7.521855e+00 1.186105e-02 5.373326e-03 -5.446518e-03
Al -3.219102e+00 3.612582e+00 -2.775158e+00 1.191456e-02 5.236450e-03 -4.623652e-03
Al -4.525702e-02 -1.884678e+00 2.504900e+00 1.165112e-02 8.217414e-03 -1.220187e-02
Al -4.525702e-02 -1.884678e+00 7.521855e+00 1.184226e-02 8.018020e-03 -6.059056e-03
Al -4.525702e-02 -1.884678e+00 -2.775158e+00 1.169026e-02 8.147304e-03 -5.755366e-03
Al 1.469567e-08 1.806291e+00 5.013378e+00 -1.157845e-02 -8.218252e-03 -6.451379e-03
Al 1.469567e-08 1.806291e+00 -5.283635e+00 -1.172657e-02 -8.161566e-03 -6.059273e-03
Al 1.469567e-08 1.806291e+00 -2.666800e-01 -1.181901e-02 -8.367572e-03 3.271853e-02
Al 3.173845e+00 -3.690969e+00 5.013378e+00 -1.195718e-02 -5.422789e-03 -5.211687e-03
Al 3.173845e+00 -3.690969e+00 -5.283635e+00 -1.167465e-02 -5.202512e-03 -5.091962e-03
Al 3.173845e+00 -3.690969e+00 -2.666800e-01 -1.192741e-02 -5.524279e-03 3.405272e-02
Al 1.609551e+00 -9.815320e-01 5.013378e+00 -1.347534e-02 8.068345e-03 -7.189750e-03
Al 1.609551e+00 -9.815320e-01 -5.283635e+00 -1.338042e-02 8.013291e-03 -7.002321e-03
Al 1.609551e+00 -9.815320e-01 -2.666800e-01 -1.377695e-02 8.107333e-03 3.200020e-02
Al 3.128588e+00 1.806291e+00 5.013378e+00 3.374495e-04 -3.046101e-03 -4.821466e-03
Al 3.128588e+00 1.806291e+00 -5.283635e+00 3.400948e-04 -3.342381e-03 -4.395248e-03
Al 3.128588e+00 1.806291e+00 -2.666800e-01 1.125833e-04 -3.354659e-03 3.497537e-02
Al 6.302433e+00 -3.690969e+00 5.013378e+00 1.992215e-04 -4.798701e-04 -3.571976e-03
Al 6.302433e+00 -3.690969e+00 -5.283635e+00 -7.895899e-05 3.934032e-05 -3.296717e-03
Al 6.302433e+00 -3.690969e+00 -2.666800e-01 3.246521e-05 -3.271908e-04 3.605777e-02
Al 4.738139e+00 -9.815320e-01 5.013378e+00 -1.534462e-03 1.323146e-02 -4.958016e-03
Al 4.738139e+00 -9.815320e-01 -5.283635e+00 -1.350169e-03 1.300216e-02 -4.893717e-03
Ga 4.738139e+00 -9.815320e-01 -2.666800e-01 -7.216597e-04 1.696837e-02 4.430114e-02
Al -3.219102e+00 1.806291e+00 5.013378e+00 2.743402e-03 -1.716582e-03 -5.743624e-03
Al -3.219102e+00 1.806291e+00 -5.283635e+00 3.028118e-03 -2.083767e-03 -5.445453e-03
Al -3.219102e+00 1.806291e+00 -2.666800e-01 3.377676e-03 -2.055506e-03 3.386398e-02
Al -4.525703e-02 -3.690969e+00 5.013378e+00 2.779476e-03 8.387547e-04 -4.505607e-03
Ga -4.525703e-02 -3.690969e+00 -5.283635e+00 2.719001e-03 1.133900e-03 -3.450344e-03
Al -4.525703e-02 -3.690969e+00 -2.666800e-01 2.979717e-03 1.352515e-03 3.495857e-02
Ga -1.609551e+00 -9.815320e-01 5.013378e+00 1.914836e-03 1.824742e-02 -7.201631e-03
Al -1.609551e+00 -9.815320e-01 -5.283635e+00 9.293471e-04 1.438107e-02 -5.924629e-03
Al -1.609551e+00 -9.815320e-01 -2.666800e-01 1.342265e-03 1.464591e-02 3.328139e-02
N 1.564294e+00 9.031460e-01 4.418497e+00 -8.312892e-04 -1.368098e-02 6.298874e-03
N 1.564294e+00 9.031460e-01 -5.878516e+00 -7.217795e-04 -1.349614e-02 5.888844e-03
N 1.564294e+00 9.031460e-01 -8.615610e-01 -3.767403e-04 -1.355951e-02 7.142429e-03
N 2.938992e-08 3.612582e+00 4.418497e+00 -2.147789e-03 1.168097e-04 3.746531e-03
N 2.938992e-08 3.612582e+00 -5.878516e+00 -1.975287e-03 -1.423058e-04 3.481233e-03
N 2.938992e-08 3.612582e+00 -8.615610e-01 -1.887319e-03 2.782083e-04 4.996015e-03
N 3.173845e+00 -1.884678e+00 4.418497e+00 -2.401157e-03 1.384697e-03 3.318371e-03
N 3.173845e+00 -1.884678e+00 -5.878516e+00 -2.743242e-03 1.345652e-03 3.089468e-03
N 3.173845e+00 -1.884678e+00 -8.615610e-01 -2.110156e-02 -9.270227e-03 -2.710625e-03
N -4.783396e+00 9.031460e-01 4.418497e+00 1.022830e-03 -1.362225e-02 6.821773e-03
N -4.783396e+00 9.031460e-01 -5.878516e+00 8.203251e-04 -1.314764e-02 6.256622e-03
N -4.783396e+00 9.031460e-01 -8.615610e-01 4.329933e-04 4.259312e-03 1.817843e-03
N -6.347690e+00 3.612582e+00 4.418497e+00 -5.262115e-04 5.164323e-04 4.395899e-03
N -6.347690e+00 3.612582e+00 -5.878516e+00 -1.978626e-02 -1.093807e-02 -4.238519e-03
N -6.347690e+00 3.612582e+00 -8.615610e-01 -4.178803e-04 3.700981e-04 5.423990e-03
N -3.173845e+00 -1.884678e+00 4.418497e+00 -2.039341e-02 -9.074559e-03 -4.155785e-03
N -3.173845e+00 -1.884678e+00 -5.878516e+00 -7.647251e-04 1.595415e-03 3.493436e-03
N -3.173845e+00 -1.884678e+00 -8.615610e-01 1.756684e-02 -9.040668e-03 -2.212672e-03
N -1.654808e+00 9.031460e-01 4.418497e+00 1.320763e-02 1.001939e-02 3.083575e-03
N -1.654808e+00 9.031460e-01 -5.878516e+00 1.366036e-02 -7.687235e-03 8.863239e-03
N -1.654808e+00 9.031460e-01 -8.615610e-01 1.338535e-02 -7.847380e-03 9.567035e-03
N -3.219102e+00 3.612582e+00 4.418497e+00 1.221030e-02 6.034488e-03 6.685330e-03
N -3.219102e+00 3.612582e+00 -5.878516e+00 3.119173e-02 -5.128207e-03 -1.723389e-03
N -3.219102e+00 3.612582e+00 -8.615610e-01 1.182860e-02 5.972926e-03 7.399189e-03
N -4.525702e-02 -1.884678e+00 4.418497e+00 3.040679e-02 -3.458924e-03 -1.584609e-03
N -4.525702e-02 -1.884678e+00 -5.878516e+00 1.163120e-02 2.955574e-02 -2.056937e-03
N -4.525702e-02 -1.884678e+00 -8.615610e-01 1.138152e-02 7.024509e-03 7.032500e-03
N 1.469567e-08 1.806291e+00 1.910020e+00 -1.166349e-02 -7.605119e-03 -2.872876e-02
N 1.469567e-08 1.806291e+00 6.926975e+00 -1.150846e-02 -7.416142e-03 5.993703e-03
N 1.469567e-08 1.806291e+00 -3.370038e+00 -1.146389e-02 -7.319914e-03 5.867381e-03
N 3.173845e+00 -3.690969e+00 1.910020e+00 -1.235473e-02 -6.010350e-03 -2.801483e-02
N 3.173845e+00 -3.690969e+00 6.926975e+00 -1.196063e-02 -5.871784e-03 6.158367e-03
N 3.173845e+00 -3.690969e+00 -3.370038e+00 -1.218258e-02 -5.991051e-03 6.244593e-03
N 1.609551e+00 -9.815320e-01 1.910020e+00 -1.384746e-02 8.061111e-03 -2.549909e-02
N 1.609551e+00 -9.815320e-01 6.926975e+00 -1.354921e-02 7.835222e-03 8.691616e-03
N 1.609551e+00 -9.815320e-01 -3.370038e+00 -1.367734e-02 7.662669e-03 8.747904e-03
N 3.128588e+00 1.806291e+00 1.910020e+00 1.089435e-03 -1.909700e-03 -3.120824e-02
N 3.128588e+00 1.806291e+00 6.926975e+00 1.017213e-03 -1.819049e-03 3.421006e-03
N 3.128588e+00 1.806291e+00 -3.370038e+00 1.010940e-03 -1.531019e-03 3.359878e-03
N 6.302433e+00 -3.690969e+00 1.910020e+00 5.053455e-04 -3.215606e-04 -3.071924e-02
N 6.302433e+00 -3.690969e+00 6.926975e+00 4.616359e-04 -9.305961e-05 3.709067e-03
N 6.302433e+00 -3.690969e+00 -3.370038e+00 6.216512e-04 -3.076202e-04 3.825686e-03
N 4.738139e+00 -9.815320e-01 1.910020e+00 -1.019459e-03 1.391096e-02 -1.666198e-02
N 4.738139e+00 -9.815320e-01 6.926975e+00 -7.466957e-04 1.338725e-02 6.256944e-03
N 4.738139e+00 -9.815320e-01 -3.370038e+00 -8.471860e-04 1.330489e-02 5.495177e-03
N -3.219102e+00 1.806291e+00 1.910020e+00 2.692433e-03 -1.468330e-03 -3.194827e-02
N -3.219102e+00 1.806291e+00 6.926975e+00 2.568182e-03 -1.597462e-03 3.000103e-03
N -3.219102e+00 1.806291e+00 -3.370038e+00 2.524927e-03 -1.226813e-03 2.826886e-03
N -4.525703e-02 -3.690969e+00 1.910020e+00 2.256848e-03 1.727845e-05 -3.138875e-02
N -4.525703e-02 -3.690969e+00 6.926975e+00 1.974300e-03 1.321844e-04 2.842765e-03
N -4.525703e-02 -3.690969e+00 -3.370038e+00 2.120480e-03 7.612155e-05 2.731046e-02
N -1.609551e+00 -9.815320e-01 1.910020e+00 7.811003e-04 1.394910e-02 -2.955596e-02
N -1.609551e+00 -9.815320e-01 6.926975e+00 6.237778e-04 1.386463e-02 2.943504e-02
N -1.609551e+00 -9.815320e-01 -3.370038e+00 7.944119e-04 1.345466e-02 5.726771e-03
