108
Energy=-1.535272e+06 Lattice="9.480181e+00 0.000000e+00 0.000000e+00 -4.743061e+00 8.208346e+00 0.000000e+00 -2.524935e-04 6.925336e-04 1.530879e+01" Stress="-3.030489e-02 4.688272e-03 4.588061e-04 4.691801e-03 -2.463559e-02 2.760065e-04 4.475003e-04 2.823267e-04 -2.011032e-02" Properties=species:S:1:pos:R:3:forces:R:3 Config_type=AlGaN_super3_24_0_1.xyz
Al 1.557086e+00 8.961738e-01 2.466202e+00 1.757728e-04 -1.160815e-02 -6.837729e-03
Al 1.561506e+00 8.967681e-01 7.516137e+00 -6.335756e-04 -1.234324e-02 -2.814453e-03
Al 1.563084e+00 8.969617e-01 -2.757338e+00 -8.690317e-04 -1.308972e-02 -2.001185e-03
Al -8.570813e-03 3.607772e+00 2.450993e+00 -5.595794e-03 2.569053e-03 -2.071766e-05
Al -4.188130e-03 3.610105e+00 7.519402e+00 -2.800242e-03 -5.760480e-04 -1.663273e-03
Ga -3.487576e-03 3.609671e+00 -2.757135e+00 -3.125126e-03 -1.359017e-03 -7.432898e-04
Al 3.167235e+00 -1.885412e+00 2.477536e+00 -5.801378e-03 3.689830e-03 -8.799130e-03
Ga 3.172176e+00 -1.880892e+00 7.514057e+00 -2.193063e-03 3.641358e-04 -2.451491e-03
Al 3.170028e+00 -1.881861e+00 -2.760607e+00 -2.934064e-03 1.239545e-03 -1.833252e-03
Ga -4.783279e+00 8.985577e-01 2.472340e+00 1.796471e-03 -1.302075e-02 -7.596426e-03
Al -4.783448e+00 8.974334e-01 7.515484e+00 1.539574e-03 -1.135092e-02 -2.427975e-03
Ga -4.785595e+00 9.001974e-01 -2.756231e+00 1.598233e-03 -1.372078e-02 -2.350962e-03
Al -6.346990e+00 3.613044e+00 2.478605e+00 2.242135e-03 1.721716e-03 -6.499759e-03
Ga -6.350914e+00 3.612535e+00 7.519599e+00 -4.315492e-04 -3.945790e-04 -6.051394e-04
Al -6.350220e+00 3.611081e+00 -2.760315e+00 5.436630e-04 1.147636e-04 -3.275576e-04
Ga -3.174295e+00 -1.881732e+00 2.482613e+00 1.919505e-03 2.862184e-03 -8.055592e-03
Al -3.177651e+00 -1.880404e+00 7.517539e+00 -4.366749e-04 2.298956e-03 -1.363528e-03
Ga -3.175118e+00 -1.882970e+00 -2.760336e+00 -1.160297e-03 2.422763e-03 -7.272255e-04
Al -1.648251e+00 9.013851e-01 2.472242e+00 1.085167e-02 -9.300845e-03 -8.499020e-03
Ga -1.651718e+00 9.035326e-01 7.519722e+00 1.380476e-02 -7.905535e-03 -5.999622e-03
Ga -1.648807e+00 9.020287e-01 -2.756099e+00 1.346367e-02 -6.656320e-03 -4.706138e-03
Al -3.200332e+00 3.623994e+00 2.479679e+00 -1.046372e-04 -2.591059e-03 -8.837458e-03
Al -3.218135e+00 3.612127e+00 7.517610e+00 1.163876e-02 4.717444e-03 -2.919285e-03
Al -3.217473e+00 3.614576e+00 -2.757840e+00 1.091740e-02 4.176350e-03 -1.164320e-03
Al -1.750422e-02 -1.872347e+00 2.462082e+00 1.621224e-04 2.729150e-03 -3.446888e-03
Ga -3.911358e-02 -1.879291e+00 7.518348e+00 1.253603e-02 9.115881e-03 -3.941924e-03
Ga -3.793606e-02 -1.880939e+00 -2.758857e+00 1.412099e-02 8.130060e-03 -3.021656e-03
Ga -8.345160e-03 1.803571e+00 4.996927e+00 -1.242356e-02 -8.573448e-03 -4.574459e-03
Al -2.843906e-03 1.799896e+00 -5.277613e+00 -1.045270e-02 -6.459907e-03 -3.160586e-03
Ga -1.811167e-03 1.799829e+00 -2.136476e-01 -1.334830e-02 -9.512086e-03 2.976172e-02
Al 3.175028e+00 -3.689524e+00 5.000042e+00 -1.219797e-02 -4.571363e-03 -1.204387e-03
Ga 3.170428e+00 -3.693601e+00 -5.275722e+00 -1.223383e-02 -6.431942e-03 -3.504684e-03
Ga 3.173555e+00 -3.689471e+00 -2.187267e-01 -1.580065e-02 -6.677908e-03 2.989370e-02
Al 1.605925e+00 -9.771608e-01 4.996280e+00 -1.294209e-02 6.302700e-03 -4.532930e-03
Al 1.606176e+00 -9.776125e-01 -5.275473e+00 -1.248962e-02 7.010996e-03 -3.540075e-03
Ga 1.607062e+00 -9.796258e-01 -2.168269e-01 -1.451258e-02 7.683417e-03 2.697331e-02
Ga 3.130412e+00 1.798349e+00 4.997788e+00 4.058891e-04 -2.073593e-03 -1.324577e-03
Ga 3.128788e+00 1.801456e+00 -5.276042e+00 5.976962e-04 -3.018825e-03 -1.387287e-03
Ga 3.129424e+00 1.803550e+00 -2.185223e-01 4.444750e-04 -1.724901e-03 3.389368e-02
Ga 6.301284e+00 -3.689359e+00 5.001408e+00 6.740142e-04 -8.589919e-04 -1.947699e-03
Al 6.306096e+00 -3.692230e+00 -5.277931e+00 -5.241920e-04 3.710252e-04 -1.285945e-03
Al 6.308763e+00 -3.690263e+00 -2.399231e-01 1.239120e-03 -8.718307e-06 3.122867e-02
Al 4.738923e+00 -9.761075e-01 4.999321e+00 -1.761879e-03 1.168541e-02 -3.161359e-03
Al 4.737046e+00 -9.785563e-01 -5.278991e+00 -6.144504e-04 1.186010e-02 -2.658141e-03
Al 4.739558e+00 -9.797540e-01 -2.408588e-01 -1.495495e-03 1.190812e-02 2.962313e-02
Al -3.208850e+00 1.806127e+00 4.999513e+00 -7.384135e-04 -5.230918e-04 -2.870950e-03
Al -3.215017e+00 1.809689e+00 -5.285656e+00 9.473429e-04 -3.758577e-03 8.186279e-04
Ga -3.217207e+00 1.802339e+00 -2.174402e-01 3.224405e-03 4.117863e-05 3.247211e-02
Ga -3.427209e-02 -3.690253e+00 4.997155e+00 1.977832e-03 1.597959e-03 -3.888486e-03
Al -3.969556e-02 -3.691208e+00 -5.275779e+00 2.173555e-03 1.148869e-03 -9.776524e-04
Al -4.090366e-02 -3.689277e+00 -2.427333e-01 3.331085e-03 4.950678e-04 3.119395e-02
Ga -1.609812e+00 -9.711575e-01 5.000714e+00 2.674557e-03 1.484976e-02 -6.008605e-03
Ga -1.607656e+00 -9.755769e-01 -5.276277e+00 7.577142e-04 1.503299e-02 -5.060406e-03
Al -1.606530e+00 -9.782989e-01 -2.390255e-01 1.088897e-03 1.306693e-02 3.015914e-02
N 1.559926e+00 8.916400e-01 4.392117e+00 -6.269374e-04 -3.019894e-02 -1.215371e-02
N 1.557242e+00 8.931445e-01 -5.875653e+00 -1.640429e-02 -2.140721e-02 -3.719991e-03
N 1.562579e+00 8.967061e-01 -8.305757e-01 -5.382683e-04 -1.475996e-02 -1.491053e-02
N -1.626250e-02 3.618817e+00 4.403621e+00 -1.646588e-02 7.941083e-03 -2.017643e-02
N 4.061189e-04 3.607480e+00 -5.873562e+00 1.443639e-02 -9.325577e-03 -5.474322e-03
N 7.112091e-04 3.612773e+00 -8.266918e-01 1.406451e-02 9.506533e-03 1.083832e-02
N 3.171733e+00 -1.882565e+00 4.401518e+00 -2.439730e-03 1.602655e-03 -1.021626e-03
N 3.170642e+00 -1.877073e+00 -5.870641e+00 -2.511216e-03 1.944064e-02 1.417211e-02
N 3.175625e+00 -1.879839e+00 -8.360442e-01 1.390109e-02 1.055227e-02 -1.100206e-02
N -4.776225e+00 8.954394e-01 4.403123e+00 1.819605e-02 -2.029503e-02 1.607150e-02
N -4.779309e+00 8.929565e-01 -5.876159e+00 1.740358e-02 -1.995047e-02 -3.666558e-03
N -4.784132e+00 8.931166e-01 -8.268071e-01 6.697703e-04 -3.101621e-02 1.139886e-02
N -6.349987e+00 3.611722e+00 4.397292e+00 -1.089161e-03 6.184078e-05 -1.843318e-02
N -6.350339e+00 3.617892e+00 -5.868204e+00 1.459616e-05 1.925807e-02 1.549121e-02
N -6.350126e+00 3.616546e+00 -8.377913e-01 -6.126761e-04 1.873205e-02 -3.418439e-03
N -3.180278e+00 -1.877438e+00 4.406240e+00 -1.711911e-02 1.122711e-02 7.877469e-03
N -3.180622e+00 -1.884413e+00 -5.875161e+00 -1.679678e-02 -8.009416e-03 -5.990331e-03
N -3.174306e+00 -1.882238e+00 -8.331319e-01 -7.753869e-04 1.412792e-03 2.375112e-02
N -1.660619e+00 9.087641e-01 4.394573e+00 2.607744e-04 5.465128e-05 -6.689662e-03
N -1.649531e+00 9.072101e-01 -5.868295e+00 1.210034e-02 8.722730e-03 1.992959e-02
N -1.649047e+00 8.952916e-01 -8.266528e-01 1.482758e-02 -2.427115e-02 1.380042e-02
N -3.204268e+00 3.612824e+00 4.399721e+00 2.671403e-02 -5.345094e-03 -3.983710e-03
N -3.223700e+00 3.610078e+00 -5.875199e+00 -3.015118e-03 -1.279684e-03 -2.683975e-03
N -3.220199e+00 3.615963e+00 -8.346842e-01 -2.904228e-03 1.566304e-02 -7.561564e-03
N -3.489711e-02 -1.874430e+00 4.402275e+00 2.699984e-02 1.627191e-02 -1.390527e-02
N -3.448852e-02 -1.882629e+00 -5.867244e+00 2.651285e-02 -3.238329e-03 1.640927e-02
N -4.270627e-02 -1.882177e+00 -8.316462e-01 -3.911856e-03 -9.762410e-04 1.931207e-02
N -6.139553e-03 1.798420e+00 1.865564e+00 -1.018011e-02 -4.169846e-03 -8.796383e-03
N 8.707994e-05 1.804037e+00 6.923340e+00 4.112581e-03 8.992045e-04 1.669581e-02
N 1.606747e-03 1.797689e+00 -3.359269e+00 3.918386e-03 -1.737610e-02 -9.625167e-03
N 3.120277e+00 -3.690919e+00 1.860389e+00 8.801795e-03 -4.268831e-03 -6.741462e-03
N 3.171260e+00 -3.700748e+00 6.923948e+00 -1.079332e-02 -2.271473e-02 -4.957924e-03
N 3.166492e+00 -3.690887e+00 -3.351652e+00 -2.635343e-02 4.408430e-03 1.697060e-02
N 1.579419e+00 -9.767905e-01 1.852523e+00 -6.396371e-05 8.124256e-03 -2.636999e-03
N 1.605032e+00 -9.715531e-01 6.914337e+00 -1.411964e-02 2.421324e-02 -7.247906e-03
N 1.610824e+00 -9.750528e-01 -3.357692e+00 1.577116e-03 1.481996e-02 3.180637e-05
N 3.124616e+00 1.806004e+00 1.869048e+00 -1.619459e-02 6.846128e-03 -1.822879e-02
N 3.128737e+00 1.796380e+00 6.924530e+00 6.573177e-04 -2.009304e-02 1.360110e-02
N 3.124367e+00 1.804784e+00 -3.351316e+00 -1.588457e-02 8.170083e-03 1.428239e-02
N 6.310387e+00 -3.697248e+00 1.887999e+00 -3.241765e-03 -1.967757e-02 -3.687400e-02
N 6.300035e+00 -3.688254e+00 6.925372e+00 -1.545599e-02 9.147502e-03 1.464684e-02
N 6.310556e+00 -3.694894e+00 -3.361233e+00 1.700407e-02 -9.650388e-03 -1.150591e-02
N 4.731057e+00 -9.832597e-01 1.883704e+00 -1.863454e-02 3.880227e-03 -3.856937e-02
N 4.743649e+00 -9.738309e-01 6.917207e+00 1.519889e-02 2.133313e-02 -3.909173e-03
N 4.733896e+00 -9.800175e-01 -3.361638e+00 -1.663228e-02 5.068623e-03 -7.807088e-03
N -3.208313e+00 1.796359e+00 1.853434e+00 1.759906e-02 1.271422e-02 -1.380967e-02
N -3.221794e+00 1.807887e+00 6.918376e+00 -1.442194e-02 7.923242e-03 -6.780604e-03
N -3.216247e+00 1.811308e+00 -3.357403e+00 2.069671e-03 1.650111e-02 -1.477447e-02
N -3.230898e-02 -3.688030e+00 1.886445e+00 9.483611e-05 -1.227832e-03 -2.782799e-02
N -3.469056e-02 -3.692800e+00 6.921632e+00 1.760430e-02 -9.406870e-03 7.181007e-03
N -3.944739e-02 -3.696503e+00 -3.358521e+00 8.085154e-04 -1.852260e-02 -5.119313e-03
N -1.600033e+00 -9.727402e-01 1.888360e+00 1.680202e-02 2.098300e-02 -3.365210e-02
N -1.612575e+00 -9.769514e-01 6.924905e+00 -1.525764e-02 5.548223e-03 1.056073e-02
N -1.607006e+00 -9.755324e-01 -3.355764e+00 8.682603e-04 1.505715e-02 5.358647e-03
