108
Energy=-2450785.947705 Lattice="9.643361 0.000000 0.000000 -4.822313 8.350943 0.000000 -0.000991 -0.000611 15.647797" Stress="-0.000000 0.000000 0.000000 0.000000 -0.000000 0.000000 -0.000000 -0.000000 0.000000" Properties=species:S:1:pos:R:3:forces:R:3
Al 1.574266 0.889283 2.460911 -0.000004 0.000016 -0.000001
Al 1.591600 0.887275 7.673411 -0.000000 -0.000004 0.000006
Ga 1.578606 0.897260 -2.752044 0.000004 0.000005 0.000005
Al -0.012683 3.663638 2.475015 0.000002 0.000005 -0.000000
Ga -0.011549 3.667957 7.666089 0.000002 0.000002 0.000007
Al -0.023275 3.669109 -2.756212 -0.000001 -0.000006 0.000002
Ga 3.189900 -1.891476 2.452826 -0.000004 -0.000008 -0.000006
Ga 3.188337 -1.881581 7.671190 0.000010 0.000010 0.000009
Ga 3.198332 -1.899117 -2.741283 -0.000003 -0.000001 0.000001
Ga -4.853922 0.879704 2.458252 -0.000016 -0.000005 0.000004
Al -4.850519 0.891421 7.685072 0.000002 0.000004 -0.000001
Ga -4.841827 0.887812 -2.756565 0.000004 -0.000001 -0.000004
Ga -6.466356 3.670936 2.474533 0.000003 0.000006 0.000002
Ga -6.463238 3.660729 7.659565 0.000008 -0.000002 0.000002
Ga -6.461310 3.669110 -2.751796 0.000001 -0.000001 0.000007
Ga -3.242566 -1.905230 2.460563 -0.000004 0.000000 0.000016
Ga -3.235889 -1.896944 7.676088 -0.000002 -0.000002 0.000006
Ga -3.239403 -1.896096 -2.753229 -0.000006 0.000001 0.000001
Ga -1.610548 0.890893 2.464876 -0.000009 -0.000000 0.000002
Ga -1.632554 0.885620 7.691668 -0.000003 0.000005 0.000005
Ga -1.630303 0.892924 -2.775952 0.000003 -0.000006 -0.000002
Ga -3.232019 3.677261 2.462915 -0.000021 -0.000004 0.000015
Ga -3.239560 3.660787 7.687910 0.000009 -0.000005 0.000005
Ga -3.229813 3.664069 -2.763227 -0.000002 0.000005 0.000000
Al -0.017619 -1.887534 2.464576 0.000002 0.000016 0.000005
Ga -0.021631 -1.882128 7.687474 0.000003 0.000007 0.000009
Ga -0.029368 -1.890519 -2.763472 0.000000 0.000000 0.000003
Ga -0.007848 1.823261 5.064191 -0.000002 -0.000000 0.000014
Ga -0.029043 1.810620 -5.369587 0.000001 -0.000004 0.000002
Ga -0.021104 1.827318 -0.134506 0.000004 0.000003 0.000010
Ga 3.207581 -3.755411 5.056989 0.000008 0.000007 0.000011
Ga 3.193398 -3.759201 -5.351603 -0.000001 0.000005 0.000005
Ga 3.208918 -3.753073 -0.142396 0.000013 -0.000000 -0.000004
Ga 1.577135 -0.959218 5.058587 0.000002 -0.000006 0.000003
Ga 1.577169 -0.959899 -5.369471 -0.000003 0.000002 0.000008
Ga 1.586017 -0.965720 -0.125879 0.000005 -0.000004 0.000001
Ga 3.181562 1.810755 5.077910 -0.000001 0.000001 -0.000001
Ga 3.200286 1.810370 -5.386805 0.000005 0.000006 0.000012
Ga 3.193598 1.805649 -0.131360 0.000008 0.000001 -0.000001
Al 6.398394 -3.753528 5.055236 -0.000005 -0.000007 0.000004
Ga 6.407401 -3.743507 -5.349398 0.000005 -0.000007 0.000014
Ga 6.389767 -3.750015 -0.145244 0.000000 0.000005 0.000002
Ga 4.805945 -0.971024 5.086687 0.000005 -0.000002 -0.000001
Ga 4.813760 -0.953607 -5.378504 0.000014 0.000012 0.000013
Al 4.800125 -0.966765 -0.146602 0.000006 0.000004 -0.000005
Ga -3.241036 1.812043 5.083170 0.000002 -0.000001 -0.000007
Al -3.240222 1.803562 -5.375310 0.000001 0.000008 -0.000003
Ga -3.242405 1.805696 -0.146479 0.000010 0.000006 0.000005
Ga -0.030022 -3.743205 5.064810 -0.000008 0.000005 0.000009
Ga -0.023695 -3.750301 -5.368272 0.000000 -0.000007 0.000014
Ga -0.023684 -3.746923 -0.132982 0.000014 0.000005 0.000008
Ga -1.629912 -0.979248 5.057942 -0.000001 0.000002 0.000049
Al -1.636131 -0.959811 -5.364519 0.000007 0.000000 0.000001
Ga -1.637294 -0.969394 -0.132907 0.000017 0.000013 0.000006
N 1.585303 0.889298 4.376912 -0.000004 -0.000001 -0.000007
N 1.582393 0.889482 -6.056082 -0.000005 0.000000 -0.000010
N 1.581560 0.888222 -0.775805 -0.000007 0.000001 0.000003
N 0.020665 3.691846 4.399600 0.000001 -0.000001 -0.000013
N -0.018141 3.674704 -6.007695 -0.000014 -0.000010 -0.000007
N -0.023303 3.667156 -0.840899 -0.000008 0.000003 -0.000005
N 3.195152 -1.890780 4.434525 -0.000002 0.000011 -0.000006
N 3.191492 -1.897094 -5.997506 -0.000013 -0.000004 -0.000014
N 3.229934 -1.871287 -0.749903 -0.000005 0.000002 0.000004
N -4.846685 0.884156 4.433801 0.000002 0.000009 0.000007
N -4.802101 0.914272 -6.041492 -0.000007 -0.000011 -0.000006
N -4.846019 0.840687 -0.768907 -0.000015 -0.000011 0.000002
N -6.495000 3.690736 4.462506 0.000004 -0.000005 -0.000005
N -6.458492 3.675804 -6.009012 -0.000008 -0.000001 -0.000009
N -6.453566 3.669542 -0.769199 -0.000003 -0.000005 -0.000002
N -3.243037 -1.943087 4.446831 -0.000002 -0.000004 -0.000007
N -3.191926 -1.876643 -5.986284 -0.000014 -0.000001 -0.000004
N -3.276921 -1.870268 -0.763524 -0.000013 -0.000004 0.000002
N -1.627743 0.891205 4.442430 0.000006 -0.000001 -0.000004
N -1.671223 0.863797 -5.961123 -0.000007 -0.000004 0.000001
N -1.627309 0.886881 -0.787241 -0.000003 0.000000 -0.000002
N -3.237827 3.669541 4.439517 0.000005 0.000004 -0.000002
N -3.234730 3.623217 -5.974197 0.000001 0.000003 -0.000002
N -3.236696 3.670652 -0.778152 -0.000011 0.000002 -0.000003
N -0.020655 -1.894976 4.380009 -0.000001 -0.000006 -0.000006
N -0.066547 -1.867862 -5.978050 0.000001 0.000006 -0.000009
N -0.024909 -1.891822 -0.784244 -0.000000 0.000002 -0.000004
N 0.020165 1.846193 1.860534 0.000005 -0.000012 -0.000003
N 0.019046 1.788857 7.055554 0.000004 0.000001 -0.000010
N -0.020857 1.864470 -3.383954 0.000001 0.000002 -0.000003
N 3.242566 -3.779965 1.846755 -0.000001 -0.000006 -0.000004
N 3.192238 -3.753261 7.037317 0.000000 -0.000003 -0.000012
N 3.234860 -3.773139 -3.365979 0.000008 -0.000002 0.000002
N 1.541070 -0.941918 1.865163 -0.000001 -0.000002 -0.000001
N 1.579405 -0.917426 7.047443 -0.000002 -0.000006 -0.000007
N 1.587812 -0.964711 -3.389935 -0.000001 -0.000001 -0.000003
N 3.148242 1.792092 1.850808 0.000006 -0.000008 -0.000003
N 3.190201 1.761861 7.074378 -0.000002 -0.000002 0.000000
N 3.191799 1.812822 -3.403669 0.000001 -0.000005 -0.000002
N 6.360540 -3.778593 1.837069 -0.000007 -0.000012 0.000002
N 6.402555 -3.748392 6.975196 0.000000 -0.000003 -0.000012
N 6.363768 -3.773272 -3.365559 0.000004 0.000003 -0.000005
N 4.800975 -0.968858 1.770724 0.000001 0.000004 -0.000004
N 4.801848 -0.917929 7.070477 0.000002 0.000001 -0.000003
N 4.798143 -0.965946 -3.400688 -0.000002 0.000002 0.000002
N -3.236369 1.812925 1.828100 0.000010 -0.000000 -0.000010
N -3.279039 1.789107 7.065121 -0.000002 0.000001 -0.000001
N -3.243243 1.812753 -3.451129 0.000001 0.000001 -0.000003
N -0.025764 -3.703867 1.854223 -0.000001 -0.000000 -0.000011
N -0.021122 -3.745608 7.046182 0.000003 -0.000000 -0.000007
N -0.024254 -3.753216 -3.390194 0.000002 -0.000001 -0.000004
N -1.591136 -0.992467 1.851732 -0.000000 -0.000014 -0.000011
N -1.628825 -0.967121 7.033159 0.000006 -0.000002 -0.000045
N -1.634423 -0.968177 -3.443717 0.000002 0.000002 -0.000004
