108
Energy=-1.443725e+06 Lattice="9.500100e+00 0.000000e+00 0.000000e+00 -4.755952e+00 8.223205e+00 0.000000e+00 2.164959e-03 1.179305e-02 1.533477e+01" Stress="-6.956522e-03 -4.322932e-04 1.616211e-04 -4.335965e-04 -7.804683e-03 5.573070e-04 1.834022e-04 5.577706e-04 -5.276599e-03" Properties=species:S:1:pos:R:3:forces:R:3 Config_type=AlGaN_super3_22_1_7.xyz
Al 1.559261e+00 8.900128e-01 2.440124e+00 7.847879e-04 2.084929e-04 -1.921810e-03
Al 1.544001e+00 8.942506e-01 7.548204e+00 -1.522037e-03 -2.474505e-03 3.702940e-04
Al 1.544366e+00 8.746670e-01 -2.757351e+00 8.660828e-04 2.179578e-04 8.314059e-04
Al -2.584436e-02 3.627934e+00 2.409594e+00 4.355914e-03 -3.753120e-03 9.460016e-04
Al -3.797232e-02 3.592125e+00 7.506967e+00 -1.536610e-04 5.073570e-04 5.975866e-04
Al -1.396100e-02 3.590341e+00 -2.701625e+00 -1.542729e-04 -3.810606e-04 2.508775e-03
Ga 3.174465e+00 -1.875933e+00 2.420246e+00 -2.520430e-04 -7.456711e-05 3.286082e-04
Ga 3.149354e+00 -1.860171e+00 7.520387e+00 -1.427158e-04 -3.578968e-04 2.284920e-04
Ga 3.148044e+00 -1.871995e+00 -2.715828e+00 -7.587380e-04 4.498222e-04 2.081561e-03
Al -4.776764e+00 8.537451e-01 2.400322e+00 2.693657e-03 6.671967e-03 9.468287e-04
Al -4.775432e+00 8.837048e-01 7.539643e+00 8.545680e-04 -3.705920e-05 1.877360e-03
Ga -4.778972e+00 8.804099e-01 -2.725376e+00 3.802047e-04 6.809911e-04 2.745729e-03
Al -6.376304e+00 3.595838e+00 2.423375e+00 3.301680e-03 4.922426e-03 -7.283372e-04
Ga -6.343558e+00 3.614548e+00 7.529966e+00 9.861269e-04 9.141346e-04 2.839132e-04
Al -6.368953e+00 3.609237e+00 -2.728388e+00 5.732284e-04 -6.211737e-04 1.320326e-03
Al -3.154937e+00 -1.870637e+00 2.397676e+00 -1.120371e-02 -7.056287e-04 -4.001713e-03
Ga -3.187582e+00 -1.848734e+00 7.528677e+00 1.675727e-04 -2.435996e-04 1.349306e-03
Ga -3.175991e+00 -1.876082e+00 -2.698502e+00 4.344565e-05 8.338630e-05 1.817378e-03
Ga -1.619820e+00 8.930098e-01 2.408367e+00 1.151232e-03 5.324146e-04 6.998436e-04
Al -1.601986e+00 9.032518e-01 7.525608e+00 6.249202e-04 1.075133e-04 7.192875e-04
Al -1.604863e+00 8.841479e-01 -2.720617e+00 1.346173e-03 -3.241871e-04 1.622196e-03
Al -3.179665e+00 3.618034e+00 2.411547e+00 -6.007855e-03 -3.414361e-04 1.805537e-04
Al -3.196146e+00 3.623746e+00 7.528028e+00 -1.240996e-03 -7.293675e-04 -2.931179e-04
Ga -3.197231e+00 3.608569e+00 -2.718704e+00 -3.812168e-04 -8.213462e-04 1.528345e-03
Ga -3.338231e-02 -1.867977e+00 2.419458e+00 1.252508e-03 -1.843052e-03 4.284524e-05
Al -9.961384e-03 -1.861920e+00 7.532148e+00 9.736084e-06 -5.034013e-04 6.153485e-04
Al -2.151355e-02 -1.856658e+00 -2.727654e+00 6.044974e-04 -7.894100e-04 1.728932e-03
Al -2.482646e-02 1.800776e+00 4.980220e+00 -1.097307e-04 1.069041e-03 8.397019e-04
Al -2.499580e-02 1.792272e+00 -5.261974e+00 -2.485226e-03 -7.260284e-03 1.207243e-03
Ga -3.257516e-02 1.787829e+00 -1.577507e-01 -1.039448e-04 1.025755e-03 -1.619947e-03
Al 3.152623e+00 -3.705221e+00 4.976048e+00 -1.155627e-03 7.883103e-05 4.522103e-04
Ga 3.144353e+00 -3.717570e+00 -5.276726e+00 -7.399186e-04 1.450449e-03 1.159628e-03
Al 3.164564e+00 -3.709172e+00 -1.507074e-01 -2.733154e-04 7.626424e-04 6.168332e-04
Ga 1.571464e+00 -9.514149e-01 4.992273e+00 -6.894949e-04 1.193799e-03 7.490106e-04
Al 1.562789e+00 -9.510917e-01 -5.273679e+00 -1.121024e-03 1.237139e-03 4.526056e-04
Ga 1.569977e+00 -9.569558e-01 -1.529629e-01 -5.031221e-04 2.727756e-04 -1.481101e-03
Ga 3.138524e+00 1.787126e+00 4.970194e+00 6.231371e-04 -1.210670e-04 2.870357e-04
Al 3.139978e+00 1.774221e+00 -5.272368e+00 2.334956e-04 -1.290003e-03 9.048028e-04
Ga 3.134189e+00 1.786933e+00 -1.391158e-01 9.468060e-04 -1.443928e-04 2.550454e-03
Ga 6.303579e+00 -3.688359e+00 4.949730e+00 4.098443e-04 -5.710775e-04 5.050754e-04
Ga 6.307945e+00 -3.721125e+00 -5.259968e+00 2.794254e-04 1.297370e-03 1.667342e-03
Al 6.306745e+00 -3.691092e+00 -1.491493e-01 2.463773e-05 -6.855209e-05 2.113884e-03
Al 4.740245e+00 -9.448451e-01 4.962496e+00 -5.266780e-04 5.838811e-04 5.358259e-04
Al 4.722946e+00 -9.375499e-01 -5.270102e+00 -5.370572e-04 2.896828e-04 1.679936e-03
Al 4.749581e+00 -9.606378e-01 -1.381335e-01 -6.116492e-04 2.135419e-04 4.367685e-04
Ga -3.202658e+00 1.810556e+00 4.983229e+00 -8.397376e-04 2.029640e-04 4.278984e-04
Al -3.204816e+00 1.788786e+00 -5.292606e+00 4.413178e-04 -2.392164e-03 -4.868788e-04
Al -3.194179e+00 1.785750e+00 -1.459075e-01 -4.343533e-04 -3.177434e-04 2.561744e-03
Al -5.679021e-03 -3.687857e+00 4.970225e+00 1.017253e-04 -1.198012e-03 -5.865883e-04
Al -1.715126e-02 -3.693005e+00 -5.256262e+00 3.711123e-04 -1.055029e-03 -5.698041e-04
Ga -2.905471e-02 -3.693308e+00 -1.491175e-01 -3.669556e-04 -3.742197e-04 1.540634e-03
Ga -1.604415e+00 -9.441495e-01 4.990324e+00 -8.968932e-04 7.304875e-05 1.444048e-03
Ga -1.590678e+00 -9.387069e-01 -5.271116e+00 -2.964145e-05 1.106220e-03 1.501169e-03
Al -1.617344e+00 -9.469621e-01 -1.690862e-01 -5.079373e-04 -1.290057e-04 -2.888554e-04
N 1.511030e+00 8.997033e-01 4.342854e+00 1.440077e-04 -3.285648e-05 -1.418303e-03
N 1.547770e+00 8.770198e-01 -5.864516e+00 5.513517e-04 -3.640387e-04 4.137323e-04
N 1.556329e+00 8.702617e-01 -8.484970e-01 8.392047e-04 5.821465e-04 1.295532e-03
N -6.616462e-02 3.594666e+00 4.336471e+00 -5.413314e-04 -4.012298e-04 -1.943788e-03
N -2.709018e-02 3.548691e+00 -5.921499e+00 3.222049e-04 4.307818e-03 -2.257428e-03
N -2.071029e-02 3.654518e+00 -7.847026e-01 2.866654e-04 2.501040e-04 4.497113e-04
N 3.195663e+00 -1.891993e+00 4.408053e+00 -9.153341e-05 -3.362629e-04 -1.240111e-03
N 3.150040e+00 -1.831269e+00 -5.841627e+00 -1.406342e-04 -5.787550e-05 -4.748661e-04
N 3.195647e+00 -1.894083e+00 -7.306093e-01 -1.435396e-04 -4.909763e-04 5.958356e-04
N -4.777137e+00 8.366367e-01 4.317192e+00 1.803379e-03 -1.503505e-03 -1.128469e-03
N -4.783118e+00 8.693851e-01 -5.874757e+00 1.522200e-04 -1.310319e-04 -6.796965e-04
N -4.742006e+00 8.504281e-01 -7.382786e-01 6.212697e-04 2.136361e-04 2.144121e-04
N -6.314225e+00 3.644222e+00 4.329388e+00 -1.245064e-03 -1.118184e-04 2.908326e-03
N -6.314094e+00 3.585650e+00 -5.838406e+00 1.901823e-04 1.442808e-03 1.988117e-04
N -6.401495e+00 3.631968e+00 -8.095739e-01 -5.368066e-04 1.588704e-04 1.198476e-03
N -3.219289e+00 -1.835086e+00 4.306840e+00 1.126499e-03 4.864912e-04 1.358104e-03
N -3.226376e+00 -1.851112e+00 -5.845442e+00 -3.022251e-04 -6.017797e-04 -3.754714e-04
N -3.187472e+00 -1.872234e+00 -7.159923e-01 4.037424e-04 -1.970496e-04 4.920596e-04
N -1.578302e+00 9.101814e-01 4.385164e+00 8.137377e-04 -4.416850e-04 -1.897663e-03
N -1.613498e+00 9.278228e-01 -5.900888e+00 2.992232e-03 9.186086e-04 1.239007e-03
N -1.659845e+00 8.607485e-01 -7.899597e-01 8.379464e-04 -5.265810e-04 -2.853918e-04
N -3.187060e+00 3.674073e+00 4.340202e+00 6.049429e-04 -7.172757e-04 -2.130584e-03
N -3.242860e+00 3.590932e+00 -5.894945e+00 -3.998836e-04 2.574213e-03 3.532538e-04
N -3.156127e+00 3.593401e+00 -7.410344e-01 5.361703e-04 -1.119990e-04 9.625867e-04
N -2.256894e-02 -1.898778e+00 4.384528e+00 2.383652e-04 -6.259629e-04 -1.365431e-03
N 2.014025e-02 -1.894776e+00 -5.889476e+00 4.438034e-04 -1.415786e-03 -2.401559e-04
N -5.799308e-02 -1.840743e+00 -8.109737e-01 -2.025891e-04 -6.495190e-04 1.371189e-03
N 2.072040e-02 1.813912e+00 1.817639e+00 -3.516993e-04 3.768787e-04 2.467763e-04
N -2.082655e-02 1.789445e+00 6.905273e+00 1.713884e-04 1.406614e-04 -2.290686e-03
N -3.032215e-02 1.785430e+00 -3.332684e+00 -9.144613e-04 9.407620e-04 -5.761182e-04
N 3.162549e+00 -3.745417e+00 1.779234e+00 -4.550899e-03 1.174295e-03 -2.121690e-03
N 3.142282e+00 -3.743988e+00 6.899598e+00 1.421974e-03 8.878566e-04 -7.154103e-04
N 3.193398e+00 -3.732545e+00 -3.311769e+00 2.986090e-04 6.727819e-04 -7.801953e-04
N 1.571684e+00 -9.096565e-01 1.821476e+00 -8.480200e-04 1.506817e-03 1.200765e-03
N 1.526171e+00 -9.160766e-01 6.961910e+00 -6.874336e-05 8.150705e-04 -3.637864e-04
N 1.528652e+00 -9.408599e-01 -3.353472e+00 -7.611206e-04 3.626024e-04 -4.240395e-04
N 3.145013e+00 1.786618e+00 1.878130e+00 -3.660625e-03 -3.760575e-03 -8.588749e-03
N 3.136787e+00 1.740890e+00 6.953644e+00 5.894736e-04 4.452200e-04 -1.913980e-03
N 3.102323e+00 1.806284e+00 -3.355613e+00 -2.605454e-04 9.083484e-05 -7.139287e-05
N 6.316630e+00 -3.699150e+00 1.801308e+00 -1.118520e-04 -2.022875e-04 -1.331671e-03
N 6.275620e+00 -3.712358e+00 6.925547e+00 -7.649550e-04 -2.871967e-04 -1.681099e-03
N 6.306007e+00 -3.745984e+00 -3.290525e+00 -5.559292e-05 8.843486e-05 -4.185803e-04
N 4.772239e+00 -9.351297e-01 1.774747e+00 4.219142e-03 -2.141976e-03 1.043678e-03
N 4.737463e+00 -8.942225e-01 6.877566e+00 -8.061807e-04 1.880336e-04 -3.927094e-03
N 4.736973e+00 -9.548746e-01 -3.372297e+00 -5.175730e-04 -6.146262e-04 -4.165647e-04
N -3.237172e+00 1.820915e+00 1.783650e+00 -7.056427e-05 -1.823644e-03 -1.243802e-03
N -3.202734e+00 1.799582e+00 6.972377e+00 3.635686e-04 -3.590264e-04 -1.902499e-03
N -3.154571e+00 1.762753e+00 -3.383058e+00 -2.292079e-04 4.998795e-04 5.550859e-04
N -3.939721e-02 -3.741655e+00 1.838394e+00 5.276011e-03 -3.580090e-04 -3.947060e-03
N 2.107692e-02 -3.664061e+00 6.889969e+00 4.630119e-04 2.622658e-04 -1.385736e-03
N -6.219887e-02 -3.668903e+00 -3.339692e+00 2.481393e-04 -3.820862e-05 3.214027e-04
N -1.638042e+00 -9.635178e-01 1.754963e+00 2.626206e-03 1.436297e-03 -2.798412e-03
N -1.560698e+00 -9.192684e-01 6.966381e+00 1.268472e-05 1.798136e-04 -1.157698e-03
N -1.563029e+00 -9.241478e-01 -3.295623e+00 -7.007716e-04 6.833993e-05 4.826368e-05
