108
Energy=-2.496561e+06 Lattice="9.650455e+00 0.000000e+00 0.000000e+00 -4.825459e+00 8.357555e+00 0.000000e+00 -2.501659e-03 -2.706668e-03 1.565813e+01" Stress="4.843457e-05 -3.138445e-06 8.340437e-06 -3.306179e-06 1.969105e-05 -3.215788e-06 4.452904e-06 -1.532286e-05 2.043649e-05" Properties=species:S:1:pos:R:3:forces:R:3 Config_type=AlGaN_super3_45_2_14.xyz
Al 1.578842e+00 9.033657e-01 2.470661e+00 2.081700e-07 1.168712e-04 1.464435e-05
Al 1.595568e+00 8.947036e-01 7.670998e+00 -2.899809e-05 4.400313e-05 -9.513369e-07
Ga 1.584646e+00 8.962558e-01 -2.759546e+00 2.128126e-05 -1.719422e-05 1.486671e-05
Al -2.406665e-02 3.660589e+00 2.471557e+00 -1.313506e-06 5.684002e-05 -3.834493e-05
Al -3.086218e-02 3.675287e+00 7.660821e+00 -2.792545e-05 2.316791e-05 -2.417631e-05
Ga -2.272801e-02 3.666914e+00 -2.747709e+00 8.718379e-06 3.359813e-07 1.983380e-05
Ga 3.191645e+00 -1.904011e+00 2.484756e+00 -1.038463e-05 4.905094e-05 -2.626281e-05
Al 3.191671e+00 -1.908072e+00 7.657653e+00 -1.551913e-05 -1.470613e-05 -1.470837e-05
Ga 3.191877e+00 -1.896561e+00 -2.756762e+00 -2.703140e-06 -3.408718e-05 3.278496e-06
Ga -4.864475e+00 8.906512e-01 2.484630e+00 -6.545121e-06 1.411863e-04 -3.152858e-05
Ga -4.878770e+00 8.866103e-01 7.676979e+00 1.171996e-05 4.880526e-05 -2.088999e-06
Ga -4.858852e+00 8.923179e-01 -2.772322e+00 -6.996975e-06 -9.126062e-06 2.008498e-05
Ga -6.471340e+00 3.659517e+00 2.482955e+00 -2.893572e-05 7.881596e-05 -2.759090e-05
Ga -6.476205e+00 3.648692e+00 7.672878e+00 -8.709248e-07 3.568095e-05 3.785552e-06
Ga -6.459706e+00 3.665810e+00 -2.767367e+00 -4.005212e-06 -4.080112e-05 -1.186231e-05
Ga -3.245747e+00 -1.906213e+00 2.472959e+00 -3.296763e-05 6.276375e-05 -2.108461e-06
Ga -3.254380e+00 -1.907980e+00 7.678505e+00 1.073656e-05 9.293652e-06 -8.677914e-06
Ga -3.243680e+00 -1.899677e+00 -2.759888e+00 1.306831e-05 -3.797266e-05 -9.108782e-06
Ga -1.608799e+00 9.015187e-01 2.461282e+00 -2.309453e-05 1.247596e-04 -1.007847e-05
Ga -1.617187e+00 8.956386e-01 7.675199e+00 6.814658e-06 5.578495e-05 -6.495294e-06
Ga -1.620369e+00 8.978115e-01 -2.743490e+00 -3.935859e-06 -3.232915e-05 2.724619e-05
Ga -3.223785e+00 3.678593e+00 2.487348e+00 -1.921312e-05 4.790368e-05 -1.508913e-05
Ga -3.218463e+00 3.684191e+00 7.666521e+00 -1.215041e-06 2.974778e-05 5.999337e-06
Ga -3.236931e+00 3.677205e+00 -2.758952e+00 3.681511e-06 -3.093203e-05 4.607728e-06
Ga -1.542975e-02 -1.887927e+00 2.475518e+00 -1.641653e-05 -3.038500e-05 -4.928269e-05
Ga -1.022003e-02 -1.888146e+00 7.678973e+00 -1.602048e-05 6.205997e-06 -7.916418e-06
Ga -1.666081e-02 -1.895502e+00 -2.758910e+00 -6.104068e-06 -3.717803e-05 9.815710e-06
Ga -5.212778e-03 1.831326e+00 5.074887e+00 2.623363e-05 -8.642563e-06 8.840363e-06
Ga -4.426874e-03 1.823921e+00 -5.401021e+00 2.775358e-05 1.177260e-05 4.052019e-06
Al -1.426297e-02 1.821835e+00 -1.181479e-01 1.029598e-05 9.823702e-06 1.067684e-05
Al 3.207185e+00 -3.757408e+00 5.080041e+00 4.553782e-05 -6.047207e-05 1.985454e-05
Ga 3.204161e+00 -3.750032e+00 -5.390008e+00 3.498549e-05 -1.110466e-05 3.618845e-05
Ga 3.203229e+00 -3.765489e+00 -1.308243e-01 8.649306e-06 4.507482e-05 -3.003451e-05
Ga 1.599282e+00 -9.543183e-01 5.083821e+00 7.005980e-06 -5.814054e-05 8.223565e-06
Ga 1.601528e+00 -9.533819e-01 -5.399093e+00 2.146764e-05 -1.702994e-05 -5.588870e-06
Ga 1.582522e+00 -9.520017e-01 -1.273250e-01 2.104699e-05 8.348576e-06 -2.616374e-05
Al 3.179105e+00 1.809253e+00 5.071731e+00 3.272780e-06 -3.439462e-05 2.825923e-06
Al 3.184934e+00 1.813704e+00 -5.382547e+00 -8.795692e-06 -6.557034e-06 1.092558e-05
Ga 3.179367e+00 1.813518e+00 -1.319708e-01 -1.228030e-05 2.054473e-05 -1.927414e-06
Ga 6.394518e+00 -3.770271e+00 5.073843e+00 6.565442e-06 -7.762349e-05 -1.691951e-05
Ga 6.406910e+00 -3.768829e+00 -5.386335e+00 -2.509798e-06 -2.858754e-05 2.121587e-05
Ga 6.401654e+00 -3.768386e+00 -1.281051e-01 -7.110501e-06 2.775520e-05 -2.351709e-05
Ga 4.789150e+00 -9.693865e-01 5.089361e+00 1.726392e-05 -5.763090e-05 -2.511844e-06
Ga 4.788495e+00 -9.644576e-01 -5.389892e+00 5.044637e-06 -3.305364e-05 1.401517e-05
Ga 4.799526e+00 -9.670013e-01 -1.373988e-01 -2.309642e-05 4.976778e-05 3.253582e-05
Ga -3.245053e+00 1.823122e+00 5.075602e+00 -6.380344e-06 -7.247782e-05 -1.760153e-05
Ga -3.247458e+00 1.817470e+00 -5.374322e+00 -1.140154e-05 -2.938078e-05 2.250056e-06
Ga -3.234164e+00 1.817385e+00 -1.390141e-01 -1.654824e-05 1.543240e-05 4.451219e-06
Ga -2.017691e-02 -3.763560e+00 5.079704e+00 2.573722e-06 -9.125601e-05 -2.618081e-05
Ga -2.748557e-02 -3.763495e+00 -5.379681e+00 -9.616028e-06 -3.767648e-05 7.746517e-06
Ga -2.312276e-02 -3.756893e+00 -1.373338e-01 -2.219465e-05 -2.121677e-05 3.469620e-05
Ga -1.630810e+00 -9.670718e-01 5.075790e+00 3.660175e-06 -6.925516e-05 1.125639e-05
Ga -1.630056e+00 -9.647807e-01 -5.363530e+00 -1.299556e-05 -4.033840e-05 4.596266e-06
Ga -1.626554e+00 -9.608063e-01 -1.429544e-01 -5.132233e-05 1.080775e-05 -2.150567e-05
N 1.622385e+00 9.137780e-01 4.397816e+00 5.871970e-06 6.635952e-05 2.133244e-05
N 1.633599e+00 9.173418e-01 -6.060458e+00 -5.067362e-06 3.353370e-05 2.145755e-05
N 1.540192e+00 9.169339e-01 -7.694759e-01 -4.588582e-07 -3.826649e-05 2.158225e-05
N -6.880551e-02 3.693381e+00 4.398858e+00 -5.417959e-06 5.966437e-05 -4.566860e-05
N -2.628308e-02 3.676953e+00 -6.079581e+00 5.320508e-06 3.712007e-05 -7.172679e-06
N -2.316609e-02 3.620709e+00 -7.611179e-01 1.276566e-05 -2.321233e-05 -3.695947e-05
N 3.191278e+00 -1.948430e+00 4.467115e+00 -1.161042e-05 5.971385e-05 6.697166e-06
N 3.193539e+00 -1.902703e+00 -6.079720e+00 -3.094990e-06 3.580718e-05 5.474492e-06
N 3.188656e+00 -1.898697e+00 -7.729490e-01 -1.869145e-06 -3.819232e-05 2.542925e-05
N -4.894099e+00 9.114028e-01 4.468313e+00 2.866408e-05 8.738974e-05 2.065588e-05
N -4.895601e+00 9.172069e-01 -5.994553e+00 2.116605e-05 4.060883e-05 -1.656486e-05
N -4.854337e+00 8.922552e-01 -7.863595e-01 3.390380e-05 -4.014586e-05 -8.288042e-06
N -6.459394e+00 3.623028e+00 4.467458e+00 3.146332e-06 9.346597e-05 2.451830e-05
N -6.458242e+00 3.620038e+00 -5.998262e+00 -3.420309e-06 6.817331e-05 -1.728233e-05
N -6.459334e+00 3.670397e+00 -7.815374e-01 3.174254e-05 6.372911e-07 9.941714e-06
N -3.243601e+00 -1.899253e+00 4.449654e+00 -1.396805e-05 6.948650e-05 5.113942e-06
N -3.238672e+00 -1.897625e+00 -6.003436e+00 -4.423443e-06 3.064264e-05 5.639357e-06
N -3.241261e+00 -1.902086e+00 -7.756889e-01 2.724132e-05 -5.576768e-05 3.005574e-05
N -1.622773e+00 8.950877e-01 4.441876e+00 -5.220674e-05 7.858718e-05 -1.841758e-05
N -1.629030e+00 8.911789e-01 -6.008342e+00 -2.467703e-05 2.883553e-05 1.485356e-05
N -1.581229e+00 9.200460e-01 -7.493582e-01 9.305739e-06 -4.508749e-05 1.844260e-06
N -3.192478e+00 3.701550e+00 4.470871e+00 -4.571734e-05 5.615846e-05 -1.245990e-05
N -3.233925e+00 3.676651e+00 -6.014637e+00 -3.229915e-05 2.719818e-05 -1.020941e-05
N -3.237245e+00 3.676240e+00 -7.784725e-01 -3.294487e-05 -2.416656e-05 -3.136399e-06
N -1.579666e-02 -1.895375e+00 4.451850e+00 -7.953859e-06 5.930634e-05 1.969129e-05
N -2.043428e-02 -1.894409e+00 -6.003530e+00 -1.377708e-05 1.664509e-05 -4.175615e-06
N -1.715918e-02 -1.896370e+00 -7.764718e-01 2.548901e-05 -1.536679e-05 -5.068626e-06
N 2.531446e-02 1.844596e+00 1.819982e+00 5.113527e-06 -7.827675e-05 1.070883e-05
N 2.543152e-02 1.841801e+00 7.070983e+00 1.533330e-05 -5.084579e-05 6.096138e-06
N -1.915614e-02 1.820174e+00 -3.418974e+00 -5.126173e-07 2.011036e-05 -9.662722e-06
N 3.239240e+00 -3.779467e+00 1.850433e+00 -9.428606e-06 -1.552346e-05 3.716286e-05
N 3.241153e+00 -3.733614e+00 7.013348e+00 1.639509e-05 -1.150099e-05 7.368541e-06
N 3.200856e+00 -3.753283e+00 -3.405186e+00 3.060537e-05 1.084139e-05 -4.225032e-05
N 1.589390e+00 -9.145642e-01 1.861382e+00 1.406093e-06 -3.196896e-05 2.834212e-05
N 1.628676e+00 -9.377648e-01 7.078212e+00 2.009635e-05 -4.981276e-05 1.174046e-05
N 1.590387e+00 -9.620105e-01 -3.410934e+00 8.875555e-06 -9.864809e-06 -1.701089e-06
N 3.149588e+00 1.791452e+00 1.847791e+00 2.394403e-05 -4.500194e-05 1.781971e-05
N 3.144320e+00 1.787958e+00 6.991292e+00 1.275499e-05 -3.400869e-05 -1.142519e-05
N 3.186097e+00 1.814963e+00 -3.457814e+00 2.124617e-05 2.805159e-05 1.070858e-05
N 6.366799e+00 -3.783101e+00 1.860151e+00 6.314531e-05 -3.817242e-05 1.375087e-05
N 6.364717e+00 -3.783521e+00 7.056471e+00 3.236215e-05 -1.119164e-05 -1.717345e-06
N 6.405155e+00 -3.758837e+00 -3.401930e+00 -1.701998e-05 1.153437e-05 -2.592789e-05
N 4.798015e+00 -9.666864e-01 1.841326e+00 1.459556e-05 -1.001879e-04 -4.835153e-05
N 4.758090e+00 -9.917943e-01 7.068074e+00 1.473194e-05 -3.937513e-05 2.266771e-07
N 4.797495e+00 -9.700209e-01 -3.406106e+00 2.575536e-07 -6.482109e-07 -1.995078e-05
N -3.243730e+00 1.817531e+00 1.844026e+00 5.171998e-06 -7.180424e-05 6.383198e-05
N -3.245641e+00 1.812398e+00 7.050377e+00 -1.869994e-05 -5.207011e-05 7.873670e-06
N -3.236751e+00 1.815713e+00 -3.391216e+00 -1.289110e-05 1.925552e-05 -9.332871e-06
N -2.409684e-02 -3.758196e+00 1.847203e+00 -6.962437e-06 -2.405086e-05 -5.327023e-06
N -2.876802e-02 -3.758278e+00 7.054018e+00 -1.411131e-05 -4.423870e-05 2.123923e-05
N -2.367324e-02 -3.755258e+00 -3.398550e+00 -8.643118e-06 1.008131e-05 -5.095796e-06
N -1.632350e+00 -9.679070e-01 1.835313e+00 1.057026e-05 -6.987873e-05 -1.418660e-05
N -1.634019e+00 -9.701105e-01 7.047388e+00 -1.618448e-05 -7.159909e-05 5.219878e-06
N -1.630871e+00 -9.633227e-01 -3.382795e+00 -1.803138e-05 -9.976177e-06 3.665002e-06
