108
Energy=-1.123296e+06 Lattice="9.476332e+00 0.000000e+00 0.000000e+00 -4.747186e+00 8.201563e+00 0.000000e+00 -3.258128e-03 -6.599958e-02 1.528496e+01" Stress="-1.256159e-04 -9.044817e-04 -2.505031e-05 -9.056420e-04 -5.039202e-04 -2.831019e-03 -3.111333e-05 -2.841884e-03 1.841664e-03" Properties=species:S:1:pos:R:3:forces:R:3 Config_type=AlGaN_super3_15_1_9.xyz
Al 1.552033e+00 8.699652e-01 2.400313e+00 -1.030117e-03 -3.864560e-03 -2.067543e-04
Al 1.558852e+00 8.297204e-01 7.472046e+00 -5.711058e-04 1.003639e-04 -1.379379e-03
Al 1.552864e+00 8.856454e-01 -2.681481e+00 4.021003e-04 2.836489e-04 1.187929e-03
Al -4.360073e-02 3.588573e+00 2.390899e+00 3.311339e-04 1.320061e-03 -6.360606e-04
Al -1.733775e-02 3.554457e+00 7.475714e+00 -1.176384e-03 7.013058e-04 7.782570e-04
Al -2.674560e-02 3.624422e+00 -2.673763e+00 2.282872e-03 -1.279521e-03 1.169722e-03
Al 3.136448e+00 -1.881275e+00 2.386749e+00 -2.623346e-03 -1.065114e-03 -1.529574e-03
Al 3.143503e+00 -1.895176e+00 7.496538e+00 -1.126088e-03 -8.693087e-04 2.612346e-03
Ga 3.149162e+00 -1.839558e+00 -2.686897e+00 -6.705790e-04 4.276163e-04 1.129986e-03
Al -4.777314e+00 8.746848e-01 2.422448e+00 3.899615e-04 -4.425492e-03 -6.253556e-04
Al -4.761114e+00 8.317180e-01 7.483485e+00 2.306537e-04 2.965478e-03 1.890205e-03
Al -4.763520e+00 8.901711e-01 -2.700281e+00 1.150283e-04 -1.834292e-04 -5.779472e-04
Ga -6.343852e+00 3.594378e+00 2.384958e+00 -1.593590e-04 4.344281e-04 4.389767e-04
Al -6.339508e+00 3.563193e+00 7.493261e+00 -3.286417e-04 4.796870e-04 5.119389e-04
Ga -6.351103e+00 3.621944e+00 -2.685698e+00 -4.672970e-04 6.259256e-05 7.530790e-04
Al -3.175669e+00 -1.861177e+00 2.409364e+00 1.606303e-04 -1.126494e-03 -2.787758e-03
Ga -3.171468e+00 -1.897541e+00 7.507324e+00 9.062792e-04 2.217015e-04 9.613598e-04
Al -3.178009e+00 -1.842172e+00 -2.704489e+00 -2.510432e-03 5.678186e-05 -5.755792e-04
Al -1.600332e+00 8.584463e-01 2.412913e+00 3.419890e-04 5.743737e-05 -2.507239e-04
Al -1.600749e+00 8.362827e-01 7.472320e+00 -3.556229e-06 -2.855676e-04 2.688256e-03
Ga -1.616442e+00 8.986135e-01 -2.683681e+00 6.783765e-04 -1.504273e-04 -7.783208e-04
Al -3.178819e+00 3.609412e+00 2.426426e+00 7.441231e-05 2.407447e-04 6.397627e-05
Ga -3.186207e+00 3.566607e+00 7.473827e+00 -3.397378e-04 -4.295223e-04 3.830972e-04
Al -3.189372e+00 3.620773e+00 -2.696377e+00 -1.706846e-04 -3.422889e-04 -1.108986e-04
Al -2.615922e-02 -1.868211e+00 2.394998e+00 2.142271e-03 1.849145e-03 -9.570836e-04
Al -1.359734e-02 -1.892032e+00 7.495605e+00 -2.147762e-03 -8.285987e-04 1.270776e-03
Ga -2.255544e-02 -1.835843e+00 -2.696556e+00 1.027901e-03 -2.946904e-04 1.727853e-03
Al -3.047370e-02 1.751505e+00 4.942222e+00 -4.146499e-04 -9.993357e-05 2.421326e-04
Ga -2.532492e-02 1.798786e+00 -5.259412e+00 -1.584595e-04 -5.362679e-05 1.181687e-03
Al -2.505264e-02 1.787556e+00 -1.327598e-01 4.532385e-03 2.253059e-03 -8.011934e-04
Al 3.143803e+00 -3.732609e+00 4.941137e+00 -5.696917e-04 2.750854e-03 2.932628e-04
Ga 3.146685e+00 -3.662619e+00 -5.244769e+00 -4.822563e-05 7.317679e-04 1.918841e-04
Al 3.134645e+00 -3.685280e+00 -1.354550e-01 7.201823e-04 4.427781e-04 -1.089795e-03
Ga 1.559255e+00 -9.896350e-01 4.938508e+00 -1.665707e-03 1.082337e-03 8.334493e-04
Al 1.556961e+00 -9.315075e-01 -5.268838e+00 4.406661e-04 3.351598e-04 -2.346017e-04
Al 1.546967e+00 -9.349930e-01 -1.223344e-01 2.438567e-04 1.417520e-04 6.909403e-04
Al 3.136583e+00 1.758200e+00 4.964054e+00 -1.868312e-05 6.908324e-04 2.301269e-04
Ga 3.139327e+00 1.802085e+00 -5.261039e+00 2.721109e-04 -7.567465e-04 1.202897e-03
Al 3.113840e+00 1.785898e+00 -1.531990e-01 -1.786641e-04 -2.971186e-04 2.142275e-04
Ga 6.302564e+00 -3.725768e+00 4.942602e+00 1.324348e-04 8.107543e-05 -4.598401e-05
Al 6.307096e+00 -3.652434e+00 -5.242170e+00 -2.296989e-03 -4.583490e-04 -2.544768e-04
Al 6.289390e+00 -3.674737e+00 -1.447003e-01 -6.374270e-04 3.462124e-04 6.452121e-04
Ga 4.721334e+00 -9.723179e-01 4.933344e+00 -6.997154e-04 2.544430e-04 1.127046e-03
Al 4.728530e+00 -9.207373e-01 -5.244615e+00 -5.955839e-04 -1.226326e-04 -8.369993e-04
Ga 4.723273e+00 -9.366511e-01 -1.135033e-01 -2.282510e-04 -1.950467e-03 -5.494142e-03
Al -3.181771e+00 1.760089e+00 4.929354e+00 9.105693e-04 -8.111643e-05 -5.215864e-04
Al -3.194888e+00 1.801024e+00 -5.242208e+00 4.827257e-04 -1.722988e-03 -1.803802e-03
Ga -3.191350e+00 1.811765e+00 -1.148007e-01 -5.751627e-04 -3.195754e-04 -3.450188e-04
Al -1.380431e-02 -3.708615e+00 4.947601e+00 -4.898643e-04 -2.345507e-04 -1.456112e-04
Al -2.419691e-02 -3.647761e+00 -5.257312e+00 9.969110e-04 -6.830079e-04 1.261483e-04
Al -1.364119e-02 -3.664421e+00 -1.382611e-01 5.124532e-05 -3.567348e-04 8.683854e-04
Al -1.583086e+00 -9.699975e-01 4.942647e+00 -8.694464e-04 1.874727e-04 1.539614e-04
Al -1.601485e+00 -9.317845e-01 -5.252552e+00 -8.467724e-06 1.416630e-03 -2.771064e-03
Al -1.594620e+00 -9.494866e-01 -1.251754e-01 -9.092570e-04 -1.081003e-03 3.365506e-05
N 1.558604e+00 8.930980e-01 4.327821e+00 2.115567e-04 1.626031e-04 -9.700046e-04
N 1.554816e+00 8.501568e-01 -5.917128e+00 2.265460e-04 3.863456e-04 1.879120e-03
N 1.541907e+00 8.749785e-01 -7.558927e-01 8.946918e-04 1.686096e-04 7.388812e-04
N -6.481158e-02 3.547766e+00 4.310235e+00 -5.856592e-04 3.367004e-04 -5.418212e-04
N 1.514637e-02 3.649029e+00 -5.903816e+00 1.402425e-03 3.992026e-04 6.752108e-04
N -3.205568e-02 3.611929e+00 -7.474097e-01 4.868615e-04 -7.703223e-05 6.379241e-04
N 3.139680e+00 -1.941873e+00 4.291258e+00 9.819006e-04 -1.251125e-03 5.236933e-04
N 3.145798e+00 -1.795457e+00 -5.866649e+00 2.204093e-04 -1.322412e-04 -7.451208e-05
N 3.099814e+00 -1.869518e+00 -7.045820e-01 -9.997595e-04 -2.954466e-04 -8.296907e-04
N -4.772647e+00 8.998079e-01 4.330525e+00 3.451436e-04 -7.011831e-04 -1.226847e-03
N -4.720623e+00 8.736845e-01 -5.884083e+00 2.610753e-04 2.463275e-04 -3.726921e-04
N -4.799998e+00 9.062619e-01 -7.898985e-01 -4.036655e-05 7.644460e-04 4.020034e-04
N -6.298776e+00 3.550572e+00 4.359183e+00 1.093518e-04 5.678824e-04 1.230579e-04
N -6.344257e+00 3.678234e+00 -5.867120e+00 4.622418e-04 -2.898682e-04 -1.555697e-03
N -6.346641e+00 3.621442e+00 -6.972007e-01 6.250060e-05 -5.210010e-04 1.255903e-03
N -3.130648e+00 -1.869446e+00 4.308075e+00 4.427098e-04 1.363267e-03 1.724087e-03
N -3.176842e+00 -1.839053e+00 -5.802087e+00 1.638565e-04 1.540245e-04 -5.483281e-04
N -3.139659e+00 -1.868746e+00 -7.764024e-01 8.546081e-04 -2.521488e-04 -1.296053e-03
N -1.599171e+00 8.449459e-01 4.338269e+00 -6.804221e-05 -1.070163e-04 -1.377507e-03
N -1.651934e+00 8.776131e-01 -5.876572e+00 8.460166e-04 -8.323913e-04 -2.342081e-03
N -1.570376e+00 8.638131e-01 -7.055534e-01 -2.718974e-03 -2.032936e-03 -3.845016e-04
N -3.185657e+00 3.588401e+00 4.352708e+00 2.486516e-04 -2.708847e-04 -3.272982e-04
N -3.225227e+00 3.602802e+00 -5.837493e+00 -8.155031e-04 1.565294e-03 2.131500e-04
N -3.190557e+00 3.665121e+00 -7.785608e-01 -6.283680e-04 -6.022286e-04 2.181727e-04
N -5.920027e-02 -1.912159e+00 4.311027e+00 -2.060766e-04 2.814215e-05 -1.050153e-03
N -2.117619e-02 -1.834013e+00 -5.862652e+00 -3.264619e-04 -6.793298e-04 -1.624786e-04
N -2.232824e-02 -1.844815e+00 -7.084310e-01 -1.146233e-04 -5.193551e-04 2.264111e-04
N -2.547559e-02 1.773555e+00 1.789146e+00 -5.730927e-04 -4.120304e-04 1.447870e-03
N -2.193983e-02 1.739827e+00 6.870674e+00 -4.442057e-04 9.173571e-04 -1.112511e-03
N 1.562543e-02 1.823454e+00 -3.276399e+00 -2.094317e-04 5.155966e-04 5.896241e-04
N 3.136190e+00 -3.701775e+00 1.784270e+00 -7.802531e-04 -7.775897e-04 9.452874e-04
N 3.186784e+00 -3.694994e+00 6.865507e+00 1.064557e-03 -9.407812e-04 -2.378813e-03
N 3.147903e+00 -3.717290e+00 -3.268006e+00 -1.488796e-03 7.940683e-04 -4.198977e-04
N 1.559054e+00 -9.543134e-01 1.798429e+00 -1.867371e-03 1.300345e-03 2.918389e-03
N 1.561898e+00 -1.002780e+00 6.924517e+00 1.477945e-03 2.480559e-03 -1.978264e-03
N 1.563244e+00 -8.871357e-01 -3.350646e+00 -9.483504e-04 4.542046e-04 -9.638245e-04
N 3.127009e+00 1.723845e+00 1.765364e+00 8.603588e-04 6.082432e-04 -1.513142e-03
N 3.139555e+00 1.746022e+00 6.889427e+00 -1.522472e-04 -2.213241e-04 -7.885222e-04
N 3.125996e+00 1.754219e+00 -3.279330e+00 3.563354e-04 6.820369e-05 1.249577e-04
N 6.247820e+00 -3.660547e+00 1.778121e+00 6.121923e-04 -1.772435e-03 2.481213e-04
N 6.304056e+00 -3.766431e+00 6.908597e+00 1.748403e-04 -3.212125e-05 -2.027436e-04
N 6.253500e+00 -3.646230e+00 -3.318319e+00 2.246999e-04 -2.000191e-04 -1.385610e-04
N 4.716117e+00 -9.643112e-01 1.844993e+00 1.795969e-03 6.280483e-03 6.540203e-03
N 4.681582e+00 -9.653260e-01 6.909874e+00 3.592551e-04 -1.294797e-03 -1.967534e-03
N 4.755526e+00 -9.043206e-01 -3.328628e+00 1.550853e-03 -6.516020e-04 2.487719e-03
N -3.193963e+00 1.781116e+00 1.874220e+00 1.605013e-03 2.809817e-04 -1.567688e-03
N -3.182763e+00 1.698457e+00 6.844830e+00 1.310714e-04 -2.872359e-04 -9.159234e-04
N -3.228492e+00 1.827573e+00 -3.326081e+00 9.397743e-05 -2.806753e-04 1.581482e-03
N 2.754279e-02 -3.667355e+00 1.779374e+00 5.264952e-04 -1.182056e-03 -6.645945e-04
N -5.875294e-02 -3.690600e+00 6.864029e+00 1.689737e-06 -6.914540e-05 -5.148030e-04
N 1.620001e-02 -3.683686e+00 -3.343278e+00 8.793101e-06 -3.322075e-05 -2.072747e-04
N -1.606079e+00 -9.577686e-01 1.794675e+00 3.706070e-04 8.310364e-04 3.449924e-04
N -1.551762e+00 -9.641721e-01 6.862958e+00 -8.082192e-04 -4.130574e-04 -1.107098e-03
N -1.637622e+00 -9.478638e-01 -3.351962e+00 1.632398e-04 -9.414729e-05 2.811536e-03
