108
Energy=-2679663.410684 Lattice="9.683400 0.000000 0.000000 -4.856864 8.371843 0.000000 -0.008857 -0.007834 15.732065" Stress="0.000009 -0.000002 -0.000003 -0.000002 0.000005 -0.000001 -0.000003 -0.000000 0.000022" Properties=species:S:1:pos:R:3:forces:R:3
Al 1.601985 0.877633 2.456044 0.000241 -0.000022 0.002036
Ga 1.581591 0.884481 7.716013 0.001053 -0.000226 0.000711
Ga 1.576608 0.894479 -2.763344 0.000936 0.000095 -0.000397
Al -0.013061 3.664170 2.472520 0.000553 0.000489 -0.000890
Ga -0.033186 3.670378 7.713387 0.000530 -0.000158 0.000780
Ga -0.045536 3.678103 -2.758904 0.000765 -0.000048 0.001564
Al 3.231424 -1.913821 2.473190 0.000262 -0.000553 -0.000472
Ga 3.208797 -1.906774 7.711381 0.000615 -0.000454 0.000800
Ga 3.203539 -1.886051 -2.760286 0.000859 -0.000848 0.000481
Ga -4.866316 0.869926 2.472898 0.000670 -0.000346 -0.000467
Ga -4.873353 0.886174 7.717213 0.000579 -0.000252 0.000339
Al -4.869824 0.895920 -2.768506 0.000573 0.000678 0.000270
Ga -6.481805 3.657861 2.474349 0.000061 0.000495 -0.000478
Ga -6.490059 3.673757 7.718224 0.000153 -0.000272 0.000137
Ga -6.491052 3.680481 -2.762041 -0.000039 -0.000088 0.000173
Ga -3.242161 -1.918661 2.470976 0.000523 -0.000393 -0.000346
Ga -3.249269 -1.903567 7.720256 0.000275 -0.000527 0.000387
Ga -3.256367 -1.874175 -2.763459 0.000414 -0.001017 0.000132
Ga -1.618510 0.890411 2.470911 0.000697 -0.001482 -0.000241
Ga -1.644794 0.891587 7.717108 0.000861 -0.000676 0.000340
Al -1.657872 0.899911 -2.763305 0.000235 0.000078 0.001175
Ga -3.229668 3.673909 2.471587 0.000506 -0.000161 -0.000440
Ga -3.259695 3.677652 7.721380 0.000387 -0.000648 0.000059
Ga -3.267092 3.676754 -2.759170 0.000695 -0.000242 0.000006
Ga 0.010000 -1.901208 2.473701 0.000416 -0.000803 -0.000077
Ga -0.020263 -1.898913 7.716605 0.000585 -0.000947 0.000118
Ga -0.031105 -1.878416 -2.759558 0.000494 -0.001187 0.000314
Ga -0.013793 1.811352 5.064280 0.000575 0.000783 0.001435
Ga -0.031310 1.818419 -5.375541 -0.000106 0.000912 0.000677
Ga -0.037167 1.823534 -0.138123 -0.002677 0.001665 -0.000254
Ga 3.226970 -3.768949 5.069660 0.000151 0.000792 0.000629
Ga 3.215060 -3.758794 -5.385370 -0.000177 0.000601 0.000315
Ga 3.196428 -3.746219 -0.116842 0.002238 -0.000908 -0.001144
Ga 1.611556 -0.976352 5.068631 -0.000124 0.000973 0.000487
Ga 1.599143 -0.969142 -5.386606 -0.000640 0.000377 0.000213
Ga 1.583181 -0.956500 -0.119488 0.000777 -0.001829 -0.001408
Ga 3.198670 1.806740 5.081157 -0.000519 0.000126 0.000663
Ga 3.203246 1.820141 -5.377720 -0.000338 0.000524 0.000425
Ga 3.183906 1.825016 -0.148598 0.001928 0.000042 -0.000452
Ga 6.439799 -3.772015 5.083855 0.000057 -0.000122 0.000323
Ga 6.438411 -3.757921 -5.385426 0.000065 0.000148 0.000184
Ga 6.417513 -3.748105 -0.131069 0.000581 -0.001051 -0.000993
Ga 4.825695 -0.981545 5.083660 -0.000626 -0.000439 0.000411
Ga 4.822475 -0.961537 -5.377171 -0.000482 -0.000233 0.000435
Ga 4.797615 -0.951173 -0.144184 0.001161 -0.001044 -0.000906
Ga -3.250482 1.813718 5.093336 -0.000529 0.000381 0.000656
Ga -3.256137 1.819947 -5.367949 -0.000430 0.000548 0.000784
Ga -3.277045 1.826598 -0.166889 0.001247 -0.000746 -0.001120
Ga -0.009008 -3.766691 5.094852 -0.000295 -0.000026 0.000238
Ga -0.016043 -3.753435 -5.385526 -0.000307 0.000115 0.000342
Ga -0.036873 -3.743441 -0.139823 0.000998 -0.001011 -0.002184
Ga -1.626044 -0.974933 5.094573 -0.000637 -0.000411 0.000215
Ga -1.631224 -0.957486 -5.376908 -0.000754 -0.000288 0.000671
Ga -1.652405 -0.946871 -0.151081 0.000308 -0.000831 -0.001953
N 1.593746 0.882040 4.387227 0.000465 -0.000127 -0.001072
N 1.584743 0.895568 -6.025229 0.000689 0.000296 -0.000465
N 1.568662 0.896527 -0.783240 0.001050 0.000122 0.000641
N -0.021681 3.671571 4.395437 0.000240 -0.000315 -0.000275
N -0.030210 3.680312 -6.029157 0.000280 -0.000238 -0.000563
N -0.050380 3.691755 -0.771989 0.000259 -0.000709 -0.001389
N 3.219183 -1.907867 4.395771 0.000450 -0.000491 -0.000149
N 3.212394 -1.895217 -6.032063 0.000530 -0.000480 -0.000320
N 3.186784 -1.888435 -0.779254 0.000799 -0.000891 0.000501
N -4.863236 0.882609 4.452644 0.000535 0.000398 -0.000429
N -4.868087 0.896311 -6.029458 0.000521 0.000307 -0.000527
N -4.892330 0.901807 -0.843265 0.001156 -0.000162 0.000937
N -6.478160 3.672864 4.454658 -0.000063 0.000115 -0.000200
N -6.485517 3.683407 -6.026245 -0.000154 -0.000137 -0.000464
N -6.507583 3.693462 -0.779080 0.000650 -0.000180 0.000364
N -3.238239 -1.906109 4.451963 0.000192 -0.000194 -0.000086
N -3.245807 -1.891365 -6.021812 0.000216 -0.000361 -0.000334
N -3.268974 -1.885282 -0.780862 0.000876 -0.000520 0.000736
N -1.638483 0.886147 4.451575 0.000288 -0.000368 -0.000794
N -1.644757 0.900571 -6.029574 0.000366 -0.000245 -0.000681
N -1.657662 0.907811 -0.832432 0.001737 -0.000032 -0.001329
N -3.252394 3.675536 4.452047 -0.000159 -0.000662 -0.000370
N -3.258064 3.684629 -6.021463 -0.000022 -0.000801 -0.000474
N -3.274713 3.700993 -0.775860 0.000528 -0.000680 0.000157
N -0.012194 -1.903054 4.453611 -0.000129 -0.000864 -0.000225
N -0.020501 -1.888752 -6.028400 0.000089 -0.000835 -0.000402
N -0.034434 -1.878296 -0.776586 0.000922 -0.001010 0.000251
N 0.023811 1.831151 1.861909 0.001426 -0.000308 0.001005
N -0.024053 1.810033 7.058874 -0.000653 0.000831 -0.000737
N -0.076464 1.796454 -3.382143 -0.000261 0.000824 -0.000862
N 3.281005 -3.753864 1.879316 -0.003265 0.002116 -0.000060
N 3.215311 -3.770418 7.062795 -0.000387 0.000628 -0.000603
N 3.206171 -3.756491 -3.402939 -0.000531 0.000761 -0.000515
N 1.664548 -0.965273 1.872460 -0.002920 0.002516 0.000744
N 1.600485 -0.977406 7.061464 -0.000799 0.000523 -0.000578
N 1.591035 -0.968088 -3.407449 -0.000706 0.000846 -0.000394
N 3.181918 1.779047 1.840677 -0.002710 0.000989 0.000549
N 3.195482 1.810331 7.070004 -0.000123 0.000423 -0.000555
N 3.234857 1.799481 -3.385734 -0.000135 0.000100 -0.000110
N 6.416819 -3.801710 1.853819 -0.001320 0.001134 0.000948
N 6.436164 -3.768675 7.072904 -0.000012 0.000309 -0.000538
N 6.431368 -3.754571 -3.400488 -0.000289 0.000434 -0.000330
N 4.802405 -1.008953 1.843783 -0.002480 0.001644 0.000832
N 4.822177 -0.978164 7.070272 -0.000434 0.000214 -0.000493
N 4.814882 -0.915397 -3.386392 -0.000703 -0.000032 -0.000677
N -3.239558 1.801419 1.818297 -0.002614 0.001513 0.001291
N -3.256986 1.815066 7.076383 -0.000639 0.000483 -0.000237
N -3.260913 1.778453 -3.365230 -0.000865 -0.000161 -0.000112
N 0.003474 -3.774993 1.834333 -0.002205 0.001149 0.002371
N -0.016301 -3.766217 7.079446 -0.000349 0.000312 0.000037
N -0.022034 -3.751329 -3.400879 -0.000312 0.000378 -0.000225
N -1.612468 -0.982816 1.826131 -0.002533 0.001633 0.002295
N -1.632985 -0.974375 7.077852 -0.000917 0.000254 -0.000203
N -1.638144 -0.912051 -3.384195 -0.000923 0.000010 -0.000586
