108
Energy=-1260622.887659 Lattice="9.491662 0.000000 0.000000 -4.746406 8.217576 0.000000 0.001080 0.004066 15.311730" Stress="-0.000002 -0.000001 0.000000 -0.000001 -0.000005 0.000001 0.000000 0.000001 -0.000001" Properties=species:S:1:pos:R:3:forces:R:3
Al 1.560266 0.877931 2.387418 0.000310 -0.000140 0.000430
Al 1.559441 0.883712 7.500818 -0.000142 0.000037 0.000067
Al 1.562796 0.884014 -2.681766 0.000238 0.000132 -0.000082
Al -0.008379 3.607116 2.427460 0.000014 0.000106 0.000105
Al -0.015032 3.613378 7.495884 -0.000046 -0.000011 -0.000189
Al -0.025861 3.606393 -2.713149 0.000066 -0.000006 -0.000009
Al 3.145590 -1.856250 2.412596 0.000098 0.000135 -0.000064
Al 3.151158 -1.862570 7.507317 -0.000065 -0.000043 -0.000056
Ga 3.154136 -1.867172 -2.704507 -0.000004 0.000038 0.000075
Al -4.775169 0.870532 2.405014 0.000141 0.000094 0.000112
Al -4.772491 0.872826 7.518745 -0.000095 0.000121 -0.000127
Al -4.765299 0.878214 -2.718072 -0.000084 -0.000057 -0.000155
Al -6.357391 3.610251 2.387051 0.000168 -0.000064 0.000108
Al -6.367881 3.605308 7.522368 0.000009 0.000112 0.000083
Ga -6.362006 3.595005 -2.695609 -0.000062 0.000029 0.000047
Al -3.197804 -1.875316 2.439935 -0.000485 0.000145 -0.000177
Ga -3.191126 -1.868713 7.512542 0.000002 -0.000056 0.000033
Al -3.192801 -1.858201 -2.741783 -0.000055 -0.000157 0.000008
Ga -1.601625 0.885382 2.402666 0.000000 -0.000098 0.000076
Al -1.599669 0.881258 7.511196 -0.000125 -0.000156 -0.000232
Al -1.613892 0.882713 -2.703169 -0.000010 0.000035 0.000017
Ga -3.194163 3.609659 2.419198 -0.000115 -0.000117 0.000171
Ga -3.171656 3.609109 7.504878 0.000061 -0.000095 -0.000005
Al -3.174219 3.592258 -2.706747 -0.000126 0.000084 0.000008
Al -0.016107 -1.869162 2.382087 0.000018 -0.000191 -0.000194
Al -0.022264 -1.851014 7.525954 -0.000034 -0.000050 0.000122
Ga -0.028215 -1.852788 -2.685683 0.000005 -0.000150 0.000126
Al -0.026523 1.806046 4.972306 -0.000063 -0.000007 0.000119
Ga -0.026390 1.793688 -5.253856 0.000085 0.000050 0.000190
Al -0.015092 1.785163 -0.166354 -0.000196 -0.000048 -0.000268
Al 3.167163 -3.690842 4.951392 -0.000146 -0.000084 0.000030
Al 3.159474 -3.695510 -5.254958 -0.000234 -0.000074 -0.000108
Ga 3.135286 -3.708693 -0.137491 -0.000092 0.000132 0.000050
Ga 1.569001 -0.952437 4.962117 -0.000198 0.000144 -0.000025
Ga 1.571281 -0.945596 -5.268676 -0.000172 0.000118 0.000158
Al 1.558898 -0.937229 -0.126818 -0.000193 0.000090 -0.000043
Ga 3.144243 1.789031 4.953143 0.000143 -0.000063 -0.000038
Al 3.145662 1.779422 -5.265220 -0.000059 0.000116 0.000078
Al 3.143600 1.775304 -0.136101 -0.000057 0.000245 -0.000020
Al 6.291338 -3.699916 4.947340 0.000078 -0.000167 0.000108
Al 6.294226 -3.691506 -5.256453 -0.000054 -0.000005 0.000193
Ga 6.302539 -3.698475 -0.132868 -0.000040 -0.000074 0.000008
Al 4.722077 -0.952095 4.952049 -0.000025 0.000348 -0.000045
Al 4.729352 -0.946371 -5.257751 0.000007 -0.000007 0.000017
Ga 4.725214 -0.932186 -0.136980 -0.000013 -0.000026 0.000018
Al -3.184924 1.777573 4.975388 -0.000380 -0.000017 -0.000023
Al -3.191335 1.771539 -5.245615 -0.000032 0.000142 -0.000045
Al -3.199491 1.792486 -0.174732 -0.000039 -0.000063 -0.000114
Ga -0.031390 -3.693124 4.970054 -0.000029 -0.000087 0.000111
Ga -0.029677 -3.699478 -5.259880 0.000063 -0.000105 0.000074
Al -0.013994 -3.704122 -0.142280 0.000001 -0.000042 -0.000008
Ga -1.610418 -0.944694 4.957337 -0.000049 -0.000022 0.000135
Al -1.621203 -0.942838 -5.252206 0.000026 0.000003 0.000045
Ga -1.606619 -0.944621 -0.139791 -0.000081 0.000009 -0.000061
N 1.512640 0.900622 4.309078 0.000194 -0.000053 -0.000377
N 1.594765 0.903792 -5.910580 0.000083 -0.000075 -0.000019
N 1.565111 0.873534 -0.752513 0.000126 0.000086 0.000136
N -0.020590 3.605417 4.347780 -0.000069 0.000002 -0.000127
N -0.021396 3.657771 -5.897856 -0.000051 0.000008 0.000138
N -0.021283 3.570884 -0.805454 -0.000010 -0.000058 -0.000046
N 3.181033 -1.884302 4.328618 0.000023 -0.000176 -0.000023
N 3.189744 -1.893797 -5.882650 0.000069 0.000047 -0.000006
N 3.103579 -1.843376 -0.734898 -0.000051 -0.000038 -0.000013
N -4.724753 0.855239 4.323570 0.000156 -0.000066 -0.000218
N -4.766723 0.873243 -5.867634 0.000076 0.000029 -0.000017
N -4.776120 0.920857 -0.797119 0.000169 0.000016 0.000114
N -6.389545 3.635155 4.298968 -0.000041 0.000102 -0.000120
N -6.401160 3.587017 -5.873348 0.000069 -0.000088 -0.000045
N -6.315291 3.583510 -0.716487 0.000085 -0.000091 -0.000005
N -3.229058 -1.890000 4.353143 -0.000027 0.000049 0.000001
N -3.188739 -1.868819 -5.815366 -0.000065 0.000170 0.000046
N -3.189901 -1.867154 -0.830050 -0.000005 0.000054 -0.000086
N -1.602123 0.931511 4.377834 0.000216 0.000000 -0.000065
N -1.647071 0.855777 -5.882186 -0.000017 -0.000126 0.000130
N -1.608111 0.921485 -0.779573 0.000211 0.000072 -0.000008
N -3.147092 3.587411 4.400475 0.000080 0.000045 -0.000039
N -3.138903 3.583185 -5.832556 0.000118 -0.000014 0.000039
N -3.224134 3.591077 -0.785375 0.000065 -0.000117 -0.000081
N -0.017600 -1.865961 4.285797 0.000085 -0.000045 -0.000064
N -0.067315 -1.837399 -5.883193 0.000048 -0.000136 -0.000032
N 0.018593 -1.885689 -0.709370 0.000078 -0.000123 0.000100
N 0.018911 1.815198 1.755495 -0.000194 0.000275 -0.000085
N -0.022493 1.790853 6.899467 -0.000133 -0.000019 -0.000031
N -0.020039 1.780776 -3.266746 -0.000064 0.000058 0.000060
N 3.186421 -3.675200 1.840079 -0.000046 0.000157 -0.000107
N 3.190841 -3.662427 6.868592 0.000028 0.000070 -0.000046
N 3.144188 -3.739990 -3.334993 0.000038 -0.000052 0.000064
N 1.565131 -0.948619 1.796483 -0.000051 0.000144 0.000031
N 1.562414 -0.952312 6.950321 0.000090 -0.000042 -0.000046
N 1.560830 -0.901171 -3.302294 -0.000077 0.000113 -0.000001
N 3.143800 1.779268 1.792047 0.000028 0.000026 0.000074
N 3.146156 1.789638 6.937403 0.000298 -0.000319 -0.000054
N 3.136464 1.734663 -3.343491 -0.000021 -0.000111 0.000030
N 6.297938 -3.687809 1.847653 -0.000065 0.000113 -0.000103
N 6.309269 -3.739036 6.867260 -0.000076 0.000019 0.000003
N 6.263056 -3.675646 -3.339209 0.000011 0.000085 -0.000005
N 4.728625 -0.950622 1.845564 0.000226 -0.000377 0.000159
N 4.683000 -0.922347 6.874679 -0.000019 -0.000002 -0.000028
N 4.758304 -0.922078 -3.343544 0.000024 0.000014 -0.000023
N -3.231912 1.763345 1.738448 -0.000065 -0.000024 0.000045
N -3.191284 1.734209 6.886160 0.000056 -0.000102 0.000083
N -3.187677 1.782063 -3.320124 0.000054 -0.000008 -0.000024
N -0.058235 -3.675913 1.773359 0.000003 0.000083 -0.000025
N -0.068229 -3.665627 6.949344 0.000006 -0.000003 -0.000016
N 0.014861 -3.714737 -3.293142 0.000146 -0.000059 0.000019
N -1.617704 -0.997896 1.836703 0.000114 0.000061 0.000015
N -1.564432 -0.927307 6.928868 0.000092 0.000153 -0.000042
N -1.640687 -0.921587 -3.331805 0.000049 0.000091 -0.000093
