108
Energy=-1.397949e+06 Lattice="9.509557e+00 0.000000e+00 0.000000e+00 -4.755936e+00 8.233894e+00 0.000000e+00 -3.353565e-03 1.925854e-03 1.535073e+01" Stress="-2.518281e-04 -9.324571e-05 -7.720742e-06 -1.033748e-04 -5.343732e-04 5.684724e-05 -1.082016e-05 4.666623e-05 -4.115470e-04" Properties=species:S:1:pos:R:3:forces:R:3 Config_type=AlGaN_super3_21_2_36.xyz
Al 1.571834e+00 8.701384e-01 2.406686e+00 1.958818e-04 -3.755810e-05 -7.250365e-05
Al 1.574097e+00 8.801517e-01 7.528305e+00 -2.323703e-05 5.925880e-05 2.043010e-04
Al 1.566990e+00 8.664258e-01 -2.713220e+00 8.726511e-05 1.838946e-05 2.286322e-04
Al -8.285870e-03 3.628104e+00 2.429151e+00 -2.307902e-05 -1.078785e-04 1.188644e-04
Al -1.761617e-02 3.623676e+00 7.514889e+00 -8.621558e-05 1.223905e-04 -6.218677e-05
Al -2.417118e-02 3.612304e+00 -2.708010e+00 1.137030e-05 1.756236e-05 5.533618e-05
Al 3.143251e+00 -1.855279e+00 2.401348e+00 -1.004265e-04 5.961677e-06 -3.980302e-05
Al 3.140349e+00 -1.869624e+00 7.549693e+00 7.346280e-05 1.970742e-05 -6.907603e-05
Ga 3.131214e+00 -1.863319e+00 -2.716700e+00 -8.438328e-06 3.535595e-05 -1.726917e-05
Al -4.793769e+00 8.710778e-01 2.405917e+00 6.897300e-05 3.745217e-05 1.905530e-04
Al -4.795693e+00 8.844750e-01 7.539443e+00 -2.455517e-05 -1.914571e-04 1.561553e-06
Al -4.780458e+00 8.878552e-01 -2.712275e+00 -2.770191e-05 4.348126e-05 -7.346823e-05
Ga -6.376665e+00 3.615302e+00 2.402544e+00 2.308298e-05 -1.025092e-05 7.733180e-05
Al -6.365874e+00 3.611896e+00 7.523932e+00 6.252794e-05 7.699694e-05 -8.602077e-05
Ga -6.363043e+00 3.606497e+00 -2.697731e+00 7.491744e-05 -7.960552e-06 5.199040e-05
Al -3.195876e+00 -1.877074e+00 2.395754e+00 -2.028899e-05 -6.293315e-05 7.437020e-05
Al -3.197158e+00 -1.881225e+00 7.519072e+00 -5.175352e-05 -1.355259e-05 -7.393891e-06
Ga -3.184159e+00 -1.867133e+00 -2.681594e+00 -4.285878e-05 -1.669348e-06 4.173599e-05
Ga -1.605797e+00 8.687421e-01 2.401486e+00 2.886310e-05 2.649911e-05 4.939596e-05
Ga -1.601752e+00 8.817258e-01 7.532198e+00 3.146837e-05 -3.468723e-05 2.350322e-05
Al -1.609624e+00 8.763795e-01 -2.697609e+00 -4.094877e-04 1.570379e-04 -2.283373e-04
Ga -3.197481e+00 3.625046e+00 2.392154e+00 9.868629e-06 -2.527042e-05 5.761183e-05
Al -3.198944e+00 3.628135e+00 7.566446e+00 7.631051e-05 -1.270209e-05 -7.213489e-06
Ga -3.191866e+00 3.611263e+00 -2.720820e+00 2.934449e-05 -1.164018e-04 -2.161755e-05
Al -1.791431e-02 -1.860414e+00 2.379623e+00 5.352733e-06 8.049453e-05 6.620897e-05
Al -1.372155e-02 -1.876027e+00 7.552840e+00 -1.335349e-04 -2.251418e-04 -1.302580e-05
Al -1.240782e-02 -1.855479e+00 -2.702645e+00 6.317782e-05 -8.851540e-05 1.051732e-04
Al 4.610178e-03 1.802225e+00 4.967701e+00 -1.336860e-04 1.020290e-04 8.153764e-05
Ga -1.221693e-02 1.792534e+00 -5.245480e+00 -8.083407e-06 6.688955e-05 -5.878497e-05
Ga -1.017366e-02 1.787332e+00 -1.637921e-01 2.665116e-05 1.251926e-05 1.711125e-05
Ga 3.161660e+00 -3.702061e+00 4.984971e+00 -4.138108e-05 7.017148e-05 5.890377e-05
Al 3.138447e+00 -3.705156e+00 -5.285878e+00 -5.662730e-06 -1.843487e-05 -1.683935e-04
Ga 3.151352e+00 -3.701655e+00 -1.345808e-01 -7.344320e-05 -5.936820e-05 1.434067e-05
Ga 1.558162e+00 -9.372967e-01 4.976157e+00 -3.866931e-05 1.636552e-05 1.369980e-05
Al 1.561888e+00 -9.577531e-01 -5.277879e+00 -4.117337e-05 1.205281e-05 4.884353e-05
Al 1.548031e+00 -9.468660e-01 -1.423721e-01 -8.399495e-05 1.683212e-04 9.166806e-07
Al 3.131318e+00 1.791216e+00 4.979759e+00 4.911754e-05 1.404437e-04 -4.799754e-05
Al 3.155079e+00 1.786480e+00 -5.277189e+00 1.067186e-05 -7.773814e-05 -9.395874e-05
Al 3.151796e+00 1.785651e+00 -1.525078e-01 -7.071252e-05 -5.331241e-05 1.272633e-05
Al 6.314227e+00 -3.710119e+00 4.980867e+00 1.231377e-05 -7.380458e-05 -3.919300e-05
Ga 6.321305e+00 -3.713319e+00 -5.284695e+00 2.435575e-05 1.494819e-05 2.065741e-05
Al 6.323058e+00 -3.703369e+00 -1.343765e-01 1.030408e-04 -2.878746e-05 5.156270e-05
Ga 4.730060e+00 -9.510816e-01 4.969816e+00 -6.358746e-05 -2.653320e-05 3.339986e-05
Ga 4.722950e+00 -9.422296e-01 -5.277032e+00 -2.196783e-05 3.570917e-05 -2.040084e-05
Ga 4.735541e+00 -9.336807e-01 -1.296656e-01 -2.560585e-05 -3.440290e-05 -5.216281e-05
Ga -3.207546e+00 1.791588e+00 4.989726e+00 -4.129788e-05 -1.732126e-05 3.097204e-05
Al -3.207403e+00 1.801446e+00 -5.265070e+00 -1.977072e-04 5.858152e-05 3.841726e-05
Al -3.208968e+00 1.782136e+00 -1.608606e-01 2.035273e-05 4.661660e-05 -1.133533e-04
Ga -3.719416e-02 -3.696917e+00 4.997409e+00 4.258455e-05 1.374495e-05 5.902727e-05
Al -1.278736e-02 -3.702622e+00 -5.283642e+00 9.823982e-05 6.998204e-05 1.593251e-05
Al -3.250612e-02 -3.687203e+00 -1.570757e-01 -1.033750e-05 4.450518e-05 -1.085003e-06
Ga -1.605054e+00 -9.675559e-01 4.971070e+00 -1.317226e-05 -1.375031e-05 2.489830e-05
Ga -1.590883e+00 -9.608008e-01 -5.253036e+00 -3.407130e-05 -9.050495e-05 2.323430e-05
Al -1.595562e+00 -9.611666e-01 -1.522253e-01 -1.205068e-05 -5.691391e-05 -7.464207e-05
N 1.566635e+00 9.218613e-01 4.330373e+00 1.577838e-04 -6.600208e-05 -6.040357e-06
N 1.604109e+00 8.547533e-01 -5.899535e+00 1.014761e-04 9.805846e-05 -1.247169e-04
N 1.610758e+00 8.473996e-01 -7.920402e-01 1.065839e-05 -9.171475e-05 -1.613745e-04
N 2.043896e-02 3.600555e+00 4.349262e+00 2.184915e-05 9.294678e-07 -1.182975e-04
N -6.170015e-02 3.633792e+00 -5.928611e+00 -4.022080e-05 2.752332e-05 1.074501e-04
N 1.754852e-02 3.648814e+00 -8.034828e-01 3.861079e-05 1.508298e-06 -8.713599e-06
N 3.139756e+00 -1.866649e+00 4.309143e+00 2.453677e-05 7.873720e-05 -1.187920e-04
N 3.105543e+00 -1.893516e+00 -5.886283e+00 -1.110412e-05 -1.124435e-05 2.940400e-05
N 3.103174e+00 -1.842825e+00 -7.428523e-01 9.490276e-05 1.566955e-05 2.180446e-05
N -4.825874e+00 9.053943e-01 4.322270e+00 -4.122631e-06 -2.750949e-05 -2.460512e-04
N -4.779466e+00 9.262266e-01 -5.901391e+00 5.179638e-06 4.899146e-05 -4.514948e-05
N -4.782271e+00 9.261461e-01 -7.967117e-01 2.604026e-05 -9.747303e-06 2.684012e-05
N -6.404905e+00 3.595870e+00 4.391427e+00 -8.607826e-05 -2.332605e-05 2.131560e-05
N -6.320217e+00 3.589808e+00 -5.904218e+00 -8.639541e-05 -1.395882e-04 5.962454e-05
N -6.364451e+00 3.616097e+00 -7.082699e-01 -4.993343e-05 9.613566e-05 -4.587223e-05
N -3.193258e+00 -1.921420e+00 4.319095e+00 -7.599295e-06 7.168900e-06 -5.384970e-05
N -3.187589e+00 -1.870349e+00 -5.929791e+00 -6.889583e-06 6.056255e-05 -2.807808e-05
N -3.153471e+00 -1.893322e+00 -7.105116e-01 8.438748e-05 1.950816e-05 3.025981e-05
N -1.567990e+00 9.019042e-01 4.383103e+00 5.309093e-05 3.855791e-06 3.286478e-06
N -1.643282e+00 9.016028e-01 -5.850927e+00 1.275497e-04 -3.889859e-05 -5.139226e-05
N -1.651542e+00 8.533623e-01 -7.733941e-01 2.952477e-07 -3.499670e-05 1.403182e-04
N -3.198816e+00 3.624716e+00 4.355096e+00 2.617631e-05 -1.113695e-04 -1.161300e-04
N -3.193285e+00 3.616825e+00 -5.863354e+00 3.367803e-05 -8.635840e-06 1.123108e-05
N -3.234019e+00 3.598955e+00 -7.359719e-01 2.427612e-05 -5.335343e-05 -2.726076e-05
N -1.814076e-02 -1.871394e+00 4.289124e+00 -4.338034e-05 -7.501174e-05 -6.210703e-05
N 2.078936e-02 -1.892741e+00 -5.891958e+00 3.849696e-05 -9.283104e-06 -1.662059e-05
N -1.551073e-02 -1.865226e+00 -7.726409e-01 -9.511119e-06 -5.328336e-05 3.777200e-05
N 2.256079e-02 1.817789e+00 1.819681e+00 -1.410531e-04 1.935933e-04 4.846466e-06
N 2.694363e-02 1.813424e+00 6.891038e+00 7.791094e-06 -5.321566e-05 -8.920711e-05
N -1.961871e-02 1.787778e+00 -3.255713e+00 5.550111e-05 -6.690751e-06 -2.296892e-05
N 3.196891e+00 -3.676719e+00 1.837620e+00 6.450065e-05 2.804918e-05 1.429645e-05
N 3.142656e+00 -3.697219e+00 6.971749e+00 4.541991e-05 -1.021627e-04 4.502685e-05
N 3.190547e+00 -3.724393e+00 -3.368389e+00 6.022854e-05 3.718857e-05 8.980020e-05
N 1.559107e+00 -9.467129e-01 1.785229e+00 1.276858e-05 1.488747e-05 3.165577e-05
N 1.559697e+00 -9.525526e-01 6.963024e+00 1.430577e-04 4.559793e-06 7.650593e-06
N 1.516851e+00 -9.286715e-01 -3.357836e+00 7.924596e-05 5.090603e-05 -7.463026e-05
N 3.144803e+00 1.739106e+00 1.764854e+00 -3.428872e-05 -5.472812e-05 1.105624e-05
N 3.144746e+00 1.787075e+00 6.905432e+00 -6.395049e-05 -2.992081e-05 4.737326e-05
N 3.145732e+00 1.742960e+00 -3.353668e+00 -1.270548e-04 -8.239642e-05 9.420739e-05
N 6.272028e+00 -3.680175e+00 1.776987e+00 -2.845301e-05 -3.811787e-06 -9.047876e-05
N 6.317837e+00 -3.700313e+00 6.908911e+00 2.486832e-05 -6.655858e-06 8.689185e-06
N 6.280664e+00 -3.723268e+00 -3.316499e+00 -4.145257e-05 -1.551280e-05 -9.973491e-05
N 4.732719e+00 -9.488536e-01 1.852559e+00 -9.676596e-06 5.097899e-05 2.848619e-05
N 4.726441e+00 -9.514835e-01 6.965374e+00 -4.265655e-05 1.251389e-04 1.010204e-04
N 4.735361e+00 -9.077989e-01 -3.304069e+00 -6.943523e-08 -2.887701e-05 4.377019e-05
N -3.238600e+00 1.760567e+00 1.752535e+00 -1.137415e-04 -8.516615e-05 7.101507e-06
N -3.240008e+00 1.818394e+00 6.960711e+00 4.595192e-05 7.368310e-05 1.833464e-05
N -3.195272e+00 1.740331e+00 -3.345004e+00 3.323802e-04 -1.352302e-04 1.907500e-04
N -2.964665e-02 -3.650412e+00 1.750448e+00 -1.602337e-05 -1.486946e-05 -7.690630e-05
N -2.130602e-02 -3.697091e+00 6.981150e+00 -5.953212e-05 1.543337e-04 2.764184e-05
N -2.709662e-02 -3.648091e+00 -3.360446e+00 -2.820081e-05 -5.458208e-05 -5.929992e-05
N -1.607583e+00 -1.000118e+00 1.769048e+00 3.777078e-05 2.112471e-05 -2.326547e-05
N -1.601567e+00 -1.006197e+00 6.948254e+00 -4.106257e-07 1.319141e-05 1.549720e-05
N -1.563794e+00 -9.331204e-01 -3.277548e+00 -8.768737e-05 1.148831e-04 -3.443675e-05
