108
Energy=-1.214847e+06 Lattice="9.487219e+00 0.000000e+00 0.000000e+00 -4.746013e+00 8.213789e+00 0.000000e+00 5.836415e-04 7.392720e-03 1.529743e+01" Stress="-5.132260e-04 -9.113226e-05 3.393949e-05 -9.634428e-05 -8.533792e-04 3.116647e-04 3.641670e-05 3.246871e-04 3.161965e-04" Properties=species:S:1:pos:R:3:forces:R:3 Config_type=AlGaN_super3_17_0_20.xyz
Al 1.556696e+00 8.884149e-01 2.438903e+00 4.759388e-04 -1.151380e-03 -1.211972e-04
Al 1.563237e+00 8.947129e-01 7.498799e+00 -1.665015e-04 -8.838964e-05 1.367182e-04
Al 1.568214e+00 8.832327e-01 -2.736354e+00 -2.057826e-04 -6.877677e-05 -8.918732e-05
Al -2.272366e-02 3.607113e+00 2.417382e+00 3.025792e-04 9.061136e-04 -2.290990e-04
Al -2.909678e-02 3.603303e+00 7.505521e+00 -1.074505e-04 -6.778080e-05 1.545118e-04
Al -6.914623e-03 3.610155e+00 -2.722489e+00 -1.824945e-04 -1.199835e-05 2.573003e-04
Al 3.151000e+00 -1.861105e+00 2.409047e+00 3.944093e-05 -1.094111e-03 8.939341e-05
Al 3.144658e+00 -1.866128e+00 7.501887e+00 1.089517e-04 1.903685e-04 -7.809049e-05
Ga 3.152897e+00 -1.871249e+00 -2.703557e+00 -1.856749e-04 2.221173e-04 2.649492e-04
Al -4.783635e+00 8.708657e-01 2.439518e+00 7.020593e-04 -9.091820e-05 6.766900e-05
Al -4.775809e+00 8.888558e-01 7.481848e+00 1.783844e-04 1.087631e-04 2.611314e-04
Al -4.776953e+00 8.768602e-01 -2.719526e+00 5.047956e-05 -1.407393e-04 -2.194429e-04
Al -6.357273e+00 3.604357e+00 2.423874e+00 1.384134e-03 7.480421e-05 -7.614882e-04
Al -6.344832e+00 3.595708e+00 7.511247e+00 1.379737e-05 1.715912e-04 2.082047e-04
Al -6.366650e+00 3.599552e+00 -2.732229e+00 2.170709e-04 6.770229e-05 2.203492e-04
Ga -3.187259e+00 -1.857172e+00 2.401886e+00 4.416331e-05 1.427990e-05 4.541700e-05
Ga -3.192941e+00 -1.860657e+00 7.483330e+00 -2.518021e-04 4.550447e-05 3.548521e-04
Al -3.187812e+00 -1.884270e+00 -2.682578e+00 -1.517215e-04 1.910511e-04 5.739777e-04
Al -1.595043e+00 8.739646e-01 2.432835e+00 -4.343916e-04 -3.786447e-04 1.010493e-04
Al -1.603153e+00 9.005526e-01 7.484825e+00 5.176447e-05 1.283093e-04 8.721187e-04
Ga -1.608858e+00 8.817820e-01 -2.710642e+00 7.113678e-04 -3.924838e-04 -1.424578e-04
Ga -3.177324e+00 3.619254e+00 2.442422e+00 -1.564782e-04 4.520700e-04 -1.847792e-04
Al -3.183248e+00 3.608799e+00 7.483760e+00 -9.307239e-05 -9.172220e-05 -2.470795e-05
Ga -3.185492e+00 3.602189e+00 -2.719525e+00 1.649794e-04 -2.017123e-04 -6.405193e-05
Al -2.919279e-02 -1.854348e+00 2.428190e+00 -1.260712e-04 -1.095895e-04 9.496712e-05
Ga -1.479809e-02 -1.863074e+00 7.501125e+00 3.033327e-04 -3.183861e-04 1.228083e-04
Ga -2.246785e-02 -1.868084e+00 -2.711852e+00 4.123719e-04 -3.473922e-05 2.166702e-05
Al -3.330039e-02 1.792091e+00 4.960400e+00 -1.452221e-04 6.575968e-05 -3.741354e-05
Al -1.692890e-02 1.793140e+00 -5.272933e+00 4.873380e-04 1.379385e-04 6.446536e-04
Ga -2.021072e-02 1.797079e+00 -1.337980e-01 -4.076041e-04 1.283303e-04 -2.062898e-04
Al 3.146305e+00 -3.689953e+00 4.972718e+00 2.403959e-04 -5.172114e-05 2.326854e-04
Al 3.141087e+00 -3.706646e+00 -5.286401e+00 -7.912938e-05 3.647844e-04 1.481733e-04
Al 3.165639e+00 -3.689351e+00 -1.350505e-01 2.500966e-04 9.721688e-05 5.045534e-04
Ga 1.567745e+00 -9.484668e-01 4.948317e+00 -2.475539e-04 2.986178e-04 -2.098339e-04
Al 1.570015e+00 -9.490244e-01 -5.273885e+00 -1.755674e-05 2.652722e-04 1.008620e-04
Ga 1.567935e+00 -9.559997e-01 -1.136755e-01 -8.272359e-04 4.377409e-04 1.161332e-03
Al 3.143138e+00 1.792782e+00 4.966003e+00 2.789622e-04 9.388233e-05 -2.896331e-04
Al 3.134789e+00 1.788560e+00 -5.265925e+00 1.407831e-04 -1.888556e-04 2.116199e-04
Ga 3.138713e+00 1.785600e+00 -1.447550e-01 -1.744872e-04 -1.526706e-04 3.145019e-04
Ga 6.302763e+00 -3.699951e+00 4.956033e+00 -7.271417e-05 -1.637234e-04 5.461876e-04
Al 6.301988e+00 -3.715116e+00 -5.251815e+00 -5.331679e-05 3.221373e-04 -2.595493e-05
Al 6.294679e+00 -3.684863e+00 -1.545668e-01 2.173411e-04 -3.153208e-04 3.269918e-05
Al 4.712874e+00 -9.380121e-01 4.961610e+00 -2.505658e-04 -5.858829e-05 -5.530177e-06
Ga 4.716322e+00 -9.492746e-01 -5.253233e+00 -3.057562e-04 1.551928e-04 7.093883e-04
Al 4.731662e+00 -9.566696e-01 -1.492731e-01 -2.866553e-04 -9.807210e-06 -2.947255e-04
Al -3.188545e+00 1.782371e+00 4.964122e+00 1.879879e-04 -3.415899e-04 1.533937e-05
Al -3.192566e+00 1.796975e+00 -5.288911e+00 1.607214e-04 3.192736e-05 2.109359e-04
Ga -3.193361e+00 1.771671e+00 -1.203043e-01 -2.130737e-05 2.654612e-04 1.424741e-04
Al -2.741179e-02 -3.695395e+00 4.960984e+00 6.103670e-05 5.152403e-05 4.428015e-04
Al -2.000706e-02 -3.712221e+00 -5.269608e+00 1.510426e-04 -2.159517e-04 3.273749e-04
Ga -3.699447e-02 -3.688490e+00 -1.323847e-01 1.338604e-04 1.945146e-04 -3.291528e-04
Al -1.601814e+00 -9.316089e-01 4.952447e+00 -3.522986e-04 2.362451e-04 8.512217e-05
Ga -1.599524e+00 -9.485729e-01 -5.253514e+00 -2.900964e-04 7.282701e-05 3.260257e-04
Al -1.614933e+00 -9.577859e-01 -1.336010e-01 -8.375312e-05 -6.249609e-05 1.823869e-04
N 1.556218e+00 9.314980e-01 4.348132e+00 1.805020e-04 3.410274e-04 7.567337e-05
N 1.558074e+00 8.757144e-01 -5.874304e+00 3.273096e-04 7.615666e-05 -1.778298e-04
N 1.555636e+00 8.682770e-01 -8.198641e-01 3.095959e-04 -1.294973e-04 -4.984518e-04
N -6.798407e-02 3.591993e+00 4.330110e+00 -4.548591e-04 -1.498943e-04 2.622021e-04
N -2.070539e-02 3.605698e+00 -5.874441e+00 -2.146054e-05 4.024952e-05 -1.612844e-04
N -2.198660e-02 3.654900e+00 -7.926972e-01 -1.878224e-04 2.424714e-04 -3.987966e-04
N 3.187776e+00 -1.893549e+00 4.326021e+00 4.493918e-04 6.787835e-05 9.525054e-06
N 3.107662e+00 -1.893315e+00 -5.884577e+00 -3.324030e-04 -2.427568e-04 -1.780176e-04
N 3.179474e+00 -1.891912e+00 -7.230893e-01 1.479885e-04 2.267966e-04 5.684937e-04
N -4.773485e+00 8.757733e-01 4.361539e+00 2.030662e-04 1.043431e-04 -5.524631e-05
N -4.773763e+00 9.177777e-01 -5.898783e+00 2.857039e-04 7.164138e-06 -5.058971e-04
N -4.770301e+00 8.310803e-01 -8.052659e-01 3.674562e-04 -1.305497e-04 2.396949e-04
N -6.309804e+00 3.589298e+00 4.329478e+00 1.281781e-04 -4.947922e-04 5.674512e-04
N -6.350333e+00 3.603685e+00 -5.864245e+00 -2.597385e-04 2.264342e-04 -1.309599e-04
N -6.391600e+00 3.630207e+00 -8.116658e-01 -6.152079e-04 3.797865e-04 1.316729e-04
N -3.188133e+00 -1.814212e+00 4.382574e+00 1.904106e-04 3.094030e-04 -4.243892e-05
N -3.185223e+00 -1.917816e+00 -5.854539e+00 1.534684e-04 -2.781148e-04 -1.092319e-04
N -3.182767e+00 -1.869245e+00 -7.447744e-01 -3.488881e-06 9.345467e-05 5.212497e-04
N -1.605992e+00 8.814368e-01 4.353403e+00 3.401118e-04 -2.486973e-04 -3.117356e-05
N -1.601028e+00 9.226758e-01 -5.890100e+00 -6.302730e-04 -1.935733e-04 -1.145981e-03
N -1.606108e+00 8.333738e-01 -7.412916e-01 6.053526e-04 -3.997413e-04 2.057320e-04
N -3.181696e+00 3.616682e+00 4.421669e+00 -1.090750e-04 1.505703e-04 -1.015946e-04
N -3.187339e+00 3.610222e+00 -5.887693e+00 1.302763e-04 -1.487159e-04 -2.377196e-04
N -3.144097e+00 3.633556e+00 -7.369628e-01 2.257887e-04 -1.629222e-04 2.094157e-04
N -6.683564e-02 -1.885253e+00 4.344181e+00 2.262398e-05 -3.503397e-04 -5.890125e-05
N 1.950562e-02 -1.894689e+00 -5.827822e+00 -1.438047e-05 7.621326e-05 -3.487036e-04
N -5.622677e-02 -1.840025e+00 -7.406288e-01 -9.201997e-06 3.548597e-04 2.835537e-04
N -2.297557e-02 1.789697e+00 1.852375e+00 5.488020e-04 -6.809334e-04 -1.923986e-04
N -2.071691e-02 1.791737e+00 6.885789e+00 -1.145133e-04 2.538791e-04 -2.712052e-04
N 1.708023e-02 1.808459e+00 -3.348521e+00 9.370356e-05 1.105702e-04 -2.359575e-04
N 3.187760e+00 -3.670172e+00 1.784020e+00 -2.181443e-04 5.865843e-04 -6.865510e-04
N 3.147416e+00 -3.686240e+00 6.897003e+00 1.674577e-04 8.414061e-05 -1.421597e-04
N 3.184484e+00 -3.719716e+00 -3.372595e+00 1.557467e-04 -1.125730e-04 -6.933107e-05
N 1.559513e+00 -9.483064e-01 1.881554e+00 1.053323e-04 1.712722e-03 -1.215356e-03
N 1.605225e+00 -9.201440e-01 6.920268e+00 -1.606782e-04 1.461120e-04 1.550375e-04
N 1.569617e+00 -9.122140e-01 -3.360486e+00 -4.254628e-04 7.379269e-04 -2.141171e-04
N 3.139039e+00 1.787045e+00 1.846172e+00 -6.738707e-04 -2.965319e-04 -6.970895e-04
N 3.136353e+00 1.793816e+00 6.887225e+00 -2.201188e-05 -1.245458e-04 -5.685245e-04
N 3.140797e+00 1.783175e+00 -3.337817e+00 7.870134e-05 -1.857694e-04 -1.058186e-04
N 6.305814e+00 -3.739239e+00 1.778543e+00 -1.225287e-03 -1.055401e-04 -7.313679e-04
N 6.305241e+00 -3.743872e+00 6.923713e+00 -8.707922e-05 -3.115139e-04 -9.146334e-05
N 6.300943e+00 -3.691584e+00 -3.323336e+00 2.583811e-04 2.351653e-04 -2.448787e-04
N 4.680363e+00 -9.171007e-01 1.773260e+00 1.910536e-04 2.414472e-04 -3.684754e-04
N 4.674779e+00 -9.219071e-01 6.873720e+00 -3.901928e-04 1.884954e-04 -3.078059e-04
N 4.767684e+00 -9.323226e-01 -3.278902e+00 5.307567e-05 -1.710329e-04 -1.305631e-04
N -3.192941e+00 1.740430e+00 1.858119e+00 1.831637e-04 -7.750885e-04 4.928281e-04
N -3.188385e+00 1.787210e+00 6.885356e+00 1.850372e-04 -7.930621e-05 3.792212e-05
N -3.229857e+00 1.759670e+00 -3.374004e+00 -1.847668e-04 1.143090e-04 -2.963909e-04
N -6.211428e-02 -3.664906e+00 1.841012e+00 -8.166985e-04 -7.141140e-04 1.057956e-03
N -2.872392e-02 -3.733366e+00 6.877798e+00 -1.029641e-04 -5.853084e-04 -3.400932e-04
N -6.222176e-02 -3.721764e+00 -3.357628e+00 -4.151781e-04 -5.458722e-06 -2.122538e-04
N -1.562684e+00 -9.216344e-01 1.786911e+00 3.001576e-05 4.089910e-05 -5.171380e-04
N -1.598885e+00 -8.943657e-01 6.858661e+00 1.255386e-04 4.217895e-06 3.039025e-06
N -1.648902e+00 -9.763685e-01 -3.294693e+00 -5.621627e-04 -6.591730e-05 1.265531e-04
