108
Energy=-1535275.845405 Lattice="9.524884 0.000000 0.000000 -4.763264 8.248627 0.000000 0.000188 -0.001412 15.388081" Stress="-0.000002 -0.000001 0.000000 -0.000000 -0.000003 -0.000000 0.000000 -0.000000 -0.000004" Properties=species:S:1:pos:R:3:forces:R:3
Al 1.558788 0.872884 2.430135 -0.000018 -0.000062 0.000075
Al 1.563606 0.869991 7.550899 0.000015 0.000028 0.000001
Al 1.566165 0.874405 -2.729258 0.000029 0.000025 0.000040
Al -0.026538 3.625611 2.412399 0.000037 0.000194 0.000421
Al -0.026113 3.627423 7.555635 -0.000039 0.000052 0.000032
Ga -0.013550 3.623551 -2.719804 0.000045 0.000001 -0.000018
Al 3.145920 -1.878965 2.449047 -0.000153 0.000021 -0.000054
Ga 3.156690 -1.869019 7.529090 -0.000036 -0.000048 0.000069
Al 3.150114 -1.863241 -2.731865 -0.000030 0.000026 0.000059
Ga -4.789923 0.875000 2.428354 0.000069 0.000069 -0.000019
Al -4.772270 0.871999 7.542591 -0.000027 -0.000048 0.000041
Ga -4.792033 0.876264 -2.719235 0.000081 0.000010 -0.000006
Al -6.373780 3.628915 2.404873 -0.000048 -0.000033 0.000012
Ga -6.376797 3.626410 7.565567 -0.000042 0.000032 0.000042
Al -6.367129 3.633958 -2.721099 -0.000080 0.000097 0.000124
Ga -3.199497 -1.879118 2.397334 0.000026 0.000012 0.000062
Al -3.218700 -1.874132 7.552794 0.000006 -0.000053 -0.000000
Ga -3.211069 -1.883907 -2.689893 -0.000020 -0.000006 0.000073
Al -1.601610 0.881039 2.429464 0.000036 -0.000100 0.000061
Ga -1.620894 0.897987 7.552973 0.000124 -0.000059 0.000008
Ga -1.604067 0.892387 -2.725137 0.000108 -0.000050 -0.000017
Al -3.191373 3.636087 2.426890 -0.000222 -0.000302 0.000141
Al -3.193112 3.613166 7.537935 0.000048 -0.000023 0.000033
Al -3.213122 3.634037 -2.715440 -0.000029 -0.000049 0.000044
Al -0.014101 -1.874972 2.399105 -0.000002 0.000434 0.000100
Ga -0.005397 -1.872496 7.562010 0.000045 -0.000059 0.000067
Ga -0.003031 -1.888985 -2.704672 0.000101 -0.000127 0.000058
Ga -0.025535 1.798758 4.973927 -0.000025 0.000049 0.000008
Al -0.013318 1.794847 -5.295226 -0.000040 0.000071 0.000082
Ga -0.017426 1.788777 -0.116548 -0.000039 -0.000010 0.000021
Al 3.148776 -3.705892 4.972191 0.000156 -0.000166 0.000320
Ga 3.143305 -3.710237 -5.281824 -0.000007 0.000004 -0.000038
Ga 3.149761 -3.688517 -0.140720 -0.000008 0.000060 -0.000024
Al 1.574775 -0.960972 4.956012 -0.000232 0.000238 -0.000095
Al 1.569941 -0.948733 -5.264682 -0.000021 0.000003 0.000041
Ga 1.575902 -0.961133 -0.132657 -0.000065 0.000063 0.000075
Ga 3.155323 1.777053 4.995645 -0.000049 0.000015 0.000017
Ga 3.148518 1.787577 -5.282033 0.000018 0.000024 -0.000013
Ga 3.145837 1.809079 -0.151873 0.000027 0.000022 0.000002
Ga 6.308438 -3.700759 4.982864 0.000077 0.000016 0.000071
Al 6.323305 -3.700097 -5.285804 -0.000040 0.000020 0.000055
Al 6.343949 -3.699410 -0.135606 0.000103 0.000001 0.000009
Al 4.731195 -0.956677 4.993737 0.000100 -0.000161 0.000108
Al 4.742599 -0.956269 -5.294793 -0.000127 -0.000080 0.000005
Al 4.737783 -0.971176 -0.139796 -0.000021 0.000034 0.000031
Al -3.198208 1.799591 4.978357 0.000081 0.000139 -0.000164
Al -3.206684 1.804456 -5.285960 0.000249 0.000009 -0.000262
Ga -3.197279 1.797435 -0.132395 -0.000002 -0.000014 0.000060
Ga -0.002807 -3.706081 4.962134 0.000013 0.000023 0.000015
Al -0.013219 -3.715369 -5.268675 0.000006 0.000040 0.000013
Al -0.034101 -3.706035 -0.133469 -0.000146 -0.000108 -0.000362
Ga -1.612239 -0.951677 4.981376 -0.000033 -0.000042 0.000015
Ga -1.619138 -0.962243 -5.286541 -0.000035 0.000054 -0.000013
Al -1.612801 -0.965149 -0.129108 -0.000042 -0.000008 0.000043
N 1.566485 0.832835 4.333283 0.000042 -0.000188 0.000034
N 1.523135 0.844191 -5.919847 -0.000009 0.000002 -0.000018
N 1.558677 0.873762 -0.820359 0.000048 -0.000029 -0.000051
N -0.064747 3.653156 4.322450 -0.000216 0.000048 0.000081
N 0.013664 3.606774 -5.910196 0.000035 -0.000042 0.000023
N 0.020340 3.648713 -0.741275 0.000002 -0.000016 -0.000019
N 3.158044 -1.875159 4.380660 -0.000045 -0.000000 0.000007
N 3.148126 -1.825000 -5.877486 0.000004 0.000020 -0.000058
N 3.193704 -1.845380 -0.816928 0.000021 -0.000020 -0.000050
N -4.744217 0.848783 4.404081 0.000046 0.000251 0.000043
N -4.740590 0.852395 -5.917388 0.000016 0.000014 0.000003
N -4.783447 0.827810 -0.742935 0.000019 -0.000037 0.000008
N -6.377058 3.625144 4.317253 -0.000033 0.000022 -0.000073
N -6.371414 3.676577 -5.853324 -0.000032 0.000011 -0.000014
N -6.370972 3.682583 -0.790092 0.000211 0.000094 -0.000018
N -3.241918 -1.847233 4.366751 -0.000087 -0.000004 -0.000033
N -3.245726 -1.897394 -5.920255 0.000026 -0.000049 0.000024
N -3.199067 -1.873408 -0.696173 0.000005 -0.000012 0.000003
N -1.652147 0.899254 4.341820 0.000030 -0.000002 -0.000025
N -1.615010 0.930476 -5.858941 -0.000124 0.000010 0.000167
N -1.607783 0.833394 -0.749038 0.000093 -0.000075 -0.000026
N -3.154650 3.602735 4.342183 0.000112 -0.000076 -0.000213
N -3.240442 3.602198 -5.929697 0.000001 0.000115 -0.000139
N -3.243543 3.653434 -0.795824 -0.000113 0.000096 0.000060
N 0.013879 -1.849398 4.316506 0.000192 0.000002 -0.000106
N 0.027531 -1.898590 -5.847296 0.000094 -0.000106 -0.000036
N -0.057246 -1.897593 -0.717431 0.000059 -0.000233 0.000079
N -0.020094 1.791270 1.865381 -0.000018 -0.000124 -0.000162
N 0.021304 1.819396 6.956676 -0.000018 0.000067 -0.000006
N 0.022770 1.772854 -3.381674 -0.000017 0.000031 -0.000113
N 3.149884 -3.697047 1.849520 -0.000246 -0.000210 -0.000060
N 3.152949 -3.757068 6.908742 0.000010 -0.000035 -0.000209
N 3.108872 -3.685576 -3.297562 0.000006 0.000050 0.000001
N 1.576350 -0.956721 1.853062 -0.000108 -0.000219 0.000042
N 1.563494 -0.908979 6.871377 -0.000052 0.000011 -0.000054
N 1.605948 -0.930825 -3.345999 -0.000027 0.000053 -0.000048
N 3.107226 1.815515 1.829728 -0.000039 0.000007 -0.000079
N 3.151920 1.745333 6.980181 0.000029 -0.000006 -0.000004
N 3.111394 1.819556 -3.298810 -0.000026 -0.000016 -0.000007
N 6.329253 -3.758428 1.779546 0.000153 -0.000009 -0.000158
N 6.283959 -3.684265 6.961140 0.000034 0.000008 -0.000052
N 6.367998 -3.722260 -3.370799 0.000090 -0.000058 -0.000071
N 4.684367 -0.984078 1.768606 0.000119 0.000082 -0.000020
N 4.780158 -0.932651 6.909447 0.000022 0.000072 0.000006
N 4.706705 -0.980480 -3.379878 -0.000021 0.000004 -0.000037
N -3.156843 1.820644 1.840415 0.000141 0.000281 0.000013
N -3.239759 1.819482 6.899193 -0.000061 0.000001 0.000019
N -3.202176 1.846752 -3.369151 -0.000049 0.000018 0.000089
N -0.019168 -3.712468 1.800041 -0.000013 0.000048 -0.000115
N 0.018448 -3.728539 6.932623 -0.000001 -0.000020 -0.000012
N -0.019118 -3.754532 -3.351862 -0.000059 -0.000045 0.000053
N -1.567514 -0.928131 1.790145 0.000099 -0.000137 -0.000081
N -1.647921 -0.980320 6.962262 -0.000081 0.000022 -0.000012
N -1.612747 -0.963606 -3.322282 -0.000183 0.000048 -0.000042
