108
Energy=-2.771215e+06 Lattice="9.686971e+00 0.000000e+00 0.000000e+00 -4.843620e+00 8.387949e+00 0.000000e+00 -6.713800e-04 -4.863022e-04 1.573302e+01" Stress="-1.809035e-06 -1.476458e-07 4.191325e-06 2.863939e-07 -3.092227e-06 5.334974e-07 -1.988363e-06 1.401560e-06 -5.041562e-06" Properties=species:S:1:pos:R:3:forces:R:3 Config_type=AlGaN_super3_51_0_15.xyz
Al 1.590180e+00 8.934480e-01 2.478184e+00 9.189753e-07 4.613966e-06 2.704824e-06
Ga 1.586558e+00 8.992015e-01 7.719798e+00 -9.344781e-06 4.216977e-06 -8.298785e-06
Ga 1.590169e+00 8.925915e-01 -2.772094e+00 -7.733628e-06 8.388230e-06 -2.664842e-07
Ga -1.876583e-02 3.679687e+00 2.476791e+00 -8.232072e-06 -5.967874e-06 -9.609441e-06
Al -1.746774e-02 3.689693e+00 7.728057e+00 -2.711202e-06 1.797413e-06 -9.884239e-06
Ga -1.613338e-02 3.690142e+00 -2.779621e+00 4.913987e-06 2.193570e-06 -5.955821e-06
Ga 3.202384e+00 -1.898761e+00 2.479065e+00 -2.018951e-05 7.020753e-06 -1.576114e-05
Ga 3.208449e+00 -1.910713e+00 7.717077e+00 -3.418292e-06 -1.205327e-06 -9.751677e-06
Ga 3.204582e+00 -1.904687e+00 -2.769984e+00 4.186212e-07 5.713352e-06 -2.563723e-06
Ga -4.876406e+00 8.915464e-01 2.474229e+00 4.277714e-06 9.036989e-06 -1.590017e-05
Ga -4.867873e+00 8.927174e-01 7.719003e+00 -1.366759e-05 7.615362e-06 -3.608825e-06
Ga -4.868027e+00 8.928572e-01 -2.765743e+00 -3.421659e-07 8.844101e-07 -3.659202e-06
Ga -6.487099e+00 3.680550e+00 2.478943e+00 6.927077e-06 5.341547e-06 -1.475502e-05
Ga -6.496346e+00 3.689191e+00 7.728776e+00 -2.129190e-06 3.434111e-06 -6.777629e-06
Ga -6.490580e+00 3.690712e+00 -2.782243e+00 -3.806743e-06 7.737231e-06 -1.202874e-05
Ga -3.251997e+00 -1.905627e+00 2.480469e+00 -9.672787e-06 -8.099585e-06 -3.815423e-06
Ga -3.257084e+00 -1.917847e+00 7.732883e+00 -1.222286e-05 2.880937e-06 -1.473133e-05
Ga -3.252688e+00 -1.914265e+00 -2.787336e+00 2.914822e-06 2.799210e-06 5.644467e-07
Ga -1.625919e+00 8.924086e-01 2.479568e+00 -1.174859e-05 4.116208e-06 -1.970323e-06
Ga -1.631878e+00 9.004420e-01 7.717462e+00 -1.658287e-05 -8.351642e-08 -2.019686e-05
Ga -1.635015e+00 8.936738e-01 -2.770152e+00 -5.817361e-06 1.150909e-05 -7.150427e-06
Ga -3.250771e+00 3.689426e+00 2.481224e+00 4.309968e-06 5.570341e-06 -4.344977e-06
Ga -3.243268e+00 3.687554e+00 7.722082e+00 -3.103645e-07 2.241756e-06 5.539038e-06
Ga -3.250771e+00 3.688340e+00 -2.773633e+00 -3.468098e-07 6.591720e-06 -1.689937e-05
Ga -1.954070e-02 -1.896977e+00 2.475606e+00 -1.280405e-05 -7.192524e-06 6.751023e-06
Ga -2.197740e-02 -1.902910e+00 7.719442e+00 -6.014996e-06 6.131297e-07 -8.988720e-06
Ga -2.152822e-02 -1.903294e+00 -2.765936e+00 -5.106789e-06 8.813924e-06 -1.043677e-06
Ga -1.574957e-02 1.827392e+00 5.102059e+00 8.412726e-06 -3.480324e-06 -7.179610e-06
Ga -1.808394e-02 1.839890e+00 -5.405052e+00 7.097067e-06 -4.641464e-06 -1.520482e-05
Ga -1.772787e-02 1.822368e+00 -1.369317e-01 5.257023e-06 -1.462570e-05 -1.196120e-05
Ga 3.212304e+00 -3.771975e+00 5.113940e+00 1.014300e-05 -4.008340e-06 -1.448623e-05
Ga 3.223043e+00 -3.770955e+00 -5.404938e+00 1.212082e-05 -2.675732e-06 -8.097421e-06
Ga 3.206885e+00 -3.768757e+00 -1.484275e-01 8.883674e-06 -3.535709e-06 -1.092157e-05
Ga 1.590715e+00 -9.640117e-01 5.085329e+00 2.305814e-05 -4.785032e-06 -4.410503e-06
Ga 1.591475e+00 -9.720925e-01 -5.391392e+00 7.408027e-06 -9.225753e-06 -3.142579e-06
Ga 1.591994e+00 -9.661433e-01 -1.325817e-01 8.824739e-06 8.856653e-07 -1.194406e-05
Ga 3.198698e+00 1.821282e+00 5.090284e+00 1.179850e-05 -3.063100e-06 -1.265723e-05
Ga 3.202027e+00 1.832049e+00 -5.392856e+00 8.665708e-06 -3.061381e-07 -4.535061e-06
Ga 3.199335e+00 1.823005e+00 -1.371692e-01 1.399847e-05 1.148186e-05 -1.593495e-05
Ga 6.429823e+00 -3.770481e+00 5.111233e+00 1.005143e-05 -7.840384e-06 -1.170564e-05
Al 6.427571e+00 -3.773083e+00 -5.406614e+00 5.569273e-06 4.071241e-06 -1.333308e-05
Ga 6.435031e+00 -3.767567e+00 -1.462827e-01 2.501216e-06 1.366928e-06 2.132748e-06
Ga 4.821940e+00 -9.725718e-01 5.102383e+00 1.106583e-05 5.600668e-06 -1.527582e-05
Ga 4.824164e+00 -9.785406e-01 -5.393243e+00 9.032174e-06 -7.216277e-06 -8.271993e-06
Ga 4.821957e+00 -9.746214e-01 -1.485733e-01 1.979914e-06 -4.964067e-07 -2.295587e-07
Ga -3.252600e+00 1.823783e+00 5.099125e+00 4.206847e-06 -3.333056e-07 -1.791062e-05
Ga -3.251946e+00 1.823392e+00 -5.390565e+00 1.116266e-05 -1.367568e-05 -4.755774e-06
Ga -3.250981e+00 1.825018e+00 -1.441163e-01 1.927139e-05 7.823336e-06 -1.317713e-05
Ga -2.465002e-02 -3.768435e+00 5.102517e+00 1.155768e-05 -1.491437e-05 -6.229556e-06
Ga -3.314914e-02 -3.767640e+00 -5.392829e+00 9.495389e-06 1.305941e-06 -1.129553e-05
Ga -2.434930e-02 -3.769689e+00 -1.483641e-01 8.468101e-06 1.141360e-06 -3.397528e-06
Ga -1.639017e+00 -9.732464e-01 5.102633e+00 1.676001e-05 -8.956020e-06 -1.645350e-05
Ga -1.641253e+00 -9.792450e-01 -5.393419e+00 1.559392e-05 -5.572956e-06 -1.594488e-06
Ga -1.639797e+00 -9.729827e-01 -1.483548e-01 5.223966e-06 -1.484424e-06 3.512438e-06
N 1.588364e+00 8.949400e-01 4.404428e+00 -1.170280e-05 6.189224e-07 6.171435e-06
N 1.592005e+00 8.918898e-01 -6.034181e+00 -4.547472e-06 -1.864037e-06 1.271791e-05
N 1.590749e+00 8.918459e-01 -7.911471e-01 -2.975554e-06 4.428662e-06 1.148807e-05
N -2.299059e-02 3.688166e+00 4.455765e+00 3.948027e-07 -3.310714e-07 6.421292e-06
N 2.090579e-02 3.712668e+00 -6.074545e+00 -1.166495e-05 -1.320800e-06 1.417982e-05
N -2.035669e-02 3.686698e+00 -7.924945e-01 -5.094500e-06 6.046606e-07 1.245927e-05
N 3.206897e+00 -1.907680e+00 4.464088e+00 -4.403156e-06 -2.131593e-07 1.400738e-05
N 3.205358e+00 -1.902906e+00 -6.035447e+00 -7.813652e-06 1.954828e-06 7.368189e-06
N 3.202822e+00 -1.902986e+00 -7.845001e-01 -6.345599e-06 1.364334e-06 3.923059e-06
N -4.867623e+00 8.915724e-01 4.457096e+00 -1.020257e-05 -1.078414e-06 1.236788e-05
N -4.867644e+00 8.924908e-01 -6.032295e+00 -6.300401e-06 2.980661e-06 4.297719e-06
N -4.868929e+00 8.939872e-01 -7.807798e-01 -1.277304e-05 -7.046512e-06 1.094136e-05
N -6.484169e+00 3.689917e+00 4.462391e+00 -1.330834e-05 9.752001e-07 1.486119e-05
N -6.525144e+00 3.712711e+00 -6.015106e+00 -5.807281e-06 -5.333796e-06 1.212943e-05
N -6.484663e+00 3.687002e+00 -7.935580e-01 -1.260369e-05 -2.718703e-06 3.032066e-07
N -3.251964e+00 -1.907011e+00 4.463151e+00 -1.291089e-05 1.964520e-06 1.684282e-05
N -3.252220e+00 -1.954234e+00 -6.011647e+00 -5.509434e-06 2.015431e-06 9.170804e-06
N -3.252003e+00 -1.908009e+00 -8.005561e-01 -9.462363e-06 -3.571264e-06 -1.331149e-05
N -1.633741e+00 8.929844e-01 4.464596e+00 -9.955473e-06 2.289466e-06 1.663758e-05
N -1.635920e+00 8.923028e-01 -6.033121e+00 -1.004061e-05 7.889121e-06 5.106606e-06
N -1.634479e+00 8.942247e-01 -7.845033e-01 -1.511820e-05 -1.561232e-06 4.738027e-06
N -3.249620e+00 3.690838e+00 4.465475e+00 -1.078896e-05 2.387311e-06 9.291949e-06
N -3.251851e+00 3.689478e+00 -6.029345e+00 -1.097264e-05 3.757179e-06 9.262103e-06
N -3.251665e+00 3.688214e+00 -7.900764e-01 -1.444611e-05 -1.901523e-06 5.764911e-06
N -2.453506e-02 -1.904536e+00 4.458371e+00 -1.068801e-05 7.197798e-06 2.742953e-06
N -2.213937e-02 -1.903294e+00 -6.033953e+00 -9.188546e-06 -1.091448e-06 5.617410e-06
N -2.006928e-02 -1.902434e+00 -7.811304e-01 -1.502965e-05 2.167772e-06 5.936347e-06
N 2.107175e-02 1.799080e+00 1.853267e+00 1.414699e-06 7.552675e-07 1.390608e-06
N -2.023833e-02 1.875869e+00 7.096361e+00 9.645793e-06 -5.948235e-07 1.483693e-05
N -2.285215e-02 1.826981e+00 -3.420517e+00 7.297061e-06 -5.837580e-06 7.910216e-06
N 3.207492e+00 -3.768401e+00 1.835010e+00 1.473230e-05 2.927722e-06 1.207430e-05
N 3.252011e+00 -3.795353e+00 7.104986e+00 -1.327524e-07 4.391592e-06 -2.874710e-07
N 3.209842e+00 -3.769308e+00 -3.418897e+00 3.057219e-06 -8.447643e-07 1.270197e-05
N 1.592235e+00 -9.213977e-01 1.858594e+00 3.877391e-06 -9.280424e-06 -1.268437e-06
N 1.591754e+00 -9.682492e-01 7.070350e+00 -2.626773e-07 4.596292e-06 6.456356e-06
N 1.591073e+00 -9.723203e-01 -3.410741e+00 1.111461e-05 -4.364671e-06 3.031178e-06
N 3.160882e+00 1.799595e+00 1.854464e+00 -1.041802e-05 -1.373319e-05 1.606171e-05
N 3.202974e+00 1.824767e+00 7.075247e+00 1.597120e-07 -1.590816e-07 4.382787e-06
N 3.205740e+00 1.823412e+00 -3.411628e+00 5.827269e-06 -3.057277e-06 9.790395e-06
N 6.434725e+00 -3.768070e+00 1.833866e+00 6.191915e-06 7.480288e-06 8.884292e-06
N 6.390602e+00 -3.793130e+00 7.097325e+00 8.193773e-06 5.406006e-06 9.375346e-06
N 6.431091e+00 -3.771721e+00 -3.478462e+00 -7.878970e-07 -4.173180e-06 7.063371e-06
N 4.821174e+00 -9.741702e-01 1.834328e+00 1.255922e-05 -6.825848e-06 1.468281e-05
N 4.823113e+00 -9.734476e-01 7.084248e+00 3.820445e-06 -2.054472e-06 1.114515e-05
N 4.819059e+00 -9.712837e-01 -3.410377e+00 8.448476e-07 4.724598e-06 1.817903e-06
N -3.250690e+00 1.823234e+00 1.840036e+00 -1.962147e-06 -4.440162e-06 9.485318e-06
N -3.252482e+00 1.823850e+00 7.079012e+00 3.399836e-06 2.072976e-06 6.204225e-06
N -3.252353e+00 1.822563e+00 -3.408635e+00 -2.965650e-06 1.766217e-06 1.243529e-05
N -2.460388e-02 -3.769263e+00 1.836713e+00 5.849749e-06 -1.363343e-06 2.563432e-06
N -2.590924e-02 -3.771306e+00 7.086601e+00 -4.298103e-07 1.068181e-06 1.915355e-06
N -2.441749e-02 -3.767614e+00 -3.409906e+00 1.294733e-06 -6.095679e-06 1.429753e-05
N -1.639270e+00 -9.721672e-01 1.834676e+00 1.064325e-05 5.118318e-06 -3.213356e-06
N -1.641944e+00 -9.734163e-01 7.086442e+00 1.058493e-05 -1.853378e-07 1.412730e-05
N -1.636332e+00 -9.720017e-01 -3.410408e+00 5.623075e-06 -5.282818e-06 1.561183e-06
