108
Energy=-573990.744145 Lattice="9.415180 0.000000 0.000000 -4.710602 8.152569 0.000000 0.010650 -0.007798 15.082735" Stress="0.000003 -0.000000 0.000002 -0.000000 0.000001 -0.000002 0.000002 -0.000002 -0.000014" Properties=species:S:1:pos:R:3:forces:R:3
Al 1.543091 0.867845 2.369949 0.000165 -0.000849 -0.000401
Al 1.551277 0.864642 7.385338 0.000127 -0.000508 -0.000051
Al 1.549180 0.875724 -2.664759 0.000147 -0.000725 -0.000120
Al -0.024248 3.584037 2.366931 -0.000021 0.000064 -0.000550
Al -0.017802 3.579060 7.389582 -0.000433 -0.000153 -0.000141
Al -0.022577 3.583904 -2.666266 -0.000047 0.000003 -0.000068
Al 3.118495 -1.853602 2.372293 0.000043 -0.000092 -0.000726
Al 3.126996 -1.859143 7.385260 -0.000186 0.000039 -0.000062
Al 3.128567 -1.851405 -2.664101 -0.000234 0.000217 0.000009
Al -4.736084 0.867869 2.366243 0.000224 -0.000433 -0.000365
Al -4.734235 0.861322 7.379046 0.000320 -0.000348 -0.000147
Al -4.739600 0.865257 -2.651712 0.000260 -0.000489 -0.000583
Al -6.306264 3.584239 2.371949 0.000244 0.000348 -0.000703
Al -6.297189 3.578380 7.385998 0.000023 0.000038 -0.000310
Al -6.304770 3.578948 -2.664895 -0.000083 0.000271 -0.000443
Al -3.172735 -1.857170 2.386312 0.002491 0.001028 -0.001837
Al -3.154517 -1.856683 7.385578 0.000039 0.000457 -0.000302
Al -3.172040 -1.852554 -2.675321 0.000220 0.000254 -0.000008
Al -1.599598 0.877347 2.381443 0.001028 0.000131 -0.000509
Al -1.587419 0.863862 7.375044 0.000818 -0.000500 -0.000306
Al -1.593660 0.877671 -2.660489 0.000798 -0.000133 -0.000272
Al -3.166611 3.584194 2.370782 0.000606 0.000375 -0.000590
Al -3.157973 3.586979 7.376365 0.000479 -0.000023 -0.000320
Al -3.160665 3.586993 -2.650352 0.000312 0.000195 -0.000370
Al -0.015189 -1.853574 2.378783 0.000587 -0.000110 -0.000143
Al -0.017523 -1.854369 7.386907 0.000430 0.000187 -0.000310
Ga -0.019167 -1.851274 -2.669172 0.000897 0.000287 -0.000278
Al -0.019039 1.772307 4.878358 -0.000493 -0.000164 -0.000332
Al -0.017284 1.774654 -5.182817 -0.000628 -0.000317 -0.000467
Al -0.010960 1.782465 -0.142527 -0.001964 -0.000978 -0.001366
Al 3.123283 -3.667289 4.874870 -0.000494 -0.000087 -0.000197
Al 3.120140 -3.654907 -5.179945 -0.000540 0.000014 -0.000215
Al 3.123682 -3.661886 -0.145057 -0.000585 0.000225 -0.000838
Al 1.554888 -0.949605 4.879649 -0.000928 0.000424 -0.000078
Al 1.554430 -0.941870 -5.193776 -0.000857 0.000527 -0.000416
Al 1.568745 -0.941525 -0.137062 -0.000593 0.000228 0.000487
Al 3.114379 1.771273 4.874455 0.000055 -0.000132 -0.000180
Al 3.101450 1.776329 -5.179623 0.000124 -0.000319 0.000050
Al 3.117120 1.775285 -0.144391 -0.000549 -0.000191 -0.000942
Al 6.255859 -3.667457 4.883219 0.000270 -0.000551 -0.000141
Al 6.253260 -3.661625 -5.184459 0.000200 -0.000030 -0.000387
Al 6.257444 -3.667998 -0.148353 -0.000502 0.000199 -0.000594
Al 4.688347 -0.949382 4.879276 -0.000583 0.000765 -0.000152
Al 4.679566 -0.950366 -5.183152 -0.000218 0.000437 -0.000094
Al 4.683339 -0.947189 -0.143728 -0.000557 0.000186 -0.000564
Al -3.165535 1.772888 4.880790 0.000017 0.000060 -0.000493
Ga -3.169999 1.778483 -5.177292 0.000088 -0.000113 -0.000274
Al -3.166076 1.783656 -0.143997 0.001229 -0.000974 -0.002058
Al -0.022147 -3.664817 4.878355 0.000264 0.000101 -0.000581
Al -0.030051 -3.658503 -5.192290 0.000278 0.000101 -0.000261
Al -0.015852 -3.671051 -0.136135 -0.000277 -0.001529 0.001998
Al -1.590077 -0.949060 4.873746 0.000367 0.000606 0.000096
Al -1.594404 -0.946182 -5.190336 -0.000092 0.000631 -0.000560
Ga -1.594673 -0.944440 -0.125800 -0.000170 0.001426 -0.002797
N 1.546717 0.864742 4.282367 0.000056 -0.000648 0.000487
N 1.542362 0.872460 -5.783053 0.000193 -0.000575 0.000057
N 1.549158 0.868005 -0.743521 0.000307 -0.000280 0.000003
N -0.019138 3.581526 4.279451 -0.000330 -0.000015 0.000408
N -0.026503 3.586036 -5.776075 -0.000269 -0.000029 0.000257
N -0.018117 3.586383 -0.746615 -0.000464 -0.000387 -0.000020
N 3.122031 -1.855652 4.283734 -0.000245 0.000138 0.000347
N 3.118806 -1.852975 -5.783508 -0.000093 0.000032 0.000012
N 3.122752 -1.851632 -0.745157 -0.000164 -0.000041 -0.000157
N -4.732189 0.864855 4.280812 0.000314 -0.000469 0.000587
N -4.779327 0.846769 -5.795120 -0.000168 -0.000556 -0.000030
N -4.732278 0.865654 -0.735143 0.000032 -0.000132 0.000301
N -6.301448 3.582252 4.283174 -0.000345 0.000191 0.000624
N -6.305938 3.584129 -5.782184 -0.000315 0.000120 0.000159
N -6.295934 3.586442 -0.745969 -0.000310 -0.000124 0.000474
N -3.162925 -1.859055 4.293337 0.000359 0.000607 -0.000090
N -3.164133 -1.850518 -5.780817 -0.000201 0.000159 0.000177
N -3.195436 -1.873572 -0.764331 -0.001086 -0.000421 -0.000085
N -1.595882 0.871958 4.292698 0.000706 -0.000659 0.000292
N -1.560604 0.851914 -5.800260 0.001442 -0.000671 0.000305
N -1.585952 0.911380 -0.756819 -0.000517 0.001907 0.001628
N -3.162696 3.583227 4.283441 0.000424 -0.000024 0.000931
N -3.164684 3.635520 -5.800658 0.000577 0.000443 -0.000034
N -3.161122 3.592190 -0.736648 0.000445 -0.000317 0.000268
N -0.017160 -1.854069 4.290007 0.000450 0.000279 0.000326
N -0.025895 -1.847291 -5.777018 0.000716 0.000169 0.000194
N 0.021022 -1.874300 -0.702499 0.001308 0.000816 -0.000434
N -0.025827 1.773406 1.772725 0.000079 -0.000190 0.000939
N -0.015039 1.770915 6.789224 -0.000553 -0.000039 0.000153
N -0.021645 1.773603 -3.265230 -0.000259 0.000034 0.000128
N 3.116457 -3.663747 1.771395 0.000034 -0.000176 0.001060
N 3.127642 -3.668501 6.786307 -0.000331 0.000124 0.000235
N 3.117687 -3.663169 -3.258913 -0.000282 0.000024 0.000113
N 1.554757 -0.946625 1.780517 -0.000828 0.001021 -0.000070
N 1.557518 -0.951437 6.795640 -0.000786 0.000479 0.000336
N 1.594979 -0.920749 -3.283358 -0.000331 0.000795 -0.000071
N 3.109146 1.774992 1.771419 0.000547 -0.000145 0.000686
N 3.116672 1.770921 6.785637 -0.000069 -0.000199 0.000144
N 3.113870 1.775216 -3.260419 0.000118 -0.000309 0.000227
N 6.253111 -3.660508 1.768902 0.000453 -0.000275 0.000850
N 6.259358 -3.668237 6.795491 0.000140 0.000014 0.000370
N 6.255882 -3.663298 -3.266830 0.000148 -0.000304 0.000118
N 4.684217 -0.947136 1.773548 0.000698 0.000462 0.000642
N 4.692631 -0.951354 6.789411 -0.000212 0.000255 0.000252
N 4.685357 -0.942087 -3.266067 -0.000340 0.000566 0.000016
N -3.168407 1.775401 1.771382 0.000769 -0.000573 0.000907
N -3.162150 1.770700 6.793955 -0.000026 -0.000067 0.000308
N -3.167819 1.776369 -3.206358 -0.000220 -0.000082 0.000806
N -0.026417 -3.665129 1.784184 0.000400 -0.000011 -0.001015
N -0.020811 -3.665364 6.790032 0.000079 0.000106 0.000339
N -0.022333 -3.709888 -3.284020 0.000134 -0.000818 0.000124
N -1.589194 -0.940553 1.830455 -0.003152 -0.001211 0.006258
N -1.586033 -0.951633 6.788124 -0.000345 0.000384 0.000353
N -1.631527 -0.919324 -3.279095 -0.000800 0.000544 0.000068
