108
Energy=-1.901480e+06 Lattice="9.574026e+00 0.000000e+00 0.000000e+00 -4.787285e+00 8.290249e+00 0.000000e+00 -6.736041e-04 -9.950822e-04 1.549364e+01" Stress="9.052817e-06 -1.242842e-05 5.667022e-06 -1.732500e-06 2.045292e-05 2.022621e-05 2.005851e-05 1.885851e-05 1.165812e-05" Properties=species:S:1:pos:R:3:forces:R:3 Config_type=AlGaN_super3_32_2_21.xyz
Al 1.575135e+00 8.872269e-01 2.392296e+00 4.211966e-05 -1.372821e-04 1.712339e-05
Al 1.557737e+00 8.762083e-01 7.619295e+00 1.114072e-05 1.414904e-06 2.487635e-05
Al 1.569702e+00 8.703245e-01 -2.715202e+00 2.406313e-06 4.958943e-06 2.065808e-05
Al -2.151471e-02 3.636494e+00 2.424619e+00 1.005103e-05 2.600120e-05 3.856427e-05
Al -3.519335e-02 3.633356e+00 7.600884e+00 -5.279881e-06 4.314415e-06 2.778914e-05
Ga -1.808236e-02 3.640778e+00 -2.722388e+00 9.191137e-07 5.510212e-06 3.261975e-05
Al 3.167359e+00 -1.881250e+00 2.421464e+00 -4.927888e-06 -1.504819e-05 3.282937e-05
Ga 3.147149e+00 -1.894961e+00 7.603700e+00 -9.160277e-07 -2.358060e-06 3.083217e-05
Al 3.163604e+00 -1.862882e+00 -2.725086e+00 4.817205e-06 5.257135e-06 3.681635e-05
Ga -4.829568e+00 8.780704e-01 2.391384e+00 -6.343698e-06 -1.712253e-06 2.687131e-05
Ga -4.817228e+00 8.883337e-01 7.619390e+00 1.275273e-05 6.106335e-06 3.610163e-05
Ga -4.811459e+00 8.752684e-01 -2.702175e+00 2.205880e-05 8.172822e-06 2.824152e-05
Al -6.414391e+00 3.629697e+00 2.437582e+00 1.376165e-05 7.915252e-06 2.990324e-05
Ga -6.403942e+00 3.643835e+00 7.589039e+00 -1.979748e-06 1.520738e-06 2.996932e-05
Ga -6.414276e+00 3.643316e+00 -2.720032e+00 8.704858e-07 1.143979e-05 2.065606e-05
Ga -3.231024e+00 -1.894594e+00 2.423501e+00 -1.243854e-05 -2.014466e-06 4.407129e-05
Ga -3.209500e+00 -1.890122e+00 7.611973e+00 -1.086525e-05 -1.114415e-06 3.349982e-05
Al -3.219702e+00 -1.876950e+00 -2.723131e+00 5.479501e-06 3.428515e-06 1.974062e-05
Ga -1.601870e+00 8.957673e-01 2.419588e+00 -1.552781e-05 -2.788365e-05 6.063729e-05
Ga -1.603440e+00 8.879376e-01 7.636176e+00 2.064269e-05 -4.626162e-06 3.482295e-05
Ga -1.609505e+00 8.867058e-01 -2.745905e+00 1.764408e-05 -1.019123e-05 2.497936e-05
Ga -3.209132e+00 3.653844e+00 2.450105e+00 -1.557785e-06 7.513665e-06 2.907573e-05
Al -3.206470e+00 3.656115e+00 7.580743e+00 5.946459e-06 -1.897064e-06 1.655099e-05
Ga -3.207446e+00 3.645549e+00 -2.718322e+00 3.696835e-06 -7.928300e-06 3.135548e-05
Ga -5.050321e-03 -1.882807e+00 2.430287e+00 -1.504014e-05 -4.167700e-06 3.735938e-05
Al -1.103661e-02 -1.880328e+00 7.613954e+00 1.199388e-05 -1.564968e-06 3.252298e-05
Ga -7.021488e-03 -1.861913e+00 -2.735822e+00 4.323058e-06 -8.747008e-06 3.065938e-05
Ga -1.505740e-02 1.812094e+00 5.020166e+00 1.725736e-06 1.560400e-05 3.901179e-05
Al -1.768741e-02 1.788998e+00 -5.318998e+00 2.110871e-06 3.150535e-06 2.056414e-05
Al -1.039289e-02 1.792982e+00 -1.444315e-01 -4.445677e-06 -1.038369e-06 1.008212e-05
Al 3.167298e+00 -3.725565e+00 5.009318e+00 -4.897717e-06 1.282415e-05 1.013604e-05
Ga 3.163357e+00 -3.733954e+00 -5.313684e+00 -3.474706e-06 1.167392e-06 3.787114e-05
Ga 3.171274e+00 -3.711804e+00 -1.411295e-01 -1.264348e-05 6.999848e-06 5.237336e-05
Ga 1.573702e+00 -9.665368e-01 5.013809e+00 -7.990175e-07 9.876730e-06 1.421152e-05
Al 1.558783e+00 -9.428566e-01 -5.309577e+00 -4.902834e-06 -2.332841e-07 3.282991e-05
Al 1.593822e+00 -9.397778e-01 -1.507837e-01 -1.397143e-05 1.864691e-06 2.860744e-05
Ga 3.158787e+00 1.801901e+00 5.002876e+00 3.306495e-06 -5.018258e-06 1.560311e-05
Ga 3.151504e+00 1.784862e+00 -5.298006e+00 4.827585e-06 -2.381837e-06 3.602434e-05
Al 3.155992e+00 1.788205e+00 -1.445447e-01 -6.694966e-07 -6.059783e-06 2.144020e-05
Ga 6.350548e+00 -3.737591e+00 5.001988e+00 -1.302298e-06 3.733373e-06 2.976234e-05
Ga 6.352457e+00 -3.722958e+00 -5.305715e+00 8.190710e-06 -5.472034e-06 2.664999e-05
Ga 6.357652e+00 -3.732200e+00 -1.311288e-01 -6.598125e-08 -1.000705e-05 2.931828e-05
Ga 4.749524e+00 -9.701608e-01 5.009637e+00 -1.660610e-05 3.425191e-06 3.134039e-05
Ga 4.767710e+00 -9.581422e-01 -5.279610e+00 -6.078221e-06 -7.449237e-06 3.663230e-05
Al 4.749062e+00 -9.575645e-01 -1.677440e-01 -1.266677e-05 -1.723799e-06 3.098694e-05
Ga -3.215113e+00 1.817196e+00 5.026842e+00 -1.733056e-06 1.123946e-05 3.261959e-05
Al -3.201375e+00 1.806374e+00 -5.320597e+00 -1.526685e-06 3.433819e-06 1.687267e-05
Al -3.213968e+00 1.796741e+00 -1.444834e-01 2.941052e-06 -3.743984e-07 2.282208e-05
Al -1.535170e-02 -3.723361e+00 5.027039e+00 7.296985e-06 6.112340e-06 2.471607e-05
Ga -7.196197e-03 -3.712948e+00 -5.329902e+00 3.807960e-06 -9.481498e-06 2.639022e-05
Ga -2.128918e-02 -3.733586e+00 -1.360167e-01 -1.003766e-05 -9.650774e-06 2.707309e-05
Ga -1.607831e+00 -9.688723e-01 5.030793e+00 -5.056195e-06 -8.218448e-06 4.906020e-05
Al -1.606149e+00 -9.505193e-01 -5.302506e+00 -6.871993e-06 -6.062068e-06 2.389078e-05
Ga -1.621199e+00 -9.457324e-01 -1.645761e-01 -1.980242e-05 -9.241008e-06 1.790510e-05
N 1.567014e+00 8.770996e-01 4.310937e+00 -9.009502e-06 6.517920e-06 -4.686096e-05
N 1.530032e+00 8.562589e-01 -5.955967e+00 2.867417e-06 -4.050242e-07 -2.940798e-05
N 1.568367e+00 8.795403e-01 -7.763507e-01 9.004340e-07 5.217490e-06 -1.009722e-05
N -7.159551e-02 3.661174e+00 4.345613e+00 3.553495e-06 -2.018517e-05 -3.439782e-05
N -2.607294e-02 3.596061e+00 -5.968580e+00 -3.175684e-06 5.325131e-06 -2.650326e-05
N -2.416361e-02 3.593787e+00 -7.511520e-01 -3.077253e-06 5.832873e-06 -2.803393e-05
N 3.162618e+00 -1.930026e+00 4.349710e+00 2.197649e-06 1.546357e-05 -2.476212e-05
N 3.124420e+00 -1.856474e+00 -5.912091e+00 8.966693e-06 5.612602e-06 -4.271507e-05
N 3.160825e+00 -1.831689e+00 -8.004626e-01 1.986876e-05 1.107109e-06 -3.502019e-05
N -4.809819e+00 8.810217e-01 4.369887e+00 8.711359e-06 -8.663676e-06 -3.098056e-05
N -4.771595e+00 9.038132e-01 -5.901021e+00 3.312480e-06 1.927316e-07 -2.962987e-05
N -4.809596e+00 8.856268e-01 -7.074314e-01 1.809623e-08 3.752555e-06 -2.261562e-05
N -6.360254e+00 3.665555e+00 4.365762e+00 -1.075766e-05 5.467064e-06 -2.556126e-05
N -6.404306e+00 3.641155e+00 -5.935363e+00 -9.175336e-06 6.520154e-06 -2.930368e-05
N -6.406575e+00 3.594748e+00 -7.509501e-01 -3.187918e-06 5.598032e-06 -2.864247e-05
N -3.215154e+00 -1.880968e+00 4.391497e+00 7.964868e-06 -3.236468e-06 -3.073741e-05
N -3.171971e+00 -1.854156e+00 -5.909680e+00 7.306886e-07 6.413527e-06 -3.215270e-05
N -3.254938e+00 -1.862665e+00 -8.022027e-01 8.440059e-06 -2.151579e-06 -2.903987e-05
N -1.616438e+00 8.835036e-01 4.393908e+00 1.835767e-05 -1.965228e-05 -4.174998e-05
N -1.614592e+00 8.824188e-01 -5.866919e+00 9.938619e-06 -6.431731e-06 -2.593024e-05
N -1.614170e+00 9.377585e-01 -7.550670e-01 1.255949e-05 -4.719585e-06 -2.950596e-05
N -3.215175e+00 3.694129e+00 4.433858e+00 -6.148935e-06 -2.222358e-05 -2.641436e-05
N -3.210063e+00 3.601012e+00 -5.990748e+00 3.169298e-06 2.858453e-08 -2.514978e-05
N -3.210482e+00 3.597707e+00 -7.488248e-01 1.163595e-05 4.829312e-06 -2.403588e-05
N -1.897024e-02 -1.930566e+00 4.405005e+00 1.110287e-05 -9.729313e-07 -3.032228e-05
N -1.945852e-02 -1.828586e+00 -5.947095e+00 7.082169e-06 1.828668e-06 -2.980794e-05
N 2.841861e-02 -1.854309e+00 -7.548821e-01 6.245992e-06 -2.866436e-06 -2.726925e-05
N 2.132411e-02 1.826011e+00 1.777943e+00 -2.696064e-06 4.238858e-06 -2.206721e-05
N 2.036474e-02 1.823349e+00 7.007574e+00 -1.769306e-05 -5.371682e-06 -2.454854e-05
N 3.068663e-02 1.779506e+00 -3.395864e+00 -3.158248e-06 1.126949e-05 -2.386570e-05
N 3.209908e+00 -3.698555e+00 1.840016e+00 3.464281e-06 -2.343048e-05 -6.663624e-05
N 3.174851e+00 -3.771732e+00 6.946972e+00 -4.366842e-07 3.997502e-06 -2.702918e-05
N 3.170744e+00 -3.672928e+00 -3.332472e+00 -6.006618e-06 4.688942e-06 -3.594487e-05
N 1.620480e+00 -9.376233e-01 1.779088e+00 -3.244711e-05 1.076615e-04 1.021316e-05
N 1.529881e+00 -9.326623e-01 7.000834e+00 -2.342723e-05 7.214237e-06 -3.223793e-05
N 1.617357e+00 -9.265396e-01 -3.378760e+00 -1.479869e-05 5.886906e-06 -2.638783e-05
N 3.120831e+00 1.828708e+00 1.778737e+00 2.596889e-07 1.292770e-05 -2.629787e-05
N 3.117393e+00 1.770729e+00 6.985544e+00 -4.542568e-06 -6.049836e-06 -3.486192e-05
N 3.124365e+00 1.773003e+00 -3.321024e+00 -4.063222e-06 -1.845235e-05 -2.595752e-05
N 6.360248e+00 -3.777020e+00 1.851235e+00 4.666575e-06 -3.253482e-06 -2.301562e-05
N 6.311372e+00 -3.753816e+00 6.983768e+00 9.739777e-06 -1.987429e-06 -3.397078e-05
N 6.357052e+00 -3.674922e+00 -3.331645e+00 -1.228901e-06 -1.399263e-05 -2.267169e-05
N 4.718179e+00 -9.936670e-01 1.753250e+00 1.956215e-05 2.409123e-05 -2.880176e-05
N 4.756701e+00 -9.635949e-01 6.980077e+00 -2.156535e-06 1.969359e-06 -3.601149e-05
N 4.764022e+00 -1.004211e+00 -3.299556e+00 -1.495410e-05 -3.573109e-06 -3.164300e-05
N -3.211414e+00 1.808577e+00 1.762212e+00 -7.790680e-07 3.887463e-06 -3.426992e-05
N -3.211939e+00 1.843644e+00 7.002193e+00 -5.628393e-06 -6.809179e-06 -3.222907e-05
N -3.218231e+00 1.807495e+00 -3.406571e+00 -6.914971e-06 3.886921e-06 -2.421948e-05
N -6.565838e-02 -3.752252e+00 1.832334e+00 1.177906e-05 -8.401431e-06 -2.535019e-05
N 1.821316e-02 -3.694905e+00 6.962848e+00 -7.963240e-06 5.967200e-07 -2.965974e-05
N -1.859878e-02 -3.719771e+00 -3.357651e+00 -4.576154e-06 -2.561678e-06 -2.685951e-05
N -1.619202e+00 -9.633772e-01 1.802248e+00 9.570929e-06 3.354958e-05 -3.039648e-05
N -1.574026e+00 -9.817689e-01 7.007900e+00 -1.638477e-05 3.910159e-06 -3.889561e-05
N -1.656756e+00 -9.845917e-01 -3.378062e+00 -1.468167e-05 1.186980e-05 -2.365873e-05
