108
Energy=-6.655397e+05 Lattice="9.468839e+00 0.000000e+00 0.000000e+00 -4.732915e+00 8.200267e+00 0.000000e+00 7.322017e-04 8.465749e-03 1.519452e+01" Stress="1.084167e-02 5.442566e-03 1.299466e-04 5.429223e-03 1.613786e-02 2.218753e-04 1.298194e-04 2.272167e-04 1.251411e-02" Properties=species:S:1:pos:R:3:forces:R:3 Config_type=AlGaN_super3_5_1_2.xyz
Al 1.560473e+00 8.973584e-01 2.438166e+00 -1.314533e-03 -1.160821e-02 -6.256260e-03
Al 1.562564e+00 9.048429e-01 7.467712e+00 -7.437518e-04 -1.547930e-02 -1.478146e-02
Al 1.564333e+00 8.964819e-01 -2.715708e+00 -2.656038e-04 -1.274563e-02 -1.387630e-03
Al -4.126660e-03 3.610506e+00 2.436239e+00 -1.992864e-03 -2.202194e-03 -5.059780e-03
Al -3.236505e-03 3.612190e+00 7.455793e+00 -2.720620e-03 -8.707476e-04 -3.264745e-03
Al 2.080993e-04 3.611366e+00 -2.716732e+00 -1.848312e-03 -7.306328e-04 -1.329729e-03
Al 3.164340e+00 -1.879583e+00 2.422572e+00 -2.242546e-03 1.436524e-03 -3.386918e-03
Al 3.166398e+00 -1.876160e+00 7.453936e+00 -1.259212e-03 -3.851591e-04 -5.829790e-03
Al 3.169429e+00 -1.880070e+00 -2.709891e+00 -2.050023e-03 1.538652e-03 -6.059647e-04
Al -4.779505e+00 8.999527e-01 2.424431e+00 1.788795e-03 -1.083095e-02 -4.220598e-03
Al -4.775965e+00 9.010736e-01 7.454582e+00 2.060453e-03 -1.130617e-02 -3.671221e-03
Al -4.776562e+00 8.956966e-01 -2.713129e+00 1.049169e-03 -1.185824e-02 -2.528252e-05
Al -6.343491e+00 3.609776e+00 2.423660e+00 2.464495e-04 2.098462e-05 -2.786654e-03
Al -6.341480e+00 3.613154e+00 7.453478e+00 -3.171563e-04 -2.201266e-05 -1.971274e-03
Al -6.341146e+00 3.610020e+00 -2.712483e+00 -4.898120e-04 -1.990920e-04 1.616024e-03
Al -3.173338e+00 -1.878373e+00 2.421625e+00 2.612328e-05 2.341125e-03 -3.430391e-03
Al -3.174324e+00 -1.877517e+00 7.451651e+00 1.047830e-04 2.896201e-03 -2.702416e-03
Al -3.170247e+00 -1.878433e+00 -2.711592e+00 -6.034726e-04 2.172813e-03 4.402540e-04
Al -1.649972e+00 9.002309e-01 2.436351e+00 1.294326e-02 -6.007365e-03 -7.023897e-03
Al -1.647885e+00 9.018929e-01 7.456985e+00 1.086286e-02 -6.749207e-03 -1.287597e-02
Al -1.647837e+00 8.983619e-01 -2.718596e+00 1.198623e-02 -7.531531e-03 -2.272343e-03
Al -3.212413e+00 3.611157e+00 2.424241e+00 1.019704e-02 4.020327e-03 -3.732107e-03
Al -3.211824e+00 3.611854e+00 7.454803e+00 1.111964e-02 4.065683e-03 -3.056088e-03
Ga -3.214932e+00 3.606985e+00 -2.707109e+00 1.333511e-02 6.890715e-03 -1.914371e-03
Al -4.342824e-02 -1.876720e+00 2.423733e+00 1.027338e-02 6.387363e-03 -4.152369e-03
Ga -3.805745e-02 -1.879053e+00 7.441749e+00 1.294457e-02 9.788703e-03 -5.389128e-03
Al -4.147367e-02 -1.876545e+00 -2.712260e+00 1.046923e-02 6.607572e-03 -8.857876e-04
Al -3.363379e-03 1.801594e+00 4.948278e+00 -1.017801e-02 -6.977258e-03 -5.179604e-03
Al 1.367696e-03 1.798935e+00 -5.227739e+00 -1.577965e-02 -6.268415e-03 -5.562547e-03
Al -1.144732e-03 1.801781e+00 -2.286259e-01 -1.057776e-02 -7.288852e-03 2.564439e-02
Al 3.164626e+00 -3.686039e+00 4.944140e+00 -1.093518e-02 -3.761208e-03 -2.583171e-03
Al 3.168200e+00 -3.691180e+00 -5.226972e+00 -1.191472e-02 -5.345360e-03 -2.570841e-03
Al 3.168964e+00 -3.687497e+00 -1.856745e-01 -1.185400e-02 -5.271344e-03 1.677594e-02
Al 1.601654e+00 -9.775338e-01 4.947056e+00 -1.171373e-02 6.564876e-03 -1.546549e-02
Ga 1.605123e+00 -9.777158e-01 -5.229472e+00 -1.389194e-02 6.300256e-03 -3.542604e-03
Al 1.605471e+00 -9.744677e-01 -1.885905e-01 -1.243119e-02 6.940383e-03 1.544241e-02
Al 3.125554e+00 1.802159e+00 4.945702e+00 3.704727e-05 -2.693946e-03 -2.142182e-03
Ga 3.127372e+00 1.800706e+00 -5.230859e+00 2.787657e-03 -2.086736e-03 -1.026618e-04
Al 3.129160e+00 1.802910e+00 -1.919270e-01 5.798085e-04 -2.335247e-03 1.808044e-02
Al 6.294770e+00 -3.684826e+00 4.942814e+00 1.970889e-04 8.374594e-05 -1.405582e-03
Al 6.296209e+00 -3.689348e+00 -5.228874e+00 1.371871e-04 -1.567813e-04 -2.158069e-04
Al 6.299639e+00 -3.687426e+00 -1.895654e-01 5.161231e-04 1.082093e-04 1.839169e-02
Al 4.730840e+00 -9.746958e-01 4.941420e+00 -2.095345e-03 1.111707e-02 -2.948792e-03
Al 4.734055e+00 -9.816402e-01 -5.228856e+00 -1.062010e-03 1.245066e-02 -1.842152e-03
Al 4.736730e+00 -9.742158e-01 -1.852368e-01 -1.493034e-03 1.174069e-02 1.576314e-02
Al -3.213432e+00 1.803491e+00 4.943573e+00 2.142847e-03 -1.156097e-03 -2.490272e-03
Al -3.208412e+00 1.798461e+00 -5.230006e+00 -1.310526e-03 5.750077e-04 -3.463669e-03
Al -3.206614e+00 1.808935e+00 -1.971514e-01 4.838738e-04 -7.697063e-03 2.074735e-02
Al -4.464141e-02 -3.687555e+00 4.939335e+00 2.538316e-03 2.011959e-03 -2.823010e-03
Al -4.200531e-02 -3.689087e+00 -5.228487e+00 3.349412e-03 3.278874e-04 -1.320378e-03
Al -3.326756e-02 -3.686426e+00 -1.919238e-01 -4.154395e-03 2.644019e-03 2.016150e-02
Al -1.609474e+00 -9.733977e-01 4.940776e+00 1.451097e-03 1.205425e-02 -3.970360e-03
Ga -1.610293e+00 -9.761326e-01 -5.235325e+00 1.289711e-03 1.595805e-02 -2.960713e-03
Al -1.602165e+00 -9.726429e-01 -1.902519e-01 3.182054e-04 1.186092e-02 1.632932e-02
N 1.561705e+00 8.966193e-01 4.354048e+00 -1.862778e-04 -1.127301e-02 2.147334e-03
N 1.556433e+00 9.004178e-01 -5.836978e+00 -1.761267e-02 -7.947811e-03 -4.467761e-03
N 1.565115e+00 8.981621e-01 -8.019104e-01 -2.381549e-04 -1.178516e-02 4.825642e-03
N -3.553154e-03 3.612218e+00 4.351746e+00 -1.703716e-03 -1.507611e-04 1.063643e-03
N -8.412859e-04 3.605914e+00 -5.823007e+00 -1.387184e-03 -5.755352e-04 1.770383e-03
N 3.920608e-04 3.611644e+00 -8.012242e-01 -2.735552e-03 2.656766e-05 2.554173e-03
N 3.164931e+00 -1.878941e+00 4.345557e+00 -7.913502e-04 5.537658e-04 -2.719099e-03
N 3.172162e+00 -1.885537e+00 -5.826080e+00 1.356944e-02 -7.603909e-03 -6.716234e-03
N 3.170072e+00 -1.878753e+00 -7.875975e-01 -2.704043e-03 1.887483e-06 2.142938e-04
N -4.779309e+00 8.993412e-01 4.346240e+00 1.112003e-03 -1.155839e-02 2.471775e-03
N -4.771347e+00 8.915011e-01 -5.826806e+00 1.575907e-02 -2.167649e-02 -2.263975e-03
N -4.773893e+00 9.008394e-01 -7.919349e-01 8.216028e-04 -1.257329e-02 3.235334e-03
N -6.343351e+00 3.609755e+00 4.344631e+00 -5.340953e-04 -3.014162e-05 4.066577e-04
N -6.340100e+00 3.613058e+00 -5.827019e+00 -7.968202e-04 2.001235e-02 -5.244539e-03
N -6.336055e+00 3.610601e+00 -7.916161e-01 -1.363097e-03 4.139290e-04 1.367273e-03
N -3.174184e+00 -1.877670e+00 4.343425e+00 -8.486015e-04 1.210418e-03 -4.097362e-04
N -3.176853e+00 -1.887403e+00 -5.827698e+00 -1.766337e-02 -8.453487e-03 -5.842767e-03
N -3.168236e+00 -1.878374e+00 -7.892760e-01 -7.951004e-04 1.389189e-03 7.240717e-04
N -1.651096e+00 8.998429e-01 4.351246e+00 1.210060e-02 -6.890788e-03 5.541433e-03
N -1.676336e+00 9.002880e-01 -5.862363e+00 2.212060e-02 7.940803e-03 1.421877e-02
N -1.646552e+00 9.010752e-01 -8.043680e-01 1.245257e-02 -6.322020e-03 7.016077e-03
N -3.212521e+00 3.611106e+00 4.344878e+00 1.100031e-02 4.851547e-03 2.249906e-03
N -3.210809e+00 3.606883e+00 -5.823313e+00 1.053158e-02 5.997762e-03 3.466377e-03
N -3.235276e+00 3.594456e+00 -7.775144e-01 2.080527e-02 1.121501e-02 1.931408e-02
N -4.388962e-02 -1.877422e+00 4.345179e+00 9.370081e-03 5.731125e-03 4.365265e-04
N -3.888992e-02 -1.883425e+00 -5.830080e+00 1.252258e-02 -9.860157e-03 1.132987e-02
N -3.819900e-02 -1.877251e+00 -7.915300e-01 1.049629e-02 6.032834e-03 2.820415e-03
N -4.333179e-03 1.801054e+00 1.863373e+00 -1.058307e-02 -6.337510e-03 -2.456114e-02
N -3.065492e-03 1.803459e+00 6.864480e+00 -9.450278e-03 -6.771660e-03 3.024185e-03
N -4.466750e-04 1.800871e+00 -3.312174e+00 -1.075826e-02 -6.934395e-03 1.856452e-03
N 3.165355e+00 -3.689177e+00 1.824887e+00 -1.043323e-02 -4.385090e-03 -1.468744e-02
N 3.164301e+00 -3.684970e+00 6.859954e+00 -9.961883e-03 -5.889663e-03 4.412509e-03
N 3.170563e+00 -3.686418e+00 -3.308664e+00 2.444401e-03 2.485657e-03 -2.453808e-03
N 1.600281e+00 -9.748741e-01 1.824301e+00 -1.157795e-02 6.896171e-03 -1.244433e-02
N 1.616228e+00 -9.970772e-01 6.805501e+00 -8.607723e-04 2.182808e-02 2.088688e-02
N 1.604722e+00 -9.773073e-01 -3.305676e+00 -1.248118e-02 7.301062e-03 2.506471e-02
N 3.123217e+00 1.801962e+00 1.825313e+00 1.087910e-03 -1.870593e-03 -1.730570e-02
N 3.127343e+00 1.805345e+00 6.863111e+00 5.131028e-04 -1.887041e-03 7.845568e-04
N 3.128242e+00 1.800646e+00 -3.307061e+00 4.996906e-04 -1.232631e-03 2.076346e-02
N 6.293146e+00 -3.688103e+00 1.824036e+00 2.175128e-04 4.951690e-04 -1.637078e-02
N 6.295200e+00 -3.684367e+00 6.858061e+00 4.084513e-04 -4.125385e-04 1.690161e-03
N 6.297771e+00 -3.686179e+00 -3.311043e+00 4.315230e-04 -1.310562e-04 6.612042e-04
N 4.730543e+00 -9.749510e-01 1.820633e+00 -8.431145e-04 1.158060e-02 -1.341602e-02
N 4.731694e+00 -9.737229e-01 6.857442e+00 -7.728707e-04 1.202433e-02 3.584957e-03
N 4.734007e+00 -9.778264e-01 -3.309641e+00 -1.179241e-03 1.161568e-02 2.595001e-03
N -3.211748e+00 1.803377e+00 1.824780e+00 2.182395e-03 -1.690664e-03 -1.754601e-02
N -3.211252e+00 1.804734e+00 6.860335e+00 1.220150e-03 -5.974225e-04 -9.527368e-04
N -3.212335e+00 1.795706e+00 -3.314179e+00 3.053801e-03 -2.013578e-02 -7.062568e-03
N -4.430261e-02 -3.685610e+00 1.821447e+00 1.897693e-03 4.670745e-04 -1.616247e-02
N -4.430338e-02 -3.691771e+00 6.853650e+00 1.860729e-03 -2.015992e-02 -5.918626e-03
N -4.733021e-02 -3.684601e+00 -3.311682e+00 -1.470879e-02 1.058933e-02 -6.455624e-03
N -1.606624e+00 -9.725999e-01 1.823653e+00 -1.537886e-04 1.186212e-02 -1.487171e-02
N -1.610468e+00 -9.715126e-01 6.854029e+00 -1.616560e-02 2.123269e-02 -3.745776e-03
N -1.605837e+00 -9.731304e-01 -3.309120e+00 8.146618e-04 1.204188e-02 2.233029e-02
