108
Energy=-1.443725e+06 Lattice="9.517323e+00 0.000000e+00 0.000000e+00 -4.759795e+00 8.240849e+00 0.000000e+00 8.439418e-04 -4.097626e-03 1.536032e+01" Stress="1.532933e-04 1.746027e-05 8.648559e-05 8.066148e-06 -7.090075e-05 -9.068703e-05 7.148156e-05 -8.539821e-05 -2.810196e-04" Properties=species:S:1:pos:R:3:forces:R:3 Config_type=AlGaN_super3_22_2_14.xyz
Al 1.582339e+00 8.637713e-01 2.427210e+00 -1.014641e-03 2.236950e-03 2.531715e-04
Al 1.565798e+00 8.819079e-01 7.533271e+00 2.076274e-04 2.736806e-05 1.085798e-04
Al 1.561280e+00 8.946886e-01 -2.729722e+00 2.953582e-04 2.405007e-06 3.300010e-04
Al -3.578704e-02 3.624411e+00 2.407361e+00 1.090374e-04 -1.574651e-04 3.036781e-04
Al -1.413068e-02 3.619116e+00 7.573923e+00 -1.953732e-04 1.132040e-04 5.862602e-05
Al -1.938185e-02 3.624855e+00 -2.751714e+00 -5.160893e-05 -7.642388e-07 3.831501e-04
Al 3.136145e+00 -1.879710e+00 2.402339e+00 1.900458e-04 -5.621027e-04 1.372332e-03
Al 3.156668e+00 -1.872785e+00 7.548384e+00 1.488192e-04 3.014264e-05 3.202878e-04
Ga 3.153929e+00 -1.886896e+00 -2.715197e+00 1.489678e-04 -1.716505e-04 3.736690e-04
Al -4.795255e+00 8.912605e-01 2.411981e+00 2.365540e-04 2.290625e-05 6.880200e-04
Ga -4.788154e+00 8.750601e-01 7.552008e+00 3.745922e-04 1.870865e-04 3.326985e-04
Ga -4.789729e+00 8.889991e-01 -2.731498e+00 2.040298e-04 -1.843835e-04 3.883136e-04
Ga -6.369475e+00 3.601261e+00 2.407974e+00 -1.133089e-04 1.261929e-04 1.678790e-04
Al -6.383068e+00 3.613750e+00 7.562931e+00 2.290764e-04 -2.333880e-04 3.429182e-04
Al -6.372939e+00 3.625689e+00 -2.740122e+00 -6.679392e-05 -5.629027e-06 4.219768e-04
Ga -3.195415e+00 -1.875877e+00 2.435409e+00 -7.319032e-05 3.608788e-05 1.775074e-04
Al -3.198872e+00 -1.880884e+00 7.547598e+00 3.407882e-04 3.143618e-04 -9.108413e-05
Al -3.193409e+00 -1.886581e+00 -2.740424e+00 -7.601550e-05 -4.070594e-05 1.822588e-04
Ga -1.616788e+00 8.846914e-01 2.420206e+00 4.735459e-04 -1.427075e-04 4.910464e-05
Al -1.608214e+00 8.810455e-01 7.536453e+00 -1.429844e-04 -2.999207e-05 -2.191851e-05
Ga -1.603296e+00 8.912524e-01 -2.716972e+00 5.011342e-04 -4.244268e-04 3.810687e-04
Al -3.185621e+00 3.622491e+00 2.402159e+00 1.772249e-04 -1.573039e-04 2.046617e-04
Ga -3.188382e+00 3.617382e+00 7.560998e+00 -5.011259e-05 -3.916715e-04 3.431233e-04
Al -3.191930e+00 3.630437e+00 -2.726709e+00 9.178909e-05 -2.819241e-04 -5.985954e-04
Al -5.092664e-03 -1.863859e+00 2.444656e+00 -3.574190e-04 -6.176937e-05 1.348127e-04
Ga -2.216489e-02 -1.863193e+00 7.532104e+00 2.488304e-04 -2.407865e-04 4.357712e-04
Al -2.330544e-02 -1.882188e+00 -2.733575e+00 9.463337e-05 -2.520633e-04 -2.106899e-04
Ga -1.575164e-02 1.778636e+00 4.988176e+00 -8.871271e-05 2.075092e-04 3.258738e-04
Al -1.925035e-02 1.808009e+00 -5.285360e+00 1.456240e-04 -1.658748e-04 -4.242246e-04
Ga -1.365803e-02 1.807183e+00 -1.479416e-01 -2.665356e-04 1.949091e-04 -5.979982e-04
Ga 3.146050e+00 -3.705244e+00 4.979152e+00 1.999160e-04 5.521087e-04 7.279490e-04
Al 3.156689e+00 -3.708263e+00 -5.272605e+00 5.942439e-06 1.532147e-05 1.527403e-04
Al 3.147358e+00 -3.722295e+00 -1.518150e-01 1.378269e-04 5.832082e-05 -3.017475e-04
Al 1.570275e+00 -9.476192e-01 4.970993e+00 -3.306661e-05 6.156426e-05 3.910352e-04
Ga 1.578693e+00 -9.440496e-01 -5.267084e+00 -2.377029e-04 1.585834e-04 3.615522e-04
Ga 1.564408e+00 -9.488365e-01 -1.420428e-01 -4.817378e-04 3.355430e-04 -4.892616e-04
Al 3.150728e+00 1.780429e+00 4.988412e+00 5.718386e-04 -6.094263e-04 2.301108e-04
Al 3.141931e+00 1.804578e+00 -5.273290e+00 3.321658e-04 -5.163454e-05 2.345186e-04
Al 3.150548e+00 1.789254e+00 -1.624793e-01 -1.082270e-04 1.059333e-04 -2.685956e-05
Ga 6.325391e+00 -3.713318e+00 5.014188e+00 -1.332944e-04 -2.619703e-05 2.972022e-04
Al 6.320266e+00 -3.707853e+00 -5.275529e+00 1.210764e-04 1.520784e-04 1.243544e-04
Ga 6.311512e+00 -3.711739e+00 -1.822436e-01 5.687445e-05 -1.329245e-04 -4.918596e-04
Ga 4.726539e+00 -9.407281e-01 4.978313e+00 -2.249023e-04 1.025027e-04 6.813980e-05
Al 4.737939e+00 -9.609837e-01 -5.282145e+00 4.903243e-05 3.393744e-04 -2.412416e-05
Ga 4.737812e+00 -9.448827e-01 -1.347467e-01 -2.031598e-04 2.768674e-05 -4.664752e-04
Al -3.202668e+00 1.791408e+00 4.968527e+00 -1.234021e-03 -2.015746e-03 1.651525e-03
Al -3.188174e+00 1.803213e+00 -5.262179e+00 -2.973349e-03 -1.459736e-05 -1.814807e-03
Al -3.209146e+00 1.812210e+00 -1.507185e-01 1.074360e-04 -1.268170e-04 4.740613e-05
Ga -2.087386e-02 -3.709000e+00 4.968021e+00 -2.651966e-05 2.810167e-04 3.320850e-04
Al -2.616263e-02 -3.723299e+00 -5.248369e+00 6.562219e-05 5.871722e-04 -2.516840e-04
Ga -9.106494e-03 -3.712395e+00 -1.614320e-01 -1.121970e-04 -7.595210e-05 -5.835544e-05
Al -1.603780e+00 -9.454543e-01 5.002005e+00 -2.399409e-04 -9.084252e-05 2.772817e-04
Ga -1.624030e+00 -9.492723e-01 -5.271386e+00 -1.031009e-04 -8.818742e-05 8.412488e-05
Ga -1.607512e+00 -9.577918e-01 -1.633260e-01 -2.686232e-04 -1.697746e-04 9.331576e-05
N 1.609759e+00 8.536147e-01 4.351389e+00 9.298329e-05 3.857531e-05 -2.623218e-04
N 1.564902e+00 9.259085e-01 -5.910943e+00 1.185881e-04 -5.952821e-05 -3.532709e-04
N 1.600967e+00 9.024061e-01 -8.121618e-01 5.320014e-04 -2.126686e-04 -2.990822e-04
N -2.159533e-02 3.621184e+00 4.315648e+00 7.335544e-05 -7.592499e-05 -3.722895e-04
N -2.231582e-02 3.627065e+00 -5.870140e+00 -9.175295e-05 -9.168796e-05 -1.038122e-04
N -7.042695e-02 3.644890e+00 -8.314488e-01 8.514839e-05 -9.238409e-05 -5.782971e-04
N 3.107719e+00 -1.856254e+00 4.321901e+00 1.233783e-04 -1.191786e-04 -8.635744e-04
N 3.186991e+00 -1.893970e+00 -5.894263e+00 3.036303e-06 -7.400528e-05 -1.486696e-04
N 3.152342e+00 -1.921593e+00 -7.388374e-01 1.682328e-04 -1.134243e-04 -1.292640e-04
N -4.786677e+00 9.283841e-01 4.342567e+00 2.698369e-04 5.846164e-04 -1.287391e-04
N -4.785223e+00 8.821259e-01 -5.824010e+00 1.077325e-03 3.523460e-04 1.228565e-04
N -4.782218e+00 9.242379e-01 -7.471271e-01 1.325437e-04 1.251319e-04 -7.186344e-04
N -6.374726e+00 3.567327e+00 4.376599e+00 -2.228978e-05 4.138737e-04 -4.008309e-04
N -6.366208e+00 3.623785e+00 -5.871260e+00 -1.012291e-04 2.051815e-04 -2.649506e-04
N -6.365476e+00 3.575215e+00 -8.141339e-01 5.319458e-05 1.083115e-04 -4.796645e-04
N -3.152613e+00 -1.854348e+00 4.403651e+00 2.528934e-04 3.036886e-05 -7.412519e-05
N -3.234115e+00 -1.895043e+00 -5.900067e+00 9.578215e-05 -1.378057e-04 -7.262748e-05
N -3.201666e+00 -1.868854e+00 -8.310957e-01 -3.062085e-05 1.487690e-04 -3.157018e-05
N -1.652374e+00 8.542424e-01 4.399860e+00 3.046461e-04 -1.366737e-04 -2.559635e-04
N -1.614065e+00 9.298920e-01 -5.900968e+00 1.254762e-03 -5.201103e-04 -8.549312e-05
N -1.651915e+00 9.096057e-01 -7.422493e-01 1.820159e-04 -2.351112e-05 -2.122143e-04
N -3.190675e+00 3.572539e+00 4.319769e+00 1.457421e-04 9.557182e-04 -8.402356e-04
N -3.197319e+00 3.626134e+00 -5.824310e+00 -4.771639e-05 1.066845e-04 -2.783994e-04
N -3.152393e+00 3.602236e+00 -7.998905e-01 -5.095006e-05 -1.914902e-04 2.004165e-04
N -2.338056e-02 -1.818933e+00 4.370959e+00 1.910385e-04 -2.084423e-04 -3.011601e-04
N -2.049186e-02 -1.916835e+00 -5.859862e+00 5.465074e-05 -6.965493e-04 1.074893e-04
N -1.755229e-02 -1.873411e+00 -8.299358e-01 2.382845e-04 -1.766241e-04 2.234123e-04
N 2.464586e-02 1.811362e+00 1.835328e+00 6.874367e-04 -3.686512e-04 1.225628e-03
N -2.042926e-02 1.794090e+00 6.978732e+00 -1.699961e-04 1.805574e-04 -2.812657e-04
N 1.890795e-02 1.813930e+00 -3.365391e+00 -2.001417e-04 1.961597e-04 4.132039e-04
N 3.150524e+00 -3.709915e+00 1.783583e+00 -2.181601e-04 1.522020e-04 1.810168e-04
N 3.195477e+00 -3.684124e+00 6.962477e+00 1.232621e-04 -5.224404e-05 -3.618805e-04
N 3.150829e+00 -3.748811e+00 -3.360974e+00 -1.053167e-04 2.443956e-04 -1.021320e-04
N 1.558615e+00 -9.518320e-01 1.848983e+00 1.242536e-04 -1.041822e-03 -5.797211e-04
N 1.613347e+00 -9.320762e-01 6.903048e+00 -1.566383e-04 9.616699e-05 -2.473067e-04
N 1.531387e+00 -9.268266e-01 -3.294151e+00 -3.411484e-04 1.900070e-04 -1.401127e-04
N 3.144010e+00 1.739892e+00 1.759265e+00 -1.572613e-04 -2.628694e-04 3.041055e-04
N 3.110770e+00 1.814882e+00 6.911121e+00 -2.915093e-04 -3.598457e-05 -3.906520e-04
N 3.104641e+00 1.818004e+00 -3.361106e+00 -1.922511e-04 9.893710e-06 -2.415029e-04
N 6.280719e+00 -3.726694e+00 1.793274e+00 8.626765e-05 7.988393e-07 3.592666e-04
N 6.321121e+00 -3.711195e+00 6.998010e+00 -6.116099e-05 8.694831e-05 -2.949780e-04
N 6.324564e+00 -3.702542e+00 -3.345472e+00 1.080109e-04 -1.310305e-04 -1.531506e-04
N 4.698402e+00 -9.310714e-01 1.848374e+00 -5.106935e-05 8.604556e-05 1.432336e-04
N 4.734297e+00 -1.000991e+00 6.958141e+00 -1.002168e-04 -1.581513e-05 -2.135633e-04
N 4.774984e+00 -9.776561e-01 -3.369275e+00 -2.679784e-04 -5.207202e-05 -1.649435e-04
N -3.241704e+00 1.817478e+00 1.773321e+00 -2.964501e-04 2.058359e-04 7.432893e-05
N -3.162150e+00 1.770546e+00 6.888259e+00 1.292236e-04 2.166444e-04 -8.884918e-04
N -3.194234e+00 1.839645e+00 -3.367003e+00 1.763515e-04 4.419726e-04 1.682900e-03
N 1.834561e-02 -3.673517e+00 1.833870e+00 1.087422e-04 7.643361e-05 -1.427150e-05
N -6.315461e-02 -3.733479e+00 6.940654e+00 -1.293209e-04 2.323286e-04 -5.631408e-04
N -2.141708e-02 -3.707872e+00 -3.324053e+00 -8.448695e-05 1.680490e-04 -5.731106e-05
N -1.563546e+00 -9.842074e-01 1.812688e+00 -2.109426e-04 3.161804e-05 -2.971093e-04
N -1.649755e+00 -9.303641e-01 6.923169e+00 -3.606004e-04 -1.650710e-04 -5.021833e-05
N -1.609216e+00 -9.944402e-01 -3.299684e+00 -2.426495e-04 3.132483e-07 -2.405567e-05
