108
Energy=-1.581051e+06 Lattice="9.534209e+00 0.000000e+00 0.000000e+00 -4.769263e+00 8.252832e+00 0.000000e+00 -3.601768e-04 1.211988e-02 1.540045e+01" Stress="1.428448e-04 -1.990404e-04 8.609182e-06 -2.029485e-04 -4.831063e-04 5.547058e-04 1.809605e-05 5.359144e-04 -7.641917e-04" Properties=species:S:1:pos:R:3:forces:R:3 Config_type=AlGaN_super3_25_1_53.xyz
Al 1.557903e+00 8.871906e-01 2.405978e+00 1.235995e-05 4.785552e-05 -1.056006e-03
Al 1.562870e+00 9.000190e-01 7.561105e+00 1.133113e-04 -5.334960e-06 -1.008745e-04
Al 1.556460e+00 8.756968e-01 -2.710685e+00 3.760697e-05 4.238833e-04 2.219341e-04
Al -2.924683e-02 3.616160e+00 2.421550e+00 3.127541e-04 4.000917e-06 -5.363889e-04
Al -2.822765e-02 3.617672e+00 7.553292e+00 8.415738e-05 5.146914e-04 -1.484939e-03
Ga -4.431628e-02 3.612610e+00 -2.715489e+00 -2.839551e-05 -7.797388e-05 2.411462e-04
Al 3.165057e+00 -1.872286e+00 2.422364e+00 -5.841739e-05 -3.718877e-06 -1.464071e-04
Ga 3.155021e+00 -1.873467e+00 7.562871e+00 -4.281256e-05 7.328792e-05 2.713040e-07
Al 3.149052e+00 -1.888419e+00 -2.727565e+00 -1.832447e-05 1.893898e-05 1.269750e-04
Al -4.788909e+00 8.769864e-01 2.407545e+00 1.439114e-03 3.589230e-04 1.976807e-04
Al -4.787774e+00 9.031366e-01 7.564160e+00 -3.796477e-05 3.307595e-07 -1.778577e-04
Ga -4.791847e+00 8.784459e-01 -2.717179e+00 1.337176e-04 4.444151e-05 1.246044e-04
Ga -6.374370e+00 3.626749e+00 2.422213e+00 6.359373e-06 7.575981e-05 3.551722e-05
Ga -6.381439e+00 3.622693e+00 7.539630e+00 -4.457671e-05 9.954179e-05 -1.647693e-04
Ga -6.371373e+00 3.616873e+00 -2.699864e+00 8.434194e-07 -7.948958e-05 1.589576e-04
Al -3.215065e+00 -1.868849e+00 2.430913e+00 2.629799e-05 1.040448e-04 -8.621004e-05
Ga -3.204060e+00 -1.869761e+00 7.555599e+00 -8.777704e-06 -2.634726e-05 -4.218493e-05
Al -3.190798e+00 -1.863191e+00 -2.718766e+00 -3.162672e-05 -1.211993e-05 9.645409e-05
Al -1.610832e+00 9.002334e-01 2.428057e+00 1.563639e-04 1.738878e-04 3.506361e-05
Ga -1.615484e+00 9.096664e-01 7.560339e+00 1.149461e-04 -2.376102e-04 1.016610e-05
Al -1.602580e+00 8.736805e-01 -2.740476e+00 -4.074338e-05 -9.636557e-05 4.492375e-04
Al -3.200340e+00 3.623527e+00 2.430156e+00 2.430059e-05 -1.065478e-03 -7.376781e-04
Al -3.197144e+00 3.619068e+00 7.549087e+00 -1.487873e-04 -2.772700e-04 -2.967907e-04
Al -3.191234e+00 3.631575e+00 -2.722513e+00 -1.091271e-04 -3.936313e-04 -5.743986e-05
Ga -1.239520e-02 -1.877581e+00 2.411828e+00 -1.035811e-04 7.762405e-05 -8.441807e-05
Ga -1.718533e-02 -1.865885e+00 7.562017e+00 -1.963139e-05 -9.277278e-05 1.956071e-05
Al -2.506514e-02 -1.868754e+00 -2.709421e+00 -7.065315e-05 2.191704e-06 1.610052e-04
Al -2.194448e-02 1.809214e+00 4.977669e+00 -3.384626e-07 1.258738e-04 -5.475173e-04
Al -2.541464e-02 1.788603e+00 -5.284716e+00 -6.714327e-05 -3.745123e-04 7.853516e-04
Al -1.792513e-02 1.784658e+00 -1.410716e-01 -1.178968e-04 -1.684190e-05 -2.122981e-04
Ga 3.156018e+00 -3.729489e+00 4.970135e+00 1.328279e-04 1.037283e-04 7.401032e-05
Al 3.152163e+00 -3.738296e+00 -5.287616e+00 -2.553057e-04 4.318764e-05 2.129857e-04
Ga 3.143783e+00 -3.717638e+00 -1.240191e-01 -1.131680e-05 4.134863e-05 8.777939e-05
Ga 1.561915e+00 -9.401840e-01 4.980295e+00 -4.152667e-05 -1.009604e-04 5.196495e-05
Ga 1.561221e+00 -9.402634e-01 -5.250218e+00 -1.702119e-04 4.083010e-05 7.614722e-05
Ga 1.569277e+00 -9.458415e-01 -1.645211e-01 -1.012162e-04 2.799287e-04 -4.516498e-05
Ga 3.153209e+00 1.798116e+00 4.980022e+00 2.185560e-04 -5.686920e-05 2.717135e-05
Al 3.148838e+00 1.782000e+00 -5.294347e+00 -5.218558e-06 7.694093e-05 2.837266e-05
Al 3.142639e+00 1.794131e+00 -1.282267e-01 -7.150379e-05 -6.445856e-05 3.620487e-05
Al 6.325997e+00 -3.712436e+00 4.971835e+00 -1.072085e-04 2.972130e-05 9.305198e-05
Ga 6.323707e+00 -3.722645e+00 -5.271751e+00 2.481049e-04 7.510764e-05 2.186661e-04
Ga 6.339112e+00 -3.715875e+00 -1.380751e-01 -3.354088e-05 1.232142e-05 -2.740886e-05
Ga 4.752711e+00 -9.423835e-01 4.976795e+00 5.424047e-05 1.023873e-04 -1.432224e-05
Ga 4.751674e+00 -9.474118e-01 -5.269598e+00 -1.846293e-06 -1.053604e-04 9.722068e-05
Ga 4.742405e+00 -9.587120e-01 -1.359195e-01 -1.056937e-04 8.371430e-05 -5.044503e-05
Al -3.203316e+00 1.811092e+00 4.971453e+00 -3.349250e-04 -5.977772e-04 -8.887488e-04
Al -3.193983e+00 1.797417e+00 -5.279143e+00 4.695817e-04 3.980828e-04 2.996656e-04
Ga -3.194239e+00 1.805469e+00 -1.427090e-01 1.587900e-04 -4.563697e-05 3.693293e-04
Al -1.513329e-02 -3.717069e+00 4.993682e+00 -1.985217e-05 -2.425557e-05 7.096413e-06
Ga -5.827654e-03 -3.722835e+00 -5.269065e+00 2.599244e-05 -3.386194e-05 1.340843e-04
Al -1.292832e-02 -3.717914e+00 -1.635248e-01 9.779488e-05 -5.906817e-05 4.690782e-05
Ga -1.615187e+00 -9.439953e-01 4.959781e+00 -6.516181e-05 1.115703e-05 -7.563092e-05
Al -1.610783e+00 -9.425720e-01 -5.247812e+00 4.693320e-05 -4.080714e-05 7.930853e-05
Ga -1.606851e+00 -9.471702e-01 -1.474414e-01 -1.184650e-04 1.671051e-04 1.297473e-04
N 1.520321e+00 9.107931e-01 4.315189e+00 3.611048e-05 6.689231e-05 7.346894e-04
N 1.559970e+00 9.218381e-01 -5.921304e+00 -2.511620e-05 1.305022e-04 1.236958e-04
N 1.565181e+00 9.350291e-01 -7.856198e-01 1.115647e-04 -4.339301e-05 3.619646e-05
N 1.782662e-02 3.602352e+00 4.337590e+00 -9.460773e-06 -2.867244e-04 5.505337e-04
N -6.431678e-02 3.594358e+00 -5.921980e+00 -2.135682e-05 -6.363480e-05 8.421199e-04
N -3.119079e-02 3.576913e+00 -7.412891e-01 -5.803332e-05 1.083695e-05 -2.010177e-07
N 3.155313e+00 -1.872428e+00 4.327653e+00 -6.627758e-05 6.609038e-05 -9.240188e-06
N 3.152421e+00 -1.925458e+00 -5.864414e+00 1.357894e-05 1.556900e-05 -3.993597e-05
N 3.160172e+00 -1.885902e+00 -8.170710e-01 -9.528791e-05 -2.312609e-05 -6.156013e-05
N -4.751106e+00 9.097562e-01 4.318867e+00 3.172366e-04 2.053826e-04 4.226020e-04
N -4.783089e+00 9.275880e-01 -5.908911e+00 -2.393206e-04 -1.554192e-04 -1.135640e-04
N -4.832319e+00 9.046969e-01 -7.413858e-01 -3.652404e-05 6.766210e-05 -5.590514e-05
N -6.376408e+00 3.679988e+00 4.406799e+00 -1.069056e-05 -9.735736e-05 6.596690e-05
N -6.378124e+00 3.581133e+00 -5.885712e+00 -6.518692e-05 3.405568e-06 -7.747244e-05
N -6.338551e+00 3.596432e+00 -7.186419e-01 -4.835722e-07 2.806380e-05 -9.111445e-05
N -3.203679e+00 -1.918736e+00 4.337143e+00 -3.829620e-05 1.784483e-05 -2.628906e-05
N -3.152891e+00 -1.854687e+00 -5.874744e+00 -1.000872e-04 -4.315508e-05 2.444749e-06
N -3.197130e+00 -1.871743e+00 -8.129890e-01 7.244985e-06 -5.321182e-06 -4.153875e-05
N -1.608542e+00 9.426857e-01 4.350821e+00 -3.588621e-04 3.020632e-04 7.517056e-04
N -1.613854e+00 8.754378e-01 -5.845387e+00 7.704193e-05 1.692049e-04 -9.224436e-05
N -1.568924e+00 9.051814e-01 -8.154907e-01 1.360322e-04 -2.337724e-05 1.112212e-04
N -3.249691e+00 3.610105e+00 4.343590e+00 -2.226455e-05 -1.502765e-04 4.139812e-04
N -3.162093e+00 3.595387e+00 -5.930392e+00 1.011958e-06 -3.463610e-04 2.702245e-04
N -3.233841e+00 3.647728e+00 -8.113880e-01 -2.398423e-05 5.241054e-05 -1.256131e-04
N -1.992444e-02 -1.923594e+00 4.381297e+00 7.655672e-05 -1.527481e-04 5.445018e-06
N -6.434369e-02 -1.851898e+00 -5.864287e+00 6.159100e-05 -3.802559e-05 -5.642272e-05
N -2.605263e-02 -1.918364e+00 -7.919047e-01 -3.873753e-05 -1.074653e-04 -3.660562e-05
N -2.785316e-02 1.791182e+00 1.787162e+00 3.120161e-04 -1.536622e-06 -1.682498e-04
N 1.818631e-02 1.821897e+00 6.906987e+00 -6.238657e-05 7.259790e-05 1.917038e-04
N -1.863111e-02 1.741238e+00 -3.364070e+00 5.381315e-04 3.645598e-04 -1.215687e-03
N 3.153276e+00 -3.709788e+00 1.865224e+00 -1.449866e-04 -7.303909e-05 1.006805e-04
N 3.156680e+00 -3.755265e+00 6.955393e+00 2.811993e-04 -1.372465e-04 2.421103e-04
N 3.114709e+00 -3.695087e+00 -3.366179e+00 2.081227e-04 7.216108e-05 -1.608680e-04
N 1.612415e+00 -9.297216e-01 1.819059e+00 4.492796e-05 8.738867e-05 1.232343e-04
N 1.569422e+00 -8.963644e-01 6.954930e+00 -1.158306e-04 9.992410e-05 1.820815e-05
N 1.564479e+00 -9.524510e-01 -3.262780e+00 5.170285e-05 -1.007475e-04 -1.888619e-04
N 3.152084e+00 1.748105e+00 1.790758e+00 -6.158765e-04 3.629721e-05 -3.435919e-05
N 3.153957e+00 1.744518e+00 6.959849e+00 5.494795e-05 -1.171723e-05 1.104359e-04
N 3.109311e+00 1.763497e+00 -3.379546e+00 -1.585466e-04 -1.349304e-04 -7.391172e-05
N 6.291908e+00 -3.681860e+00 1.837856e+00 -3.829403e-05 -7.760824e-05 1.193273e-04
N 6.285051e+00 -3.725611e+00 6.896028e+00 -1.835106e-04 -1.685729e-04 2.987800e-04
N 6.331301e+00 -3.670189e+00 -3.301553e+00 -7.076414e-05 -5.343765e-05 -1.676564e-04
N 4.745577e+00 -9.566932e-01 1.849886e+00 -2.401383e-04 -3.836677e-04 -2.183715e-04
N 4.743574e+00 -8.955823e-01 6.954917e+00 -1.859226e-05 -4.116485e-05 6.977009e-05
N 4.744931e+00 -1.003178e+00 -3.296303e+00 -1.158028e-04 -1.154512e-05 -1.043953e-04
N -3.194600e+00 1.796156e+00 1.843135e+00 -7.769729e-04 1.025932e-03 1.298663e-04
N -3.245273e+00 1.822278e+00 6.902645e+00 1.424795e-04 3.362147e-04 2.225416e-04
N -3.160815e+00 1.817678e+00 -3.352998e+00 -3.482670e-04 3.566801e-04 -3.994419e-04
N 2.667166e-02 -3.734127e+00 1.749769e+00 -1.097845e-05 -1.335659e-05 1.044626e-04
N 2.577562e-02 -3.724764e+00 6.909743e+00 2.633377e-05 -1.011141e-04 -4.148774e-05
N 2.126130e-02 -3.688050e+00 -3.294753e+00 7.255018e-06 -3.147920e-05 -1.005978e-04
N -1.654673e+00 -9.236584e-01 1.841798e+00 2.017304e-04 -3.854182e-04 -1.274978e-04
N -1.611889e+00 -9.396678e-01 6.923250e+00 -7.354964e-05 -6.080355e-06 -5.845741e-05
N -1.609575e+00 -9.572819e-01 -3.323413e+00 -4.551243e-05 -4.095304e-05 -7.453635e-05
