108
Energy=-2542332.053552 Lattice="9.506986 0.000000 0.000000 -4.757677 8.221396 0.000000 -0.010650 0.003813 15.396560" Stress="-0.000397 0.000032 -0.000002 0.000032 -0.000374 -0.000001 -0.000002 -0.000001 -0.000333" Properties=species:S:1:pos:R:3:forces:R:3
Al 1.560662 0.901124 2.491954 -0.000489 -0.012362 -0.008121
Al 1.560480 0.903708 7.558323 -0.000690 -0.012568 -0.002890
Ga 1.571784 0.897256 -2.770741 -0.001179 -0.015004 -0.002337
Ga -0.011179 3.617700 2.489047 -0.002632 -0.000828 -0.006848
Al -0.009072 3.617896 7.558078 -0.002501 -0.000852 -0.001189
Ga -0.000718 3.615373 -2.770617 -0.002457 -0.001022 0.000595
Ga 3.173488 -1.882573 2.488739 -0.002506 0.000934 -0.007487
Ga 3.175347 -1.882719 7.558954 -0.003203 0.000962 -0.001843
Ga 3.185242 -1.885689 -2.770211 -0.002307 0.001378 -0.000174
Ga -4.804421 0.903924 2.491061 0.001200 -0.013673 -0.008739
Ga -4.805119 0.903879 7.559714 0.000319 -0.013998 -0.002916
Al -4.793322 0.898685 -2.773042 0.001357 -0.011239 -0.001096
Ga -6.373816 3.619581 2.492094 0.000743 0.000283 -0.005959
Al -6.376916 3.619578 7.556750 0.000293 0.000431 -0.000773
Ga -6.363824 3.616093 -2.772127 -0.000687 -0.000487 0.001108
Ga -3.188841 -1.881926 2.488944 -0.000244 0.002565 -0.006408
Ga -3.189177 -1.883358 7.560129 -0.000353 0.002087 -0.000642
Ga -3.178950 -1.884397 -2.770253 -0.000639 0.002504 0.000350
Ga -1.659936 0.904986 2.491748 0.013618 -0.007476 -0.011505
Ga -1.659912 0.905051 7.560307 0.014427 -0.007546 -0.005473
Ga -1.651936 0.899886 -2.769767 0.013936 -0.007512 -0.004374
Al -3.232890 3.622365 2.494912 0.010154 0.004731 -0.007221
Ga -3.233340 3.621489 7.557797 0.012672 0.007501 -0.003172
Ga -3.223664 3.617469 -2.771250 0.013538 0.006065 -0.001353
Ga -0.045198 -1.880728 2.492657 0.012882 0.008057 -0.009157
Ga -0.047432 -1.880625 7.557391 0.013441 0.008294 -0.004123
Ga -0.036452 -1.884473 -2.770899 0.012939 0.009484 -0.001947
Ga -0.008658 1.806571 5.027602 -0.012901 -0.009447 -0.002715
Ga 0.000758 1.802674 -5.308153 -0.012595 -0.009078 -0.003200
Ga 0.000312 1.802429 -0.227569 -0.012815 -0.009278 0.034377
Ga 3.175744 -3.696431 5.026955 -0.013693 -0.006745 -0.002477
Ga 3.186636 -3.700212 -5.306826 -0.012794 -0.006946 -0.002251
Ga 3.184546 -3.699672 -0.226853 -0.013443 -0.007018 0.035115
Ga 1.604326 -0.977984 5.027582 -0.014424 0.007503 -0.005433
Ga 1.614715 -0.981840 -5.306489 -0.014227 0.008271 -0.005064
Ga 1.614160 -0.983836 -0.225314 -0.014707 0.008514 0.032083
Ga 3.131749 1.808439 5.027507 0.000196 -0.002684 -0.000325
Ga 3.142833 1.803405 -5.308195 -0.000542 -0.002317 -0.000069
Ga 3.144519 1.804152 -0.232456 -0.000467 -0.002764 0.037470
Ga 6.319221 -3.695684 5.028544 0.000451 -0.000299 0.000901
Ga 6.328554 -3.699382 -5.308186 0.000196 -0.000641 0.000410
Ga 6.330091 -3.698734 -0.228521 -0.000080 -0.000566 0.037975
Ga 4.746695 -0.977265 5.027379 -0.000878 0.014408 -0.002463
Ga 4.756897 -0.979971 -5.303862 -0.000833 0.013893 -0.001931
Ga 4.756764 -0.979900 -0.229150 -0.001150 0.014385 0.034732
Ga -3.232533 1.809936 5.025753 0.002598 -0.000914 -0.001871
Ga -3.222174 1.804797 -5.305217 0.002963 -0.001338 -0.000550
Ga -3.223995 1.805791 -0.232999 0.002630 -0.001087 0.036673
Al -0.046293 -3.694234 5.025053 0.002913 0.000850 -0.001325
Ga -0.035750 -3.697550 -5.308363 0.002073 0.000683 -0.000365
Al -0.035883 -3.697622 -0.244531 0.002603 0.000854 0.032229
Ga -1.617145 -0.976924 5.027403 0.001815 0.015419 -0.003575
Ga -1.606688 -0.979532 -5.305046 0.001380 0.015541 -0.002840
Ga -1.606551 -0.981394 -0.227593 0.001625 0.015709 0.034090
N 1.560668 0.901900 4.419206 -0.000549 -0.014784 -0.017189
N 1.571121 0.897830 -5.914120 -0.000727 -0.014864 -0.016622
N 1.571042 0.897322 -0.836748 -0.000753 -0.014791 0.005247
N -0.010221 3.619259 4.422707 -0.001745 0.000623 -0.000442
N -0.000363 3.615611 -5.914200 -0.002010 0.000330 -0.020203
N -0.000737 3.615974 -0.835633 -0.001973 0.000503 0.002571
N 3.175073 -1.882882 4.423060 -0.002167 0.001559 -0.001363
N 3.185634 -1.886633 -5.907981 -0.002184 0.001641 -0.000264
N 3.184904 -1.886889 -0.835507 -0.002224 0.001457 0.001835
N -4.804037 0.902734 4.423836 0.000496 -0.015028 0.003049
N -4.793132 0.898910 -5.908559 0.000873 -0.014930 0.003946
N -4.793512 0.898922 -0.845070 0.000540 -0.014471 -0.013854
N -6.371319 3.622922 4.425396 0.015847 0.010121 0.007122
N -6.364381 3.616864 -5.914723 -0.000315 0.000418 -0.019854
N -6.361051 3.619020 -0.839081 0.015661 0.010056 0.009661
N -3.189071 -1.882353 4.423344 -0.001096 0.001720 -0.001125
N -3.178774 -1.885396 -5.907301 -0.001000 0.002192 0.000154
N -3.178789 -1.885708 -0.836161 -0.001135 0.001848 0.001848
N -1.660532 0.904052 4.423859 0.014223 -0.008314 0.006490
N -1.650903 0.900239 -5.907751 0.014044 -0.008154 0.006881
N -1.651256 0.899963 -0.837039 0.013943 -0.008037 0.009337
N -3.236658 3.624514 4.421981 -0.003158 0.016513 -0.010025
N -3.222604 3.618166 -5.909098 0.013324 0.006983 0.003568
N -3.226532 3.620585 -0.838820 -0.003041 0.016506 0.012019
N -0.046809 -1.885217 4.425871 0.012438 -0.010322 0.009571
N -0.036458 -1.884570 -5.909551 0.012669 0.008613 0.003099
N -0.036646 -1.888963 -0.837817 0.012237 -0.010383 0.011980
N -0.004134 1.802540 1.886999 0.003575 -0.017727 -0.024635
N -0.005143 1.808885 6.959849 0.003474 0.001148 0.015928
N 0.000607 1.802589 -3.375941 -0.012705 -0.008665 0.002811
N 3.169116 -3.700106 1.887449 -0.025878 -0.014370 -0.024858
N 3.180136 -3.698969 6.957737 0.003618 -0.016639 0.010137
N 3.186357 -3.700165 -3.375274 -0.013437 -0.006773 0.003315
N 1.603995 -0.971051 1.887035 -0.014297 0.023677 -0.021820
N 1.604488 -0.972397 6.957830 -0.014325 0.024195 0.012086
N 1.614546 -0.981818 -3.375293 -0.014434 0.007786 0.006216
N 3.127025 1.804609 1.888292 -0.015184 -0.011277 -0.028436
N 3.127542 1.810112 6.959705 -0.015304 0.007572 0.013052
N 3.146588 1.801250 -3.375013 0.017235 -0.011003 0.006201
N 6.318923 -3.695523 1.883588 0.000611 -0.000717 -0.033830
N 6.318042 -3.700180 6.960315 0.000107 -0.019110 0.013383
N 6.328434 -3.699174 -3.375785 0.000694 -0.000138 0.000089
N 4.746704 -0.976835 1.882230 -0.000563 0.014683 -0.030631
N 4.746709 -0.976973 6.957196 -0.000148 0.015023 0.002888
N 4.756830 -0.975368 -3.372684 -0.000883 0.030337 0.008924
N -3.231695 1.815936 1.889123 0.002646 0.016148 -0.028501
N -3.232022 1.809009 6.956377 0.002419 -0.002413 -0.000965
N -3.225921 1.802482 -3.373378 -0.014055 -0.010804 0.006191
N -0.039216 -3.697343 1.894670 0.017715 -0.009206 -0.041911
N -0.050204 -3.696508 6.951962 -0.014828 -0.009680 -0.013576
N -0.035940 -3.697680 -3.376790 0.001854 0.000190 -0.000312
N -1.616737 -0.976106 1.883740 0.001312 0.015027 -0.030762
N -1.617797 -0.975787 6.957043 0.000135 0.015435 0.002798
N -1.606976 -0.979556 -3.374301 0.000903 0.014681 0.002876
