108
Energy=-985970.009043 Lattice="9.461446 0.000000 0.000000 -4.733448 8.192273 0.000000 -0.008794 0.000566 15.227187" Stress="0.000001 -0.000001 -0.000002 -0.000001 -0.000000 -0.000000 -0.000002 -0.000000 0.000003" Properties=species:S:1:pos:R:3:forces:R:3
Al 1.549518 0.882077 2.423825 0.000451 -0.000141 -0.000040
Al 1.551072 0.870397 7.452706 0.000176 0.000061 0.000205
Al 1.553812 0.868959 -2.717320 -0.000068 -0.000051 -0.000091
Al -0.028660 3.600454 2.390175 0.000014 0.000083 0.000084
Al -0.020319 3.593411 7.440168 -0.000229 0.000096 -0.000061
Al -0.022655 3.592635 -2.665010 -0.000026 0.000195 -0.000079
Al 3.138518 -1.866173 2.386715 0.000111 -0.000082 0.000263
Al 3.118780 -1.853084 7.466106 -0.000238 -0.000297 -0.000071
Al 3.132410 -1.854633 -2.684919 -0.000046 -0.000225 -0.000017
Al -4.752842 0.872860 2.392755 0.000017 0.000026 0.000231
Al -4.763743 0.879849 7.464574 -0.000092 0.000182 0.000239
Al -4.759148 0.866142 -2.691041 0.000444 0.000170 -0.000003
Al -6.342022 3.595133 2.389256 0.000422 0.000439 -0.000524
Al -6.352200 3.586896 7.464632 0.000023 0.000053 -0.000210
Ga -6.332918 3.593116 -2.679986 -0.000142 0.000107 0.000281
Al -3.181864 -1.861270 2.385640 0.000041 -0.000017 -0.000272
Ga -3.174239 -1.864706 7.470806 0.000225 0.000021 0.000229
Ga -3.184765 -1.860774 -2.687345 0.000028 0.000006 0.000826
Al -1.606024 0.878579 2.385990 0.000026 0.000125 -0.000123
Al -1.598869 0.875392 7.461371 0.000002 0.000048 0.000222
Ga -1.591900 0.884680 -2.681061 0.000542 -0.000273 0.000333
Al -3.169784 3.593121 2.383387 0.000165 -0.000072 0.000066
Ga -3.172388 3.592451 7.454432 0.000331 0.000053 0.000183
Al -3.173501 3.600496 -2.664847 0.000515 -0.000367 -0.000302
Ga -0.026912 -1.855659 2.398200 0.000251 -0.000023 0.000129
Al -0.017537 -1.836895 7.455758 -0.000355 0.000122 -0.000229
Al -0.006271 -1.853441 -2.677108 0.000132 -0.000025 0.000340
Al -0.031070 1.780259 4.923163 0.000049 0.000227 0.000228
Al -0.012801 1.780321 -5.250176 -0.000003 0.000284 0.000273
Al -0.026348 1.786746 -0.130306 -0.000501 0.000479 0.000783
Al 3.139822 -3.683927 4.914119 -0.000335 0.000138 -0.000231
Ga 3.156639 -3.681161 -5.207351 -0.000180 -0.000003 0.000373
Al 3.137970 -3.688372 -0.152768 0.000105 -0.000150 0.000640
Al 1.556986 -0.940003 4.934728 0.000090 -0.000062 0.000337
Al 1.557504 -0.935642 -5.227389 0.000075 0.000163 0.000189
Ga 1.559347 -0.945876 -0.154946 -0.000822 -0.000141 0.001345
Al 3.121355 1.782154 4.923870 -0.000010 0.000223 0.000458
Al 3.130612 1.767748 -5.239709 0.000160 0.000076 0.000178
Ga 3.130273 1.777119 -0.135245 0.000061 -0.000022 0.000767
Al 6.278955 -3.692018 4.909194 -0.000035 0.000210 -0.000078
Al 6.281648 -3.690945 -5.234487 -0.000079 -0.000243 0.000432
Al 6.273010 -3.676536 -0.121627 0.000100 -0.000102 0.000487
Ga 4.702770 -0.948683 4.918987 -0.000152 0.000171 0.000436
Al 4.706623 -0.936121 -5.233173 -0.000125 0.000157 -0.000099
Al 4.717300 -0.953485 -0.131957 0.000139 0.000502 0.000711
Al -3.169584 1.773936 4.911142 -0.000335 0.000136 -0.000219
Al -3.177569 1.761274 -5.220771 -0.000091 -0.000194 0.000109
Al -3.175710 1.782784 -0.132806 0.000259 -0.000022 -0.000205
Ga -0.030399 -3.685191 4.930896 0.000122 -0.000306 0.000282
Ga -0.028240 -3.670324 -5.229128 0.000211 -0.000094 0.000328
Al -0.016835 -3.681862 -0.139549 0.000463 0.000565 -0.000267
Al -1.602103 -0.931779 4.928772 -0.000175 -0.000278 -0.000051
Al -1.588345 -0.937043 -5.233953 -0.000310 -0.000199 0.000027
Al -1.609132 -0.949625 -0.134130 0.000500 0.000404 -0.000612
N 1.547313 0.873042 4.341140 0.000110 0.000084 -0.000400
N 1.557682 0.868772 -5.846101 0.000020 -0.000019 -0.000110
N 1.509657 0.901231 -0.808448 -0.000117 -0.000144 0.000700
N -0.028721 3.598089 4.312113 0.000045 -0.000208 -0.000259
N 0.017551 3.579381 -5.875380 0.000126 -0.000230 -0.000082
N -0.019291 3.595111 -0.740920 0.000138 0.000130 -0.000067
N 3.086735 -1.884356 4.297707 0.000122 -0.000264 0.000047
N 3.129701 -1.817472 -5.845082 0.000208 0.000119 0.000065
N 3.179543 -1.879826 -0.767682 -0.000073 -0.000226 -0.000222
N -4.757240 0.918930 4.302004 0.000244 0.000273 -0.000295
N -4.748809 0.875447 -5.841512 0.000039 0.000000 -0.000397
N -4.711780 0.846058 -0.768339 -0.000194 -0.000500 -0.000281
N -6.375146 3.577947 4.297287 -0.000080 -0.000482 0.000183
N -6.371834 3.574366 -5.847114 -0.000226 -0.000100 -0.000144
N -6.337513 3.648020 -0.707595 -0.000568 0.000240 -0.000087
N -3.135280 -1.882844 4.304486 0.000284 0.000076 -0.000055
N -3.170354 -1.860891 -5.774676 0.000010 0.000226 0.000052
N -3.179018 -1.862931 -0.699555 0.000352 -0.000043 -0.000381
N -1.600983 0.872879 4.308418 0.000181 -0.000128 -0.000519
N -1.598678 0.876467 -5.836769 0.000037 -0.000139 -0.000380
N -1.599402 0.875687 -0.697137 0.000418 -0.000606 0.000069
N -3.138933 3.578931 4.303658 0.000224 -0.000245 0.000064
N -3.167419 3.552594 -5.811061 0.000147 0.000222 -0.000108
N -3.177644 3.596766 -0.741444 -0.000064 0.000116 -0.000187
N -0.024496 -1.810723 4.364194 -0.000179 0.000294 -0.000247
N -0.014301 -1.803790 -5.858406 -0.000028 -0.000085 -0.000090
N -0.062377 -1.878526 -0.759244 -0.000494 -0.000131 -0.000127
N -0.020338 1.780736 1.796494 0.000384 -0.000321 -0.000791
N -0.028563 1.778026 6.849610 -0.000227 -0.000094 -0.000200
N 0.017114 1.811401 -3.329505 -0.000169 -0.000240 -0.000679
N 3.132943 -3.682059 1.776119 -0.000008 0.000103 -0.000927
N 3.173141 -3.653131 6.831085 0.000025 0.000321 -0.000117
N 3.139890 -3.683825 -3.224232 -0.000223 0.000036 0.000289
N 1.597063 -0.918245 1.819836 -0.000256 0.000512 -0.001445
N 1.559068 -0.946257 6.853488 -0.000315 -0.000012 -0.000371
N 1.558865 -0.952539 -3.296047 -0.000330 -0.000025 -0.000303
N 3.125052 1.773960 1.840729 -0.000362 -0.000206 -0.000317
N 3.128452 1.780318 6.851565 -0.000240 -0.000093 -0.000300
N 3.135476 1.733623 -3.319576 -0.000014 -0.000178 -0.000266
N 6.278571 -3.682159 1.795923 0.000045 -0.000011 -0.000584
N 6.283530 -3.725201 6.822868 0.000244 -0.000248 0.000137
N 6.241917 -3.709324 -3.327291 -0.000164 -0.000049 -0.000021
N 4.705767 -0.947163 1.794354 -0.000049 -0.000059 -0.000429
N 4.665414 -0.925285 6.891280 -0.000091 -0.000051 0.000190
N 4.667750 -0.924743 -3.316960 -0.000331 -0.000074 -0.000522
N -3.181601 1.780333 1.784121 0.000032 0.000115 0.000106
N -3.180980 1.728433 6.825245 0.000460 -0.000399 0.000189
N -3.216882 1.801478 -3.305202 -0.000359 0.000509 0.000464
N -0.018788 -3.726250 1.776440 -0.000588 -0.000390 0.000470
N -0.070125 -3.657961 6.903543 -0.000095 0.000350 0.000197
N 0.021622 -3.655319 -3.253361 0.000014 0.000070 -0.000160
N -1.640526 -0.924658 1.770919 -0.000356 0.000054 0.000708
N -1.567219 -0.919209 6.841142 0.000296 -0.000066 0.000085
N -1.553406 -0.969262 -3.322929 0.000095 0.000084 -0.000375
