108
Energy=-1626826.718958 Lattice="9.535771 0.000000 0.000000 -4.770225 8.258077 0.000000 -0.001927 -0.001013 15.409039" Stress="-0.000006 -0.000001 0.000000 -0.000001 -0.000007 -0.000001 0.000000 -0.000001 -0.000008" Properties=species:S:1:pos:R:3:forces:R:3
Al 1.569727 0.873222 2.425933 -0.000030 0.000039 -0.000009
Al 1.576226 0.887661 7.549406 0.001581 -0.000932 0.000196
Al 1.572334 0.874277 -2.715831 0.000013 0.000015 -0.000033
Al -0.027033 3.631716 2.444679 0.000112 -0.000338 -0.000063
Al 0.007700 3.608271 7.520646 -0.006745 0.014502 0.002484
Al -0.005096 3.629872 -2.712037 0.000005 0.000004 -0.000120
Al 3.153268 -1.868605 2.432778 -0.000106 0.000429 -0.000094
Al 3.161138 -1.880735 7.527135 -0.000389 -0.002180 -0.000212
Ga 3.145381 -1.865834 -2.700623 -0.000029 -0.000005 -0.000084
Al -4.793833 0.877691 2.444407 -0.000090 -0.000210 0.000119
Ga -4.821219 0.870416 7.534438 -0.000291 0.000659 0.000099
Al -4.803301 0.885129 -2.711474 0.000004 -0.000013 -0.000005
Ga -6.382616 3.625396 2.435401 0.000007 -0.000098 -0.000169
Al -6.380645 3.648717 7.529234 -0.006242 -0.006859 0.002514
Ga -6.397614 3.624999 -2.716586 0.000029 0.000057 -0.000144
Ga -3.220033 -1.879387 2.442352 -0.000077 0.000095 0.000100
Al -3.234267 -1.903588 7.547095 0.010154 0.001710 -0.000881
Ga -3.195849 -1.889332 -2.725864 -0.000045 -0.000018 -0.000114
Al -1.615447 0.898059 2.411983 0.000079 0.000017 -0.000006
Ga -1.597279 0.866799 7.571073 -0.001229 -0.001732 0.000264
Ga -1.607299 0.875687 -2.710965 0.000116 0.000024 -0.000031
Al -3.199512 3.629571 2.423949 -0.000382 -0.000064 -0.000295
Ga -3.198975 3.656301 7.530581 0.002375 0.000571 0.000001
Ga -3.205311 3.628108 -2.686795 -0.000005 0.000094 -0.000056
Ga -0.000636 -1.873979 2.427259 0.000020 0.000039 -0.000050
Al -0.025593 -1.876640 7.541867 -0.001466 0.000265 0.000603
Al -0.016409 -1.864070 -2.702673 0.000027 -0.000101 -0.000066
Ga -0.010173 1.810767 4.981614 -0.000111 -0.000087 -0.001318
Ga 0.000026 1.809320 -5.285251 -0.000008 0.000258 0.000698
Ga -0.012026 1.802469 -0.131901 0.000007 0.000009 -0.000074
Al 3.157882 -3.701181 4.948095 0.002826 0.001390 0.005813
Ga 3.179050 -3.708627 -5.289017 0.000118 -0.000089 -0.001088
Ga 3.159405 -3.715580 -0.113317 -0.000053 0.000071 -0.000183
Ga 1.586383 -0.959440 5.002266 0.000069 -0.000049 0.000123
Ga 1.559112 -0.948708 -5.306970 -0.000026 -0.000072 -0.000020
Al 1.561235 -0.957379 -0.135494 -0.000040 0.000043 0.000015
Al 3.151968 1.800799 4.978223 0.000321 -0.000060 0.000524
Al 3.144764 1.803942 -5.287014 0.000033 0.000400 -0.000492
Ga 3.160446 1.794835 -0.134993 0.000019 0.000002 -0.000103
Al 6.336858 -3.714908 5.009384 -0.001591 0.000570 0.000637
Al 6.339822 -3.714434 -5.326193 0.000215 -0.000352 -0.000385
Al 6.336026 -3.716831 -0.132459 0.000024 0.000002 -0.000092
Al 4.735406 -0.971977 4.988946 0.000055 0.000981 -0.000933
Ga 4.754879 -0.959139 -5.298700 -0.000209 -0.000030 0.000480
Ga 4.745009 -0.945671 -0.129229 -0.000040 -0.000012 -0.000039
Ga -3.215180 1.804707 4.962777 -0.000094 -0.000613 0.000263
Ga -3.214150 1.790460 -5.281572 0.000110 0.000191 0.000017
Al -3.217872 1.800121 -0.112947 0.000025 -0.000002 -0.000056
Al -0.027156 -3.718876 5.000107 -0.000175 0.000234 -0.000214
Ga -0.047367 -3.701154 -5.296463 -0.000167 -0.000070 0.000361
Al -0.020307 -3.704841 -0.142501 0.000021 -0.000014 -0.000095
Ga -1.621875 -0.967952 4.996411 -0.000321 -0.000121 0.001214
Al -1.609354 -0.978476 -5.294821 0.000008 -0.000078 -0.000733
Ga -1.601586 -0.968054 -0.135969 -0.000065 0.000006 0.000001
N 1.606350 0.895151 4.334851 -0.000202 0.000117 0.000098
N 1.612208 0.906320 -5.947426 -0.000128 -0.000023 -0.000417
N 1.569522 0.830732 -0.796213 0.000061 -0.000025 0.000029
N -0.015170 3.681798 4.359282 0.000160 -0.000173 -0.000583
N 0.015270 3.656269 -5.968336 0.000842 -0.001280 -0.001195
N 0.020234 3.657284 -0.795619 0.000031 0.000027 0.000069
N 3.193239 -1.891656 4.350248 -0.000261 -0.000192 -0.000759
N 3.158557 -1.876637 -5.968739 0.000014 0.000279 0.000036
N 3.115624 -1.854615 -0.730081 -0.000007 -0.000008 0.000065
N -4.836861 0.850846 4.363066 0.000030 -0.000603 0.000244
N -4.841394 0.902984 -5.905034 -0.000014 -0.000108 -0.000168
N -4.750797 0.906203 -0.795527 0.000055 0.000031 0.000046
N -6.384370 3.637204 4.423620 0.000856 -0.000510 -0.000141
N -6.421414 3.600300 -5.939700 0.000552 0.000795 -0.000965
N -6.384495 3.677635 -0.728794 -0.000008 0.000016 0.000075
N -3.244344 -1.907233 4.415366 -0.000203 -0.000039 -0.000099
N -3.159698 -1.898954 -5.933926 -0.001031 -0.000506 0.000000
N -3.200675 -1.925485 -0.746783 0.000017 -0.000025 0.000047
N -1.610083 0.878812 4.318414 0.000262 0.000304 -0.000012
N -1.606767 0.832488 -5.864771 0.000171 0.000089 -0.000120
N -1.655956 0.905306 -0.729721 0.000028 -0.000020 0.000080
N -3.208520 3.685979 4.351783 -0.001612 -0.000701 -0.001672
N -3.201678 3.639193 -5.910686 -0.000198 -0.000207 0.000099
N -3.239930 3.605231 -0.706577 0.000036 -0.000032 0.000141
N -0.016060 -1.922287 4.395169 0.000222 -0.000339 -0.000070
N -0.061556 -1.852328 -5.956787 0.000186 -0.000087 -0.000407
N 0.022430 -1.896120 -0.775167 0.000070 -0.000035 0.000026
N -0.016189 1.802462 1.860306 -0.000022 0.000142 0.000013
N 0.017215 1.819520 6.962832 0.000861 -0.006762 -0.001887
N 0.024087 1.821693 -3.297520 -0.000015 -0.000047 0.000180
N 3.160925 -3.709984 1.873497 0.000018 -0.000125 0.000571
N 3.200126 -3.685453 6.886207 0.002998 -0.002806 -0.001178
N 3.200794 -3.734976 -3.309900 0.000061 0.000057 0.000040
N 1.608005 -0.929712 1.787201 0.000138 -0.000029 0.000081
N 1.566787 -0.954196 6.987247 0.000327 0.000847 -0.000134
N 1.523797 -0.933439 -3.320833 -0.000095 0.000092 0.000052
N 3.157536 1.748365 1.841681 -0.000004 -0.000012 0.000148
N 3.108600 1.821509 6.893899 0.000380 0.001872 0.000096
N 3.151627 1.750126 -3.354429 -0.000008 -0.000050 0.000022
N 6.291590 -3.737158 1.777370 -0.000003 -0.000014 0.000052
N 6.338734 -3.717558 6.928778 -0.000160 0.000433 0.000143
N 6.293928 -3.737041 -3.405719 0.000002 -0.000012 0.000177
N 4.703572 -0.927629 1.846340 0.000009 0.000063 0.000033
N 4.745510 -1.006109 6.911047 -0.002410 0.000574 -0.000589
N 4.745275 -0.912187 -3.320223 -0.000020 0.000061 0.000090
N -3.212875 1.796680 1.822614 0.000007 0.000074 0.000085
N -3.200889 1.793500 6.927272 -0.000046 -0.000167 -0.000251
N -3.245061 1.774584 -3.315038 -0.000008 -0.000189 0.000026
N 0.015077 -3.731773 1.770403 0.000172 -0.000117 0.000178
N -0.069456 -3.690049 6.919462 0.003362 0.002700 -0.001751
N -0.025594 -3.660347 -3.316044 0.000077 0.000080 0.000209
N -1.612009 -0.915162 1.834623 -0.000037 0.000008 0.000019
N -1.615912 -1.002624 6.966677 -0.003785 -0.001822 0.000928
N -1.567079 -0.986626 -3.368791 -0.000075 -0.000071 -0.000069
