108
Energy=-1.581051e+06 Lattice="9.534284e+00 0.000000e+00 0.000000e+00 -4.771065e+00 8.257970e+00 0.000000e+00 -1.961332e-04 2.343902e-03 1.539398e+01" Stress="-3.578885e-04 -9.860890e-05 -1.254081e-04 -1.029569e-04 5.899188e-04 6.483118e-05 -1.163331e-04 6.346723e-05 -8.240839e-04" Properties=species:S:1:pos:R:3:forces:R:3 Config_type=AlGaN_super3_25_2_29.xyz
Al 1.556208e+00 8.709804e-01 2.406511e+00 -4.254658e-04 2.239893e-04 -9.080163e-05
Al 1.549732e+00 8.706365e-01 7.546860e+00 1.796376e-04 -4.864520e-05 -9.969512e-05
Al 1.557670e+00 8.972813e-01 -2.703403e+00 -3.183364e-03 -9.390547e-03 -3.498088e-04
Al -4.313753e-02 3.625134e+00 2.401499e+00 5.417614e-04 -5.679330e-04 -1.838534e-03
Al -3.276700e-02 3.613560e+00 7.543942e+00 -1.693474e-05 2.067361e-04 5.718409e-05
Al -4.513444e-02 3.637178e+00 -2.714690e+00 4.132649e-03 -5.049300e-03 8.379683e-03
Al 3.144486e+00 -1.880761e+00 2.374757e+00 -6.814762e-05 -1.729181e-04 1.130730e-03
Al 3.139923e+00 -1.874920e+00 7.554628e+00 5.857872e-05 2.256325e-05 8.662402e-05
Ga 3.147147e+00 -1.877992e+00 -2.688861e+00 -2.013120e-03 1.800050e-03 5.081481e-04
Ga -4.793788e+00 8.785816e-01 2.401314e+00 1.809791e-04 4.311236e-05 2.921865e-05
Ga -4.782823e+00 8.857594e-01 7.550705e+00 1.546508e-04 -8.072536e-05 -8.304926e-05
Al -4.775132e+00 8.743005e-01 -2.693937e+00 -1.391572e-03 1.610842e-03 1.735722e-03
Ga -6.394231e+00 3.618818e+00 2.383628e+00 -1.353003e-04 2.391744e-04 1.431129e-05
Ga -6.385108e+00 3.626154e+00 7.564093e+00 -1.263231e-05 1.918903e-04 -8.607202e-05
Ga -6.384553e+00 3.626368e+00 -2.685755e+00 -6.196812e-04 -5.837680e-04 8.021171e-04
Ga -3.204704e+00 -1.869028e+00 2.385486e+00 1.443463e-04 -4.896563e-04 -7.794958e-05
Ga -3.206350e+00 -1.877217e+00 7.545386e+00 -5.087562e-05 1.258010e-05 1.327636e-04
Al -3.198223e+00 -1.864036e+00 -2.666902e+00 1.338160e-03 -4.676738e-04 -5.165332e-04
Al -1.602633e+00 8.868514e-01 2.424590e+00 4.931970e-05 1.458823e-04 -3.197565e-05
Ga -1.601595e+00 9.060806e-01 7.547581e+00 -2.633782e-05 -1.588256e-04 -3.050192e-05
Al -1.604063e+00 8.921348e-01 -2.723942e+00 1.558912e-04 -2.481692e-03 9.367308e-04
Al -3.174627e+00 3.630688e+00 2.408391e+00 -3.599205e-05 -4.322707e-05 1.543149e-05
Al -3.187081e+00 3.623931e+00 7.550343e+00 -3.302265e-05 3.189375e-05 -6.221148e-05
Al -3.195181e+00 3.621715e+00 -2.704208e+00 2.909407e-03 -9.207744e-04 2.404040e-03
Ga -9.406548e-03 -1.848683e+00 2.412136e+00 -6.193359e-05 -2.042583e-04 2.358658e-04
Ga 2.663179e-03 -1.861563e+00 7.537554e+00 -3.161107e-05 -7.906256e-05 6.619026e-05
Al -2.430369e-02 -1.872711e+00 -2.694707e+00 3.717825e-03 8.259679e-03 1.186004e-03
Al -2.605810e-02 1.781822e+00 4.953157e+00 -1.185823e-04 -1.984850e-04 7.455562e-05
Al -1.838408e-02 1.784890e+00 -5.266859e+00 -5.905680e-04 1.700140e-03 1.143181e-03
Ga -1.856171e-02 1.789638e+00 -1.447697e-01 5.318696e-05 9.866664e-04 -4.559692e-04
Ga 3.154713e+00 -3.712932e+00 4.978936e+00 -1.470868e-04 2.095696e-04 6.416386e-05
Ga 3.155879e+00 -3.726441e+00 -5.287622e+00 -2.354517e-04 2.875315e-04 -7.089465e-04
Al 3.168626e+00 -3.706506e+00 -1.362896e-01 -1.659936e-04 8.289093e-04 -7.726374e-04
Al 1.569272e+00 -9.411809e-01 4.968908e+00 -4.523492e-04 -3.428751e-04 -1.065632e-04
Al 1.562464e+00 -9.441396e-01 -5.268178e+00 -8.349182e-05 2.512117e-05 1.674334e-03
Al 1.566918e+00 -9.522106e-01 -1.457343e-01 2.696590e-03 6.671546e-04 -1.532272e-03
Ga 3.136314e+00 1.778885e+00 4.986080e+00 5.674285e-06 2.189082e-05 1.921884e-05
Ga 3.141539e+00 1.771221e+00 -5.261310e+00 -6.319108e-05 -1.483523e-04 -1.154678e-04
Al 3.141091e+00 1.767155e+00 -1.558611e-01 -3.788991e-05 1.744120e-03 -1.574287e-03
Ga 6.323038e+00 -3.714282e+00 4.974045e+00 1.590910e-04 7.151413e-05 -1.288211e-05
Ga 6.315968e+00 -3.719304e+00 -5.247308e+00 1.672979e-04 3.045907e-04 -2.162404e-04
Al 6.319918e+00 -3.705706e+00 -1.645787e-01 -2.207854e-03 1.716875e-04 1.776708e-03
Ga 4.735265e+00 -9.581024e-01 4.972815e+00 -9.011173e-05 -9.795404e-05 -3.135052e-05
Ga 4.739593e+00 -9.528444e-01 -5.250982e+00 -8.261303e-05 -1.429138e-04 1.365322e-05
Al 4.737073e+00 -9.692504e-01 -1.564499e-01 6.914130e-04 2.439366e-03 -1.253328e-03
Al -3.179246e+00 1.796685e+00 4.958152e+00 -2.191316e-05 -2.054650e-05 1.101078e-05
Al -3.192128e+00 1.801479e+00 -5.245010e+00 6.049148e-05 -1.328768e-04 2.171282e-05
Ga -3.196896e+00 1.789899e+00 -1.532979e-01 -1.191123e-04 -1.812269e-04 -2.752950e-04
Ga -5.185058e-03 -3.707564e+00 4.972396e+00 -2.668032e-05 1.074624e-05 -5.610416e-06
Ga 2.281051e-03 -3.710020e+00 -5.251048e+00 -9.212890e-05 2.144535e-04 -9.414864e-04
Ga -1.022413e-02 -3.695578e+00 -1.557523e-01 1.654805e-04 -3.529870e-04 5.130300e-04
Al -1.602130e+00 -9.309610e-01 4.969470e+00 -1.823872e-05 1.606244e-05 1.188770e-04
Ga -1.600444e+00 -9.444302e-01 -5.239735e+00 -1.319339e-04 -2.254269e-04 6.295777e-04
Al -1.613961e+00 -9.523623e-01 -1.698641e-01 7.366254e-04 4.633889e-07 -1.159776e-03
N 1.523859e+00 8.512313e-01 4.326680e+00 3.018339e-05 1.590094e-04 -1.722900e-04
N 1.513032e+00 8.501139e-01 -5.915704e+00 7.722149e-04 -3.743290e-04 -8.850493e-04
N 1.595260e+00 8.465436e-01 -7.886771e-01 4.037633e-04 1.434417e-03 -8.342736e-04
N -3.095970e-02 3.583505e+00 4.314020e+00 -7.895703e-05 1.206721e-04 6.395285e-04
N -2.215351e-02 3.570349e+00 -5.931664e+00 1.155560e-05 -2.419280e-04 -1.389403e-04
N -3.431064e-02 3.669497e+00 -7.741723e-01 6.447146e-04 3.073607e-04 -4.000760e-03
N 3.109511e+00 -1.855010e+00 4.303208e+00 1.935735e-04 -1.060423e-04 -5.238340e-04
N 3.110344e+00 -1.849801e+00 -5.914421e+00 3.406181e-04 -2.135919e-04 -3.643007e-04
N 3.151720e+00 -1.878836e+00 -7.083930e-01 -1.658541e-03 -8.669155e-04 1.148546e-03
N -4.751924e+00 9.035102e-01 4.374887e+00 7.434892e-05 6.415899e-05 -7.514941e-05
N -4.741001e+00 9.033946e-01 -5.866416e+00 4.261405e-05 8.648191e-05 9.210603e-05
N -4.829215e+00 8.587996e-01 -7.719311e-01 8.853168e-04 -2.107311e-03 -8.589292e-04
N -6.382046e+00 3.626059e+00 4.352537e+00 1.292819e-05 -5.925834e-05 2.603069e-05
N -6.379892e+00 3.629282e+00 -5.859287e+00 1.657960e-04 -8.335065e-06 2.092134e-04
N -6.422625e+00 3.606295e+00 -7.115748e-01 7.098233e-04 -1.561872e-03 -9.079544e-05
N -3.156605e+00 -1.848393e+00 4.363841e+00 -3.633054e-05 6.559936e-05 9.555450e-06
N -3.194677e+00 -1.874206e+00 -5.882053e+00 -5.409254e-05 2.580482e-06 -3.246415e-04
N -3.200306e+00 -1.874472e+00 -7.473181e-01 2.618008e-04 2.150021e-04 -3.273954e-04
N -1.609592e+00 8.782499e-01 4.353123e+00 2.730834e-05 -9.621786e-06 2.864904e-05
N -1.611982e+00 9.281300e-01 -5.848649e+00 -2.550516e-04 -2.157658e-04 -3.874107e-04
N -1.609887e+00 8.385441e-01 -8.129804e-01 2.021976e-04 1.496739e-04 -1.364838e-03
N -3.193938e+00 3.586764e+00 4.316584e+00 1.031821e-04 -5.575217e-05 -4.317260e-05
N -3.203911e+00 3.572132e+00 -5.927373e+00 -1.520233e-05 3.274809e-05 3.065447e-04
N -3.152097e+00 3.652656e+00 -7.925565e-01 -3.411163e-04 1.529350e-04 -1.834664e-03
N -1.992428e-02 -1.820770e+00 4.395540e+00 2.304142e-04 1.902120e-04 8.925893e-05
N 1.829421e-02 -1.849917e+00 -5.876766e+00 -7.562156e-05 -1.896103e-04 -3.238677e-04
N -1.220191e-02 -1.817882e+00 -7.733286e-01 -2.407380e-03 -1.544556e-03 -1.097427e-03
N -2.655788e-02 1.791218e+00 1.841286e+00 5.062947e-04 4.267605e-04 5.793117e-04
N 2.123666e-02 1.817290e+00 6.886146e+00 -7.043738e-05 6.051113e-05 -5.734135e-05
N -1.676980e-02 1.811960e+00 -3.332367e+00 1.138151e-05 -8.431517e-04 4.535420e-04
N 3.158521e+00 -3.712764e+00 1.789057e+00 -2.971097e-04 3.119134e-04 1.675450e-04
N 3.159535e+00 -3.707215e+00 6.981148e+00 -6.681355e-05 -1.999206e-05 -4.622525e-05
N 3.161503e+00 -3.757585e+00 -3.307011e+00 -4.382306e-03 1.956409e-03 -1.664636e-03
N 1.604316e+00 -9.265172e-01 1.766649e+00 -7.216165e-05 -2.968986e-04 -1.706967e-04
N 1.617306e+00 -9.268402e-01 6.893870e+00 -6.925907e-05 6.986422e-05 -1.632468e-05
N 1.529468e+00 -9.332479e-01 -3.348491e+00 -1.420770e-03 2.329941e-03 1.840369e-03
N 3.107060e+00 1.760901e+00 1.751601e+00 -5.699110e-05 -1.395118e-04 7.492627e-04
N 3.108148e+00 1.767654e+00 6.959578e+00 -1.530965e-04 -1.043195e-04 1.308926e-05
N 3.153033e+00 1.740809e+00 -3.282672e+00 2.515533e-03 1.541330e-03 -4.111906e-04
N 6.282246e+00 -3.731488e+00 1.753244e+00 7.699372e-05 -1.705857e-04 -9.580636e-04
N 6.289698e+00 -3.736414e+00 6.944882e+00 -8.503260e-06 -5.024277e-05 -9.136216e-05
N 6.287221e+00 -3.683227e+00 -3.268966e+00 4.145815e-04 1.607365e-03 -4.434984e-04
N 4.702038e+00 -9.772686e-01 1.752096e+00 -1.010006e-04 -2.131694e-04 3.358309e-04
N 4.697033e+00 -9.815855e-01 6.947372e+00 -1.191765e-04 2.950954e-05 -4.508216e-05
N 4.785314e+00 -9.378761e-01 -3.270025e+00 7.624488e-05 -4.848606e-04 -2.655894e-04
N -3.154051e+00 1.817408e+00 1.823034e+00 -2.051527e-04 5.377537e-05 9.856785e-05
N -3.194470e+00 1.845548e+00 6.875277e+00 -5.042082e-06 5.318451e-05 -1.208144e-06
N -3.202494e+00 1.799565e+00 -3.316792e+00 -2.604329e-04 1.871225e-04 -6.290390e-05
N 2.750763e-02 -3.725941e+00 1.817164e+00 -4.978070e-05 -2.716439e-06 -1.209830e-05
N 2.524839e-02 -3.734371e+00 6.950360e+00 9.303830e-06 -4.255329e-05 -6.982749e-06
N 2.621620e-02 -3.682771e+00 -3.266643e+00 -1.159683e-03 -2.553599e-03 -9.818210e-04
N -1.608488e+00 -8.993275e-01 1.746725e+00 -3.616076e-05 -5.326656e-05 2.256841e-04
N -1.608920e+00 -9.446958e-01 6.881754e+00 -1.110982e-04 6.630476e-05 -8.828330e-05
N -1.611344e+00 -9.618339e-01 -3.257747e+00 -6.632930e-04 9.491848e-04 6.068677e-04
