108
Energy=-9.859700e+05 Lattice="9.461296e+00 0.000000e+00 0.000000e+00 -4.733194e+00 8.192266e+00 0.000000e+00 -8.602733e-03 5.580963e-04 1.522707e+01" Stress="2.360051e-04 -1.795378e-04 -3.396870e-04 -1.668851e-04 -1.091439e-04 -3.898454e-05 -3.503964e-04 -3.126225e-05 5.015419e-04" Properties=species:S:1:pos:R:3:forces:R:3 Config_type=AlGaN_super3_12_2_23.xyz
Al 1.550287e+00 8.816727e-01 2.423392e+00 1.788676e-04 4.438636e-05 8.609810e-05
Al 1.551105e+00 8.705418e-01 7.452725e+00 1.238085e-04 2.044251e-05 2.048025e-04
Al 1.553508e+00 8.687843e-01 -2.717357e+00 4.853793e-06 1.466365e-06 1.413858e-04
Al -2.832341e-02 3.600380e+00 2.389809e+00 -1.285345e-05 1.622151e-05 1.512224e-04
Al -2.050413e-02 3.593562e+00 7.440218e+00 -1.211486e-04 8.370488e-05 -1.838413e-04
Al -2.272226e-02 3.592752e+00 -2.665020e+00 -1.347934e-05 7.369531e-05 -3.541581e-05
Al 3.138352e+00 -1.866285e+00 2.386880e+00 1.427072e-05 -8.930365e-06 1.455353e-04
Al 3.118444e+00 -1.853241e+00 7.465923e+00 -2.572358e-04 -2.010087e-04 -3.210661e-06
Al 3.132012e+00 -1.854751e+00 -2.684949e+00 1.827909e-05 -5.835826e-05 6.133804e-05
Al -4.752589e+00 8.728702e-01 2.393149e+00 5.909833e-05 7.268665e-05 7.440349e-05
Al -4.763621e+00 8.800140e-01 7.464647e+00 -1.601927e-05 1.712551e-04 2.027106e-04
Al -4.758844e+00 8.660669e-01 -2.690959e+00 2.967771e-04 1.407624e-04 -4.722267e-05
Al -6.341437e+00 3.595440e+00 2.388352e+00 2.682859e-04 2.530121e-04 -1.678536e-04
Al -6.351781e+00 3.586981e+00 7.464251e+00 3.590271e-05 4.966322e-05 -8.463630e-05
Ga -6.332899e+00 3.593081e+00 -2.679628e+00 -8.637061e-05 5.663362e-05 2.753357e-04
Al -3.182114e+00 -1.861494e+00 2.385385e+00 1.557734e-04 9.981503e-05 -2.234539e-04
Ga -3.174081e+00 -1.864848e+00 7.471103e+00 2.125342e-04 5.840098e-07 1.990841e-04
Ga -3.184947e+00 -1.860672e+00 -2.686944e+00 2.028047e-06 5.979177e-05 7.394416e-04
Al -1.605633e+00 8.785507e-01 2.385595e+00 3.010284e-05 2.011493e-04 3.313387e-06
Al -1.598616e+00 8.753829e-01 7.461480e+00 6.962322e-05 -3.683786e-05 1.732528e-04
Ga -1.591609e+00 8.844840e-01 -2.680809e+00 4.618724e-04 -2.866922e-04 2.245425e-04
Al -3.169428e+00 3.593051e+00 2.383274e+00 1.825460e-04 -1.472371e-04 5.636123e-05
Ga -3.171679e+00 3.592515e+00 7.454467e+00 2.663478e-04 2.000229e-05 1.525532e-04
Al -3.172837e+00 3.600201e+00 -2.665331e+00 2.848189e-04 -1.981991e-04 -8.530916e-05
Ga -2.679326e-02 -1.855702e+00 2.398123e+00 1.660385e-04 9.239220e-06 1.972548e-04
Al -1.797135e-02 -1.836915e+00 7.455426e+00 -1.830883e-04 1.916793e-04 -1.114512e-04
Al -6.343171e-03 -1.853640e+00 -2.676606e+00 4.081960e-05 -1.749985e-05 3.452062e-05
Al -3.087002e-02 1.780304e+00 4.922938e+00 2.915053e-05 1.759745e-04 1.867367e-04
Al -1.283105e-02 1.780525e+00 -5.249953e+00 -3.014354e-05 1.376690e-04 3.961775e-05
Al -2.703307e-02 1.787388e+00 -1.298650e-01 -1.867815e-04 3.402791e-04 6.880088e-04
Al 3.139385e+00 -3.683882e+00 4.913822e+00 -1.587434e-04 3.644991e-05 -3.173483e-04
Ga 3.156494e+00 -3.681113e+00 -5.206904e+00 -1.460535e-04 6.083348e-05 3.316144e-04
Al 3.137952e+00 -3.688248e+00 -1.526766e-01 5.651469e-05 -9.248169e-05 5.050888e-04
Al 1.557131e+00 -9.400498e-01 4.934807e+00 2.066032e-05 1.226965e-05 3.094903e-04
Al 1.557292e+00 -9.353867e-01 -5.227237e+00 1.005147e-05 6.724341e-05 8.371299e-05
Ga 1.558403e+00 -9.461867e-01 -1.544828e-01 -6.292575e-04 -6.449085e-05 1.060197e-03
Al 3.121498e+00 1.782244e+00 4.924188e+00 -6.067737e-05 1.635515e-04 3.061952e-04
Al 3.130709e+00 1.767957e+00 -5.239469e+00 9.210773e-05 3.747254e-05 1.158263e-04
Ga 3.130267e+00 1.776978e+00 -1.345479e-01 2.494042e-05 -8.503984e-06 5.771577e-04
Al 6.278775e+00 -3.691712e+00 4.909098e+00 -1.062371e-05 7.202087e-05 -7.506093e-05
Al 6.281277e+00 -3.691369e+00 -5.233849e+00 -3.310668e-05 -1.175333e-04 2.990281e-04
Al 6.272929e+00 -3.676429e+00 -1.215061e-01 2.232876e-05 1.483845e-05 3.582385e-04
Ga 4.702663e+00 -9.484408e-01 4.919411e+00 -1.028156e-04 1.521651e-04 3.898640e-04
Al 4.706360e+00 -9.357692e-01 -5.233406e+00 -9.814382e-05 6.404513e-05 -8.335156e-05
Al 4.717032e+00 -9.527754e-01 -1.312218e-01 1.301288e-04 1.982466e-04 4.487628e-04
Al -3.169546e+00 1.773809e+00 4.910801e+00 -9.979704e-05 7.382432e-05 -1.084403e-04
Al -3.177437e+00 1.761155e+00 -5.220668e+00 -6.327541e-05 -1.546335e-04 1.591321e-04
Al -3.175123e+00 1.782624e+00 -1.332305e-01 5.817153e-06 3.740151e-05 -1.242046e-04
Ga -3.023403e-02 -3.685448e+00 4.931071e+00 7.638261e-05 -2.577368e-04 2.070355e-04
Ga -2.830192e-02 -3.670492e+00 -5.228917e+00 1.432287e-04 -2.910134e-05 2.817580e-04
Al -1.638707e-02 -3.681265e+00 -1.397545e-01 2.143363e-04 2.093525e-04 -2.757081e-04
Al -1.602172e+00 -9.321325e-01 4.928479e+00 -7.358945e-05 -1.026790e-04 -2.843978e-05
Al -1.588868e+00 -9.373402e-01 -5.234112e+00 -1.160253e-04 -1.696144e-04 8.677264e-05
Al -1.608647e+00 -9.492470e-01 -1.343198e-01 2.326471e-04 2.340141e-04 -3.733372e-04
N 1.547680e+00 8.730031e-01 4.340816e+00 1.021346e-04 3.197431e-05 -3.605494e-04
N 1.557669e+00 8.690014e-01 -5.845980e+00 3.239655e-05 -4.686541e-05 -1.207347e-04
N 1.509341e+00 9.010628e-01 -8.071761e-01 -1.841212e-04 -6.312309e-05 2.574586e-04
N -2.858913e-02 3.598096e+00 4.311749e+00 4.097764e-05 -1.409039e-04 -2.483657e-04
N 1.757045e-02 3.579258e+00 -5.875396e+00 4.774080e-05 -1.474141e-04 -2.643697e-05
N -1.919396e-02 3.595466e+00 -7.408390e-01 9.347599e-05 4.901560e-05 -1.276474e-04
N 3.086836e+00 -1.884501e+00 4.297813e+00 8.183725e-05 -1.631776e-04 -4.803093e-05
N 3.129715e+00 -1.817408e+00 -5.844952e+00 9.160831e-05 8.054273e-05 2.014596e-05
N 3.179065e+00 -1.879831e+00 -7.675874e-01 -1.202802e-05 -1.220928e-04 -1.903011e-04
N -4.756819e+00 9.192342e-01 4.301644e+00 1.274956e-04 1.464714e-04 -8.099867e-05
N -4.748729e+00 8.756872e-01 -5.841621e+00 5.884302e-05 1.659834e-05 -3.289444e-04
N -4.711804e+00 8.457277e-01 -7.686463e-01 -1.168902e-04 -2.992495e-04 -1.370062e-04
N -6.374904e+00 3.577488e+00 4.297394e+00 -5.384214e-05 -2.446714e-04 2.355422e-05
N -6.371885e+00 3.574260e+00 -5.847164e+00 -1.562505e-04 -5.559262e-05 -1.172147e-04
N -6.337976e+00 3.648077e+00 -7.072678e-01 -1.994679e-04 2.079522e-04 -5.783697e-05
N -3.135183e+00 -1.882607e+00 4.304394e+00 1.659219e-04 -1.322930e-05 -8.125438e-05
N -3.170567e+00 -1.861058e+00 -5.774273e+00 -3.246827e-05 1.732041e-04 -1.970874e-05
N -3.178735e+00 -1.862582e+00 -6.995186e-01 2.070689e-04 -2.094707e-05 -2.569128e-04
N -1.600712e+00 8.726903e-01 4.307878e+00 1.497667e-04 -9.955517e-05 -3.985780e-04
N -1.598630e+00 8.763304e-01 -5.836796e+00 7.287502e-06 -1.286926e-04 -3.201320e-04
N -1.599179e+00 8.752568e-01 -6.968405e-01 4.400964e-04 -4.018764e-04 -7.037280e-05
N -3.138466e+00 3.578483e+00 4.303499e+00 1.137997e-04 -1.168614e-04 4.359262e-05
N -3.167077e+00 3.552665e+00 -5.810843e+00 1.426981e-04 1.613590e-04 -1.174540e-04
N -3.177281e+00 3.596818e+00 -7.417648e-01 -7.222475e-05 8.989739e-05 -1.262723e-04
N -2.430503e-02 -1.810677e+00 4.363973e+00 -1.658516e-04 1.632199e-04 -2.043289e-04
N -1.452424e-02 -1.804088e+00 -5.858705e+00 -1.703808e-05 -6.629926e-07 2.008433e-05
N -6.327817e-02 -1.878676e+00 -7.596835e-01 -2.536642e-04 -8.651089e-05 4.891465e-05
N -1.978756e-02 1.780565e+00 1.796060e+00 2.903277e-04 -2.264104e-04 -6.261489e-04
N -2.857874e-02 1.778128e+00 6.849443e+00 -1.872699e-04 -7.024991e-05 -1.808893e-04
N 1.682691e-02 1.811101e+00 -3.330542e+00 -1.022383e-04 -5.942762e-05 -2.277326e-04
N 3.132881e+00 -3.682055e+00 1.775605e+00 -9.631909e-06 1.264104e-04 -7.379663e-04
N 3.173018e+00 -3.652661e+00 6.829950e+00 5.785385e-05 1.867725e-04 1.990902e-04
N 3.139525e+00 -3.683676e+00 -3.223700e+00 -9.039646e-05 -1.158491e-05 1.047718e-04
N 1.596529e+00 -9.177464e-01 1.818941e+00 -4.256901e-05 1.439332e-04 -1.103177e-03
N 1.558754e+00 -9.462200e-01 6.853293e+00 -2.478033e-04 1.827520e-05 -3.144306e-04
N 1.558397e+00 -9.526274e-01 -3.296081e+00 -2.816907e-04 -2.436392e-05 -2.407005e-04
N 3.124966e+00 1.773732e+00 1.840989e+00 -1.437475e-04 -1.030263e-04 -3.551750e-04
N 3.128389e+00 1.780318e+00 6.851491e+00 -1.373988e-04 -8.859827e-05 -2.764177e-04
N 3.135433e+00 1.733505e+00 -3.319673e+00 -4.780651e-05 -1.555373e-04 -1.461808e-04
N 6.278482e+00 -3.682168e+00 1.795412e+00 5.421428e-05 2.585515e-05 -4.358900e-04
N 6.283648e+00 -3.725472e+00 6.822898e+00 1.154249e-04 -1.355070e-04 9.511865e-05
N 6.241504e+00 -3.709285e+00 -3.326847e+00 -1.354014e-04 -7.311575e-05 -6.024562e-05
N 4.705467e+00 -9.471253e-01 1.794460e+00 -4.927173e-05 -4.635560e-05 -3.432986e-04
N 4.665165e+00 -9.253156e-01 6.891749e+00 -3.052232e-05 -2.095938e-05 9.740150e-05
N 4.667416e+00 -9.247151e-01 -3.317568e+00 -3.114138e-04 -7.704244e-05 -3.404264e-04
N -3.181288e+00 1.780327e+00 1.783941e+00 -5.940950e-06 9.852930e-05 4.981995e-05
N -3.180162e+00 1.728091e+00 6.825390e+00 2.043232e-04 -2.553483e-04 7.869311e-05
N -3.216861e+00 1.801979e+00 -3.304448e+00 -2.481921e-04 2.364440e-04 2.104508e-04
N -1.876737e-02 -3.726599e+00 1.776611e+00 -4.742965e-04 -1.916513e-04 2.885042e-04
N -6.975482e-02 -3.657495e+00 6.903822e+00 -1.333495e-04 9.046712e-05 7.907172e-05
N 2.164617e-02 -3.655488e+00 -3.253162e+00 -1.734506e-05 6.630787e-05 -1.483382e-04
N -1.640503e+00 -9.243073e-01 1.771445e+00 -3.578234e-04 -1.626780e-04 4.295900e-04
N -1.567055e+00 -9.193481e-01 6.841089e+00 1.570561e-04 -1.882431e-05 1.943771e-05
N -1.553530e+00 -9.693009e-01 -3.322985e+00 1.038929e-04 5.657314e-05 -3.187097e-04
