108
Energy=-1214847.402606 Lattice="9.488638 0.000000 0.000000 -4.744565 8.216171 0.000000 -0.003998 -0.000060 15.295825" Stress="0.000001 -0.000000 -0.000000 -0.000000 0.000001 -0.000001 -0.000000 -0.000001 0.000001" Properties=species:S:1:pos:R:3:forces:R:3
Al 1.563988 0.884571 2.399732 -0.000008 -0.000033 0.000056
Al 1.563438 0.881696 7.472179 -0.000056 0.000207 0.000127
Al 1.551499 0.878918 -2.678861 -0.000376 -0.000399 0.000104
Al -0.027717 3.602841 2.387445 -0.000255 0.000088 -0.000044
Al -0.029145 3.600429 7.483843 -0.000070 -0.000114 0.000029
Al -0.024046 3.596868 -2.670514 -0.000337 -0.000095 0.000036
Al 3.144649 -1.860841 2.396649 0.000222 0.000087 0.000308
Al 3.140717 -1.857664 7.486400 -0.000092 -0.000001 -0.000036
Ga 3.149560 -1.855516 -2.686403 -0.000095 -0.000143 0.000230
Al -4.790135 0.867636 2.400633 -0.000094 0.000886 0.000393
Al -4.784634 0.874092 7.494551 0.000053 0.000018 -0.000199
Al -4.757273 0.868460 -2.695867 0.000096 0.000013 0.000296
Al -6.352467 3.590139 2.386211 -0.000366 0.000093 -0.000368
Al -6.341997 3.592050 7.491548 0.000050 0.000075 -0.000294
Ga -6.346403 3.604870 -2.673207 -0.000026 0.000156 0.000110
Ga -3.205587 -1.862068 2.406495 0.000152 -0.000197 0.000027
Ga -3.206799 -1.863557 7.483506 -0.000040 0.000070 0.000098
Al -3.204668 -1.859926 -2.676461 -0.000029 0.000226 0.000061
Al -1.589658 0.886065 2.412380 -0.000035 -0.000115 0.000090
Ga -1.596931 0.897312 7.511656 0.000226 -0.000129 0.000014
Al -1.601461 0.898360 -2.711620 -0.000044 -0.000005 0.000283
Ga -3.176450 3.618343 2.410367 0.000062 -0.000046 0.000098
Al -3.191659 3.614832 7.487699 0.000009 -0.000235 -0.000205
Al -3.182956 3.598519 -2.689170 0.000287 -0.000022 -0.000044
Ga -0.012721 -1.861297 2.417156 0.000061 -0.000035 0.000093
Ga -0.005026 -1.873944 7.487887 0.000013 -0.000006 0.000091
Ga -0.007655 -1.864789 -2.689338 0.000070 -0.000007 0.000085
Al -0.014276 1.783113 4.929928 -0.000150 -0.000048 -0.000007
Al -0.012523 1.783647 -5.234726 0.000054 0.000034 0.000056
Al -0.009299 1.792973 -0.143302 -0.000175 -0.000035 0.000407
Al 3.141856 -3.677987 4.957889 0.000335 0.000214 0.000013
Ga 3.133862 -3.696888 -5.256539 -0.000092 0.000027 0.000233
Al 3.148090 -3.684806 -0.152093 -0.000168 -0.000315 -0.000125
Al 1.571120 -0.946221 4.939264 0.000051 -0.000013 -0.000152
Al 1.567449 -0.939846 -5.263581 -0.000049 -0.000055 0.000033
Al 1.573826 -0.941547 -0.124799 -0.000088 0.000143 0.000150
Al 3.134284 1.778728 4.945412 -0.000053 0.000051 -0.000061
Ga 3.140804 1.768989 -5.255297 -0.000084 -0.000009 0.000193
Al 3.132106 1.777909 -0.141858 -0.000102 -0.000132 0.000233
Ga 6.302110 -3.707732 4.941960 -0.000017 -0.000080 0.000086
Ga 6.299515 -3.698943 -5.244337 -0.000103 0.000082 0.000037
Al 6.292784 -3.700010 -0.138342 -0.000157 -0.000082 0.000248
Al 4.696084 -0.947434 4.942848 -0.000303 0.000160 0.000197
Al 4.715664 -0.939186 -5.245700 0.000107 0.000085 0.000103
Al 4.705388 -0.953190 -0.138814 0.000112 0.000253 -0.000035
Ga -3.192350 1.779069 4.945133 -0.000132 -0.000114 0.000260
Al -3.194317 1.793698 -5.242203 -0.000306 -0.000322 0.000149
Ga -3.190477 1.788943 -0.147195 -0.000034 0.000017 0.000491
Al -0.026572 -3.692615 4.956356 -0.000335 -0.000188 -0.000191
Al -0.007669 -3.703115 -5.256334 0.000030 0.000284 0.000102
Al -0.017667 -3.695455 -0.136298 -0.000250 0.000007 -0.000163
Al -1.594389 -0.943644 4.943549 -0.000020 0.000032 0.000057
Ga -1.601482 -0.946538 -5.217889 -0.000086 -0.000103 0.000090
Ga -1.603278 -0.948926 -0.159103 -0.000113 0.000142 0.000379
N 1.560521 0.876245 4.326576 0.000006 0.000063 -0.000142
N 1.513304 0.854166 -5.900893 0.000043 -0.000100 -0.000157
N 1.555506 0.872583 -0.751692 0.000064 -0.000076 -0.000112
N -0.073184 3.589992 4.307358 0.000010 -0.000166 0.000140
N -0.024150 3.558014 -5.901470 0.000007 -0.000035 -0.000027
N -0.022288 3.607086 -0.748599 -0.000049 -0.000020 -0.000080
N 3.138573 -1.870856 4.324958 0.000035 0.000042 -0.000093
N 3.144865 -1.817937 -5.882581 -0.000071 0.000078 -0.000135
N 3.136464 -1.861012 -0.708106 0.000219 0.000160 0.000024
N -4.817561 0.848607 4.313925 0.000095 -0.000022 -0.000067
N -4.724843 0.848943 -5.882365 0.000100 -0.000036 0.000227
N -4.808567 0.847821 -0.777111 -0.000044 0.000094 -0.000100
N -6.305926 3.582494 4.306557 0.000228 -0.000075 0.000437
N -6.305925 3.629592 -5.890734 0.000039 0.000038 0.000058
N -6.347739 3.611607 -0.693481 0.000269 -0.000028 -0.000099
N -3.193287 -1.818898 4.382065 0.000127 0.000025 -0.000118
N -3.225315 -1.840370 -5.844398 -0.000015 0.000009 -0.000063
N -3.236999 -1.889956 -0.757337 -0.000017 -0.000073 -0.000032
N -1.561178 0.855121 4.322708 0.000212 0.000072 -0.000138
N -1.600256 0.925488 -5.804420 0.000093 -0.000084 -0.000017
N -1.560100 0.910322 -0.801646 0.000343 0.000045 -0.000070
N -3.182325 3.664670 4.380066 -0.000151 -0.000028 -0.000243
N -3.223396 3.586350 -5.890053 0.000009 0.000256 -0.000067
N -3.186274 3.659241 -0.770557 0.000161 -0.000064 -0.000043
N -0.017320 -1.868032 4.398846 0.000027 0.000059 -0.000052
N 0.019498 -1.889043 -5.824442 0.000121 -0.000196 -0.000023
N 0.030741 -1.888013 -0.714467 0.000009 -0.000123 -0.000009
N -0.020585 1.784847 1.785426 0.000004 -0.000095 -0.000605
N 0.017550 1.809154 6.843968 -0.000045 0.000003 -0.000174
N -0.009026 1.792078 -3.308281 0.000065 0.000028 -0.000098
N 3.181769 -3.665228 1.764296 0.000191 -0.000133 0.000064
N 3.141302 -3.686489 6.890918 -0.000049 0.000082 -0.000096
N 3.143766 -3.739060 -3.271980 0.000083 -0.000039 0.000037
N 1.601439 -0.923235 1.791060 -0.000168 0.000210 -0.000244
N 1.604309 -0.924827 6.856111 0.000019 -0.000183 0.000140
N 1.566310 -0.897441 -3.350378 -0.000010 0.000321 0.000081
N 3.137061 1.779650 1.781030 0.000033 0.000205 -0.000318
N 3.139001 1.784240 6.877188 0.000042 0.000102 -0.000172
N 3.138110 1.735312 -3.273620 0.000264 0.000077 -0.000142
N 6.298330 -3.738195 1.783359 0.000438 -0.000055 -0.000007
N 6.303489 -3.745883 6.916804 0.000136 0.000003 0.000010
N 6.260514 -3.671864 -3.262523 0.000141 -0.000007 0.000003
N 4.677241 -0.923520 1.772443 -0.000067 -0.000938 -0.000532
N 4.671138 -0.923485 6.854747 0.000003 0.000061 -0.000018
N 4.760927 -0.926633 -3.329108 -0.000011 -0.000015 -0.000232
N -3.188466 1.737497 1.835789 0.000095 -0.000007 -0.000430
N -3.230231 1.804565 6.917225 -0.000085 0.000096 -0.000001
N -3.192235 1.790941 -3.308165 -0.000046 0.000032 -0.000082
N -0.060384 -3.714225 1.765099 0.000058 -0.000000 0.000111
N -0.028631 -3.741441 6.864791 -0.000131 -0.000085 0.000249
N 0.019347 -3.720635 -3.343618 -0.000085 -0.000052 -0.000160
N -1.606597 -0.903622 1.810110 0.000108 0.000094 -0.000427
N -1.601951 -0.943191 6.846934 -0.000112 0.000109 -0.000133
N -1.645550 -0.931038 -3.241957 0.000009 -0.000005 -0.000043
