108
Energy=-1.535276e+06 Lattice="9.527527e+00 0.000000e+00 0.000000e+00 -4.766076e+00 8.250283e+00 0.000000e+00 -3.673493e-03 9.423358e-03 1.538789e+01" Stress="-1.087439e-04 6.018026e-06 -2.635909e-06 5.648528e-06 -9.773323e-05 5.437276e-04 -4.220392e-06 5.305256e-04 -2.190149e-04" Properties=species:S:1:pos:R:3:forces:R:3 Config_type=AlGaN_super3_24_1_42.xyz
Al 1.554311e+00 8.829994e-01 2.390508e+00 -6.413024e-04 -8.531439e-05 5.069563e-04
Al 1.552760e+00 8.779368e-01 7.541682e+00 -3.358394e-05 -1.110425e-04 2.013991e-04
Al 1.546852e+00 8.580691e-01 -2.689620e+00 -3.563093e-04 -6.439426e-05 4.036744e-04
Al -2.274254e-02 3.610148e+00 2.408777e+00 -6.626837e-04 7.560302e-05 2.772808e-04
Al -1.755888e-02 3.630221e+00 7.537467e+00 -4.198933e-04 5.850294e-06 1.166919e-04
Al -3.369115e-02 3.622349e+00 -2.704292e+00 2.132922e-04 2.251458e-05 -1.836193e-04
Al 3.159954e+00 -1.860640e+00 2.386714e+00 2.497270e-04 -2.020740e-04 -1.357832e-05
Al 3.150882e+00 -1.867743e+00 7.555918e+00 -8.308610e-05 -4.125728e-05 1.970728e-04
Al 3.137971e+00 -1.883171e+00 -2.697456e+00 6.367871e-04 1.000213e-03 -8.511159e-06
Al -4.797545e+00 8.629853e-01 2.412094e+00 -8.332258e-05 1.680597e-04 5.795541e-06
Ga -4.805508e+00 8.672390e-01 7.534049e+00 1.672639e-04 -3.003491e-05 6.508050e-05
Ga -4.794801e+00 8.659138e-01 -2.685040e+00 6.828514e-05 -1.529482e-04 -3.395440e-05
Al -6.378203e+00 3.624307e+00 2.424963e+00 -1.147464e-04 9.054146e-05 -1.942776e-04
Ga -6.394261e+00 3.635151e+00 7.546932e+00 1.272238e-04 4.121980e-05 1.244483e-04
Ga -6.385189e+00 3.632503e+00 -2.712822e+00 -5.027776e-05 3.907360e-05 -6.864502e-05
Ga -3.210200e+00 -1.861757e+00 2.417454e+00 2.094195e-04 7.008924e-05 1.861539e-04
Ga -3.208006e+00 -1.880691e+00 7.530610e+00 8.104036e-05 2.194140e-04 3.732810e-04
Ga -3.193021e+00 -1.875322e+00 -2.697870e+00 -2.047361e-05 5.919781e-05 8.198248e-05
Al -1.588576e+00 8.812062e-01 2.407984e+00 5.191501e-04 1.116577e-04 9.089532e-04
Ga -1.591545e+00 8.820498e-01 7.540021e+00 2.868199e-04 -5.303103e-05 5.731413e-05
Al -1.584800e+00 8.681919e-01 -2.692417e+00 -2.903747e-05 7.542840e-05 -3.073015e-05
Ga -3.197114e+00 3.635617e+00 2.399904e+00 2.426180e-04 4.103611e-04 6.299579e-05
Ga -3.192143e+00 3.649255e+00 7.558827e+00 1.723150e-04 1.021546e-04 6.118461e-05
Ga -3.180981e+00 3.648866e+00 -2.696452e+00 -1.008042e-04 -1.000308e-04 7.534954e-05
Ga -1.977949e-02 -1.864363e+00 2.401521e+00 1.802902e-04 9.350094e-05 3.345568e-04
Ga -1.538450e-02 -1.859801e+00 7.558958e+00 2.183157e-04 5.087298e-05 4.543711e-04
Al -1.098468e-02 -1.857993e+00 -2.706787e+00 -6.966175e-05 4.041639e-04 1.244144e-04
Al -1.865350e-02 1.797796e+00 4.964773e+00 -3.537626e-05 -1.155645e-04 2.521475e-05
Ga -1.415175e-02 1.794681e+00 -5.259687e+00 -1.865446e-04 1.349530e-04 3.256416e-04
Al -2.910500e-02 1.788618e+00 -1.575524e-01 -1.247466e-04 -4.811685e-04 3.323743e-04
Ga 3.175400e+00 -3.696516e+00 4.973980e+00 -1.242767e-04 7.161095e-05 1.699775e-04
Al 3.164304e+00 -3.694464e+00 -5.275446e+00 2.015592e-04 4.517616e-06 -2.285227e-04
Al 3.165478e+00 -3.692476e+00 -1.445368e-01 -4.987113e-04 1.443056e-04 3.689572e-04
Ga 1.566720e+00 -9.521458e-01 4.969220e+00 -2.063376e-04 2.035369e-04 1.070656e-04
Al 1.564175e+00 -9.722522e-01 -5.260781e+00 -2.189001e-04 2.066373e-04 6.625119e-05
Al 1.565504e+00 -9.654725e-01 -1.601964e-01 -3.015095e-04 1.121632e-04 -1.415297e-04
Ga 3.136789e+00 1.801619e+00 4.948912e+00 1.149787e-04 1.009051e-04 2.669187e-04
Ga 3.134598e+00 1.791490e+00 -5.269025e+00 3.352430e-06 -5.227901e-06 1.854020e-05
Ga 3.139292e+00 1.787730e+00 -1.177056e-01 2.704932e-05 -2.305721e-05 1.663231e-04
Al 6.327268e+00 -3.704414e+00 4.954752e+00 -2.040827e-06 -2.133181e-04 -2.678937e-04
Al 6.322946e+00 -3.706780e+00 -5.271792e+00 -9.206217e-05 -1.346633e-05 2.653344e-04
Ga 6.317274e+00 -3.706573e+00 -1.280127e-01 1.121405e-04 3.205836e-05 -1.335416e-04
Al 4.740179e+00 -9.655567e-01 4.967653e+00 -1.035328e-04 4.056994e-07 -1.853298e-05
Ga 4.735123e+00 -9.862718e-01 -5.266753e+00 -1.907024e-04 1.458693e-04 2.755029e-04
Al 4.727497e+00 -9.676465e-01 -1.403892e-01 -2.335276e-04 -2.908192e-04 2.377407e-04
Ga -3.192419e+00 1.783964e+00 4.948093e+00 1.609782e-04 1.240152e-04 1.803988e-04
Ga -3.187680e+00 1.796933e+00 -5.253328e+00 -9.111483e-05 3.641993e-05 1.150799e-04
Ga -3.178423e+00 1.785816e+00 -1.267853e-01 -7.738773e-05 -9.815509e-05 -2.608026e-04
Al -4.117257e-02 -3.694537e+00 4.970801e+00 9.893440e-05 9.614511e-05 3.906085e-04
Al -2.062936e-02 -3.686350e+00 -5.257292e+00 -1.362580e-05 7.269430e-05 1.451713e-04
Al -1.903723e-02 -3.683475e+00 -1.502485e-01 7.744634e-05 1.108126e-04 2.761612e-04
Al -1.613025e+00 -9.551492e-01 4.959455e+00 -8.053856e-05 2.999355e-04 1.621168e-04
Al -1.594502e+00 -9.739665e-01 -5.249906e+00 -1.119836e-04 1.081145e-04 2.977475e-04
Al -1.593332e+00 -9.497903e-01 -1.544207e-01 -1.277783e-04 -2.301968e-04 -6.157279e-05
N 1.514026e+00 8.966566e-01 4.303249e+00 -2.052557e-04 1.723827e-04 -1.434840e-04
N 1.557279e+00 8.201539e-01 -5.927722e+00 6.997018e-05 -1.675532e-04 -1.190348e-04
N 1.522093e+00 8.500305e-01 -7.682555e-01 2.151665e-04 1.162857e-05 -3.741240e-04
N 1.336392e-02 3.599191e+00 4.329841e+00 -4.187152e-05 -2.021073e-04 -4.603729e-04
N -2.131474e-02 3.666989e+00 -5.920264e+00 2.004534e-04 2.744516e-04 6.213428e-05
N -6.740544e-02 3.603929e+00 -7.826573e-01 5.332378e-05 1.305939e-04 -1.133875e-04
N 3.191505e+00 -1.848460e+00 4.301171e+00 2.088250e-04 2.788728e-04 -3.817279e-04
N 3.108668e+00 -1.897157e+00 -5.910683e+00 -6.841737e-07 -3.228928e-04 -1.660099e-04
N 3.150639e+00 -1.876411e+00 -7.683554e-01 6.992786e-05 -1.774926e-04 -1.616281e-04
N -4.792382e+00 8.249359e-01 4.324884e+00 5.599366e-06 -2.541270e-04 -2.647533e-04
N -4.786054e+00 8.701017e-01 -5.886188e+00 1.440951e-04 -6.349280e-05 -9.253540e-05
N -4.788750e+00 8.327734e-01 -7.217386e-01 3.863440e-05 2.704196e-04 -1.963783e-05
N -6.374843e+00 3.681875e+00 4.339424e+00 6.422655e-05 4.037929e-06 -2.050176e-05
N -6.374128e+00 3.676469e+00 -5.853275e+00 2.888525e-05 1.567867e-04 -2.991522e-05
N -6.338834e+00 3.651350e+00 -7.457570e-01 5.434395e-05 -4.985506e-05 7.366163e-05
N -3.201087e+00 -1.867385e+00 4.405235e+00 -6.766430e-05 5.149678e-05 -5.986471e-05
N -3.149881e+00 -1.899130e+00 -5.863105e+00 1.938177e-04 -1.407542e-04 -2.753899e-04
N -3.197090e+00 -1.826504e+00 -7.171239e-01 4.496332e-04 -9.067647e-05 -2.888235e-05
N -1.559148e+00 8.550051e-01 4.332710e+00 3.859351e-04 -1.206709e-04 -4.313779e-04
N -1.603952e+00 8.227128e-01 -5.873164e+00 3.124959e-04 -2.876756e-04 -1.689225e-04
N -1.566338e+00 8.505530e-01 -7.804765e-01 1.130609e-04 2.968772e-04 1.212886e-04
N -3.238499e+00 3.664600e+00 4.372813e+00 -1.177269e-04 -1.009143e-04 -1.578528e-04
N -3.199066e+00 3.677147e+00 -5.842033e+00 -8.995927e-05 2.148347e-05 -3.611424e-05
N -3.194412e+00 3.678712e+00 -7.121026e-01 1.358793e-04 4.903221e-05 1.390530e-04
N -6.106892e-02 -1.890684e+00 4.379154e+00 2.494428e-05 -2.550545e-04 -3.177369e-04
N -1.995897e-02 -1.871894e+00 -5.838273e+00 4.340387e-05 -1.692156e-04 -2.268242e-04
N -1.970856e-02 -1.869954e+00 -7.720831e-01 4.328021e-05 -1.816485e-04 -2.050560e-04
N -2.478272e-02 1.797644e+00 1.771240e+00 -1.741107e-04 -5.186537e-05 -1.287372e-04
N 1.839562e-02 1.825245e+00 6.899279e+00 2.148460e-04 -4.092392e-04 -5.344806e-04
N -1.807522e-02 1.795171e+00 -3.271591e+00 1.277207e-04 -1.062393e-04 -1.048385e-04
N 3.204850e+00 -3.678990e+00 1.777077e+00 3.311607e-04 -2.308643e-05 -1.835082e-04
N 3.201394e+00 -3.675579e+00 6.958017e+00 -5.275485e-04 1.845972e-04 5.856955e-05
N 3.203593e+00 -3.678899e+00 -3.348670e+00 -2.014661e-04 -2.673723e-04 -4.697124e-05
N 1.605319e+00 -9.321173e-01 1.763013e+00 3.509712e-04 -1.055160e-04 -1.058005e-04
N 1.608613e+00 -9.300623e-01 6.952409e+00 -1.286503e-04 6.524248e-05 -2.032207e-04
N 1.570346e+00 -9.583928e-01 -3.319993e+00 -1.588603e-05 -6.514430e-06 -2.610008e-04
N 3.148732e+00 1.796520e+00 1.865970e+00 4.036519e-04 3.109972e-04 -1.950743e-04
N 3.102331e+00 1.777678e+00 6.929943e+00 -2.014922e-04 -1.680205e-04 -1.694593e-04
N 3.101494e+00 1.763105e+00 -3.297305e+00 -6.310136e-05 -8.411016e-05 -7.607419e-05
N 6.325322e+00 -3.753258e+00 1.843759e+00 6.390274e-04 1.640014e-04 1.696950e-04
N 6.284467e+00 -3.730259e+00 6.872695e+00 3.051191e-04 1.482927e-04 -3.230119e-06
N 6.279810e+00 -3.731314e+00 -3.355818e+00 -8.847764e-05 -8.681610e-05 -3.721173e-05
N 4.701503e+00 -9.328037e-01 1.769209e+00 -6.877509e-04 -5.532904e-04 1.494985e-04
N 4.693230e+00 -9.829729e-01 6.886558e+00 -2.616046e-04 -2.348554e-05 -7.412229e-05
N 4.696784e+00 -9.877822e-01 -3.300781e+00 -6.904474e-04 -3.341968e-04 1.773630e-04
N -3.192800e+00 1.742732e+00 1.851024e+00 -2.876844e-04 1.460186e-04 3.543163e-05
N -3.198672e+00 1.800122e+00 6.921896e+00 -8.817709e-05 -5.992362e-05 -2.007696e-04
N -3.153770e+00 1.770648e+00 -3.278730e+00 1.079685e-04 2.107945e-05 -3.421931e-05
N -6.808852e-02 -3.723949e+00 1.756583e+00 -1.159535e-04 -9.264356e-05 -3.064748e-04
N -2.680871e-02 -3.699223e+00 6.881491e+00 -5.653583e-05 -4.465628e-06 -3.519698e-04
N -1.964793e-02 -3.655152e+00 -3.346089e+00 5.034505e-05 -7.315708e-05 -1.911336e-04
N -1.609809e+00 -9.058780e-01 1.757890e+00 -3.039300e-05 -6.860626e-05 -3.184514e-04
N -1.608961e+00 -9.532274e-01 6.867795e+00 -1.940086e-04 8.182439e-05 -2.884728e-04
N -1.566724e+00 -9.337020e-01 -3.328804e+00 2.666303e-04 -4.713531e-04 -8.271088e-05
