108
Energy=-2.450786e+06 Lattice="9.643940e+00 0.000000e+00 0.000000e+00 -4.822387e+00 8.351608e+00 0.000000e+00 -1.784125e-03 -6.558249e-06 1.564715e+01" Stress="5.695783e-05 -2.311649e-05 9.578337e-06 -2.536557e-05 9.547945e-05 3.364627e-05 -3.360449e-06 3.356886e-05 1.244421e-05" Properties=species:S:1:pos:R:3:forces:R:3 Config_type=AlGaN_super3_44_0_15.xyz
Al 1.591480e+00 8.867444e-01 2.456284e+00 -2.903216e-05 -4.326229e-05 5.946096e-05
Al 1.589148e+00 8.893113e-01 7.679654e+00 1.267243e-05 1.168677e-05 2.396187e-05
Ga 1.588648e+00 8.836835e-01 -2.755815e+00 -2.463487e-07 -9.004694e-06 1.178186e-05
Al -2.831718e-02 3.673240e+00 2.451689e+00 2.511690e-07 -1.919028e-05 1.468356e-05
Ga -2.132243e-02 3.664100e+00 7.668962e+00 2.309314e-06 -2.037863e-05 5.358994e-05
Ga -2.911823e-02 3.673293e+00 -2.736201e+00 -1.511984e-05 -1.897924e-05 -7.686256e-05
Al 3.193595e+00 -1.891846e+00 2.444704e+00 -6.859358e-06 -5.302412e-05 4.763157e-05
Ga 3.185364e+00 -1.887266e+00 7.669946e+00 -2.074762e-05 2.742503e-05 5.037472e-06
Ga 3.180258e+00 -1.901308e+00 -2.734595e+00 4.694257e-05 1.206834e-05 -1.693074e-05
Al -4.860343e+00 8.800105e-01 2.463479e+00 2.737499e-05 -2.946466e-05 3.263900e-05
Ga -4.862019e+00 8.892339e-01 7.682417e+00 -5.525665e-06 3.954041e-05 -2.908857e-05
Ga -4.855988e+00 8.932292e-01 -2.761478e+00 -2.753843e-05 9.343720e-06 3.200041e-06
Ga -6.455924e+00 3.660187e+00 2.473250e+00 -2.503424e-05 2.685572e-05 -5.293561e-05
Ga -6.450774e+00 3.660844e+00 7.670994e+00 9.753828e-06 -5.035267e-06 -6.190664e-06
Ga -6.449521e+00 3.665329e+00 -2.761219e+00 -5.008056e-07 -2.020962e-05 8.478569e-06
Ga -3.255609e+00 -1.894967e+00 2.456925e+00 2.600617e-05 1.415750e-05 4.530405e-05
Ga -3.236008e+00 -1.891963e+00 7.685115e+00 -4.012298e-06 4.815095e-06 -5.320316e-06
Ga -3.222271e+00 -1.892766e+00 -2.756786e+00 -9.478496e-06 -3.397601e-05 3.428707e-06
Ga -1.623634e+00 8.975647e-01 2.462339e+00 -1.964700e-05 8.126983e-06 1.703882e-05
Ga -1.621022e+00 8.836341e-01 7.683494e+00 -3.862387e-05 5.147695e-06 2.578865e-06
Ga -1.622834e+00 8.743243e-01 -2.759580e+00 9.820668e-06 -9.599396e-06 -1.738549e-05
Ga -3.231201e+00 3.678485e+00 2.456854e+00 2.072426e-05 7.702563e-06 -1.036023e-05
Ga -3.244442e+00 3.677301e+00 7.661239e+00 1.806602e-05 -5.703969e-06 -6.264992e-06
Ga -3.234066e+00 3.682427e+00 -2.731246e+00 -5.122053e-06 -6.016273e-05 -7.131908e-05
Ga -7.284948e-03 -1.892333e+00 2.478603e+00 1.060631e-05 -1.030575e-05 -4.188643e-05
Ga -2.071650e-02 -1.892466e+00 7.672699e+00 -8.814164e-06 -5.966073e-06 2.212897e-05
Al -2.661757e-02 -1.889787e+00 -2.766047e+00 1.212790e-06 -4.556626e-06 1.128126e-05
Ga -1.119770e-02 1.816352e+00 5.058597e+00 -1.989625e-05 4.857297e-06 -1.316721e-05
Ga -1.006729e-02 1.806239e+00 -5.370765e+00 -1.687883e-05 5.662501e-05 -2.649081e-05
Ga -2.236252e-02 1.826483e+00 -1.261414e-01 2.515926e-05 1.695559e-05 -6.961827e-06
Ga 3.188188e+00 -3.747089e+00 5.037997e+00 -4.769676e-06 6.938024e-05 -2.972098e-05
Ga 3.190826e+00 -3.751737e+00 -5.360944e+00 -1.192086e-05 -2.650892e-06 6.594635e-06
Al 3.196785e+00 -3.749329e+00 -1.151846e-01 1.254177e-05 -1.362268e-05 3.330033e-05
Ga 1.586372e+00 -9.659945e-01 5.056553e+00 -3.147125e-06 6.280461e-05 -5.243988e-06
Ga 1.577730e+00 -9.561941e-01 -5.363656e+00 2.942607e-06 -1.647496e-05 9.889406e-06
Ga 1.582627e+00 -9.770910e-01 -1.347488e-01 3.797777e-06 2.882331e-05 5.509710e-06
Ga 3.189562e+00 1.812786e+00 5.053550e+00 4.060406e-05 -2.191611e-05 -6.415545e-06
Al 3.184597e+00 1.812140e+00 -5.378111e+00 1.102009e-05 1.088078e-05 -2.797480e-05
Ga 3.192110e+00 1.811378e+00 -1.142715e-01 5.637565e-06 7.076095e-05 -1.191546e-05
Ga 6.408429e+00 -3.754448e+00 5.057117e+00 3.852836e-05 -8.900593e-06 -1.326909e-05
Ga 6.415683e+00 -3.753001e+00 -5.363044e+00 1.507422e-06 -9.049516e-06 1.822045e-06
Ga 6.395869e+00 -3.756517e+00 -1.331332e-01 1.776401e-05 6.723379e-06 -1.982707e-05
Ga 4.791515e+00 -9.647577e-01 5.046896e+00 -3.970035e-05 -3.732102e-05 -3.093259e-05
Ga 4.802383e+00 -9.615791e-01 -5.358108e+00 4.295584e-06 3.183995e-05 -7.120487e-06
Ga 4.790179e+00 -9.706098e-01 -1.281271e-01 -1.913993e-05 3.431582e-05 2.808440e-05
Ga -3.249701e+00 1.820512e+00 5.057289e+00 -3.067323e-05 -2.545130e-05 -2.653175e-05
Ga -3.242132e+00 1.811398e+00 -5.362645e+00 -2.242307e-05 2.505764e-05 -1.711923e-05
Ga -3.238333e+00 1.820472e+00 -1.334269e-01 9.488051e-06 5.795150e-05 -1.034260e-05
Al -2.297993e-02 -3.751601e+00 5.068386e+00 -6.234296e-06 2.984297e-06 6.056813e-06
Ga -2.964014e-02 -3.748342e+00 -5.349396e+00 9.986176e-06 -2.295447e-05 3.775295e-05
Ga -1.621154e-02 -3.742451e+00 -1.584355e-01 6.006111e-05 9.258132e-05 1.056093e-04
Ga -1.626346e+00 -9.754323e-01 5.067522e+00 -1.104374e-06 1.900388e-06 -1.534344e-06
Al -1.623383e+00 -9.714735e-01 -5.354082e+00 3.785751e-07 -3.687129e-06 -2.638555e-07
Ga -1.619186e+00 -9.724102e-01 -1.473040e-01 -2.141659e-05 4.361743e-05 4.054871e-05
N 1.583283e+00 8.860164e-01 4.370245e+00 2.432103e-05 -3.042081e-05 2.702129e-05
N 1.628010e+00 9.094936e-01 -6.039782e+00 7.452316e-07 2.069528e-05 -1.183683e-05
N 1.586924e+00 8.888182e-01 -7.741231e-01 -2.212509e-05 2.145267e-05 3.223730e-05
N -2.475897e-02 3.670289e+00 4.373272e+00 1.676939e-05 1.755134e-05 2.401302e-05
N -2.274029e-02 3.671638e+00 -6.003149e+00 8.511290e-06 -5.007379e-05 -1.822333e-05
N -7.004158e-02 3.696723e+00 -7.517613e-01 3.978303e-05 -1.024489e-05 5.574906e-06
N 3.187934e+00 -1.894653e+00 4.365802e+00 6.214118e-05 -2.225794e-05 3.983858e-05
N 3.190290e+00 -1.893353e+00 -5.999427e+00 -1.213282e-06 -2.299803e-05 -2.491690e-05
N 3.189600e+00 -1.947176e+00 -7.468389e-01 1.675497e-05 1.539148e-05 -1.948838e-05
N -4.847663e+00 8.885376e-01 4.378356e+00 -3.528123e-05 7.737035e-05 3.131217e-05
N -4.887923e+00 9.117380e-01 -5.981423e+00 6.786670e-05 -5.674381e-06 1.302898e-05
N -4.850161e+00 8.897754e-01 -7.811887e-01 8.977901e-06 -6.551204e-06 1.031360e-05
N -6.409124e+00 3.695061e+00 4.455128e+00 -3.633744e-05 -2.708149e-05 1.950381e-05
N -6.446887e+00 3.624144e+00 -5.986091e+00 1.409630e-05 1.502919e-05 -2.201457e-05
N -6.454801e+00 3.663445e+00 -7.769346e-01 -2.746332e-05 6.138547e-05 5.387869e-05
N -3.238392e+00 -1.895057e+00 4.428103e+00 -2.483695e-05 -4.695312e-05 5.915488e-06
N -3.193530e+00 -1.869814e+00 -5.973688e+00 -1.586482e-06 2.440306e-05 -2.283465e-06
N -3.237392e+00 -1.894555e+00 -7.735314e-01 4.266781e-06 3.113340e-05 -7.573493e-06
N -1.629277e+00 8.900290e-01 4.437799e+00 -1.993416e-06 -2.625479e-05 -4.926065e-06
N -1.628939e+00 8.377730e-01 -5.974382e+00 2.216608e-05 7.228269e-06 -5.808138e-06
N -1.627327e+00 8.887376e-01 -7.756151e-01 -4.675653e-06 5.166260e-05 9.415627e-06
N -3.281774e+00 3.698395e+00 4.441836e+00 7.840395e-08 -4.302901e-05 1.768332e-05
N -3.242566e+00 3.675001e+00 -6.005144e+00 -2.339376e-05 -4.973120e-05 2.368125e-05
N -3.188126e+00 3.697839e+00 -7.436562e-01 -3.253116e-05 -4.404806e-05 1.872993e-05
N -1.984000e-02 -1.944748e+00 4.458249e+00 9.484822e-07 -2.820127e-06 -1.115539e-06
N -6.285112e-02 -1.875085e+00 -5.987485e+00 -5.506633e-06 3.197748e-05 -1.672237e-05
N -2.063649e-02 -1.890523e+00 -8.435912e-01 -6.161763e-06 -1.180252e-05 8.843931e-07
N 2.199683e-02 1.841125e+00 1.863077e+00 -6.336737e-06 -3.467842e-05 -7.967434e-05
N 2.245953e-02 1.789194e+00 7.052306e+00 -2.803543e-05 5.586767e-05 1.312213e-05
N -1.804631e-02 1.817538e+00 -3.390466e+00 -2.022622e-05 1.949191e-05 3.919378e-07
N 3.234113e+00 -3.727296e+00 1.817499e+00 1.346548e-05 5.082592e-05 -2.036053e-05
N 3.193911e+00 -3.748715e+00 7.020060e+00 -2.486459e-06 -2.417751e-05 1.548832e-05
N 3.191739e+00 -3.751503e+00 -3.389219e+00 -6.094871e-06 -5.492248e-06 1.585102e-05
N 1.621794e+00 -9.443622e-01 1.857986e+00 2.925186e-05 -1.776782e-05 -5.785697e-05
N 1.583982e+00 -9.153201e-01 7.049350e+00 -2.826740e-06 -5.022801e-05 -5.652796e-06
N 1.545193e+00 -9.900057e-01 -3.373980e+00 9.589046e-07 -9.641938e-06 -7.759456e-06
N 3.191218e+00 1.769035e+00 1.870688e+00 -2.733904e-05 -8.535404e-05 -2.882658e-05
N 3.146442e+00 1.788031e+00 7.039889e+00 2.708658e-05 -1.343599e-06 -7.521058e-06
N 3.185917e+00 1.813494e+00 -3.455944e+00 2.993780e-05 1.379061e-05 2.242620e-05
N 6.367144e+00 -3.778332e+00 1.849042e+00 3.927832e-05 4.446832e-06 1.076925e-05
N 6.406049e+00 -3.750644e+00 7.038906e+00 -1.227487e-06 -1.637330e-05 1.350746e-05
N 6.403994e+00 -3.754736e+00 -3.383750e+00 -1.197533e-05 2.807204e-06 4.320229e-06
N 4.754929e+00 -9.410069e-01 1.859500e+00 -3.815089e-05 8.488145e-06 -8.255731e-05
N 4.797843e+00 -9.660087e-01 7.030957e+00 1.086527e-05 -2.377955e-05 2.567487e-05
N 4.795426e+00 -9.717879e-01 -3.379194e+00 -3.903499e-05 -2.166254e-05 8.573017e-06
N -3.283182e+00 1.791331e+00 1.850891e+00 -2.130351e-05 9.600139e-06 2.538283e-05
N -3.241081e+00 1.810775e+00 7.041589e+00 -1.902300e-05 -2.297474e-05 -4.337386e-06
N -3.236525e+00 1.820404e+00 -3.381041e+00 1.449194e-05 4.423079e-05 4.017724e-06
N -2.634553e-02 -3.746459e+00 1.816479e+00 -4.422920e-06 -7.893492e-05 -7.362566e-05
N -2.678402e-02 -3.749650e+00 6.989028e+00 -7.217570e-06 -6.376229e-06 6.360264e-06
N -1.991393e-02 -3.705858e+00 -3.361160e+00 -1.262487e-05 1.105541e-06 1.161244e-06
N -1.623975e+00 -9.702101e-01 1.828778e+00 1.675359e-05 -6.367358e-05 -3.996750e-05
N -1.631092e+00 -9.681898e-01 7.037574e+00 -2.786452e-05 -9.928715e-06 6.640205e-06
N -1.586512e+00 -9.929311e-01 -3.426869e+00 1.393423e-05 1.231185e-05 -1.168792e-05
