108
Energy=-8.486435e+05 Lattice="9.444856e+00 0.000000e+00 0.000000e+00 -4.722707e+00 8.178626e+00 0.000000e+00 2.864308e-03 1.267467e-03 1.518438e+01" Stress="1.669560e-06 -5.952771e-06 1.392287e-04 -1.779257e-06 -9.040065e-05 4.616131e-05 1.357000e-04 4.123569e-05 3.422916e-04" Properties=species:S:1:pos:R:3:forces:R:3 Config_type=AlGaN_super3_9_2_26.xyz
Al 1.554067e+00 8.783030e-01 2.375457e+00 1.320395e-06 3.968061e-05 9.183179e-06
Al 1.555413e+00 8.781864e-01 7.450915e+00 1.288027e-05 -1.457490e-05 3.471117e-05
Al 1.563505e+00 8.761470e-01 -2.687682e+00 -3.683442e-06 -1.875921e-06 5.701931e-05
Al -2.804174e-02 3.591421e+00 2.395783e+00 9.355389e-05 7.373501e-05 -1.144936e-04
Al -1.428203e-02 3.598201e+00 7.439420e+00 6.203924e-06 1.786156e-05 3.838579e-05
Al -2.506611e-02 3.592016e+00 -2.692617e+00 -1.696051e-05 -4.023184e-06 1.194220e-04
Al 3.132726e+00 -1.858281e+00 2.370221e+00 -2.178969e-05 -2.679540e-05 -1.491961e-05
Al 3.138058e+00 -1.854391e+00 7.454286e+00 1.335372e-06 7.943333e-06 1.453226e-05
Al 3.124969e+00 -1.854947e+00 -2.682715e+00 -3.799342e-06 6.442117e-06 6.400418e-05
Al -4.752600e+00 8.673942e-01 2.371288e+00 -1.743416e-05 3.092674e-06 2.125294e-05
Al -4.756323e+00 8.607854e-01 7.452310e+00 -1.532810e-05 -1.698287e-05 7.489720e-05
Al -4.761256e+00 8.753388e-01 -2.682557e+00 4.233405e-05 4.940615e-06 9.400022e-05
Al -6.311146e+00 3.589611e+00 2.395584e+00 -2.264211e-05 4.572914e-05 1.029698e-05
Al -6.325400e+00 3.594849e+00 7.438081e+00 -2.856927e-05 1.972591e-05 3.307526e-05
Al -6.319105e+00 3.576835e+00 -2.692187e+00 1.557220e-05 1.676528e-05 7.916350e-05
Al -3.184057e+00 -1.854538e+00 2.403367e+00 -7.671010e-06 -6.153331e-05 1.375414e-05
Al -3.178742e+00 -1.860924e+00 7.448565e+00 -5.613161e-05 -5.604877e-05 7.522411e-06
Ga -3.189125e+00 -1.864978e+00 -2.700052e+00 4.121659e-05 4.248358e-05 5.915938e-05
Al -1.589748e+00 8.835347e-01 2.375171e+00 8.466328e-05 -1.065673e-04 -1.308137e-04
Al -1.584116e+00 8.711124e-01 7.465161e+00 1.046543e-05 -1.007552e-04 1.210872e-05
Ga -1.597810e+00 8.892359e-01 -2.684223e+00 1.434836e-04 -1.398495e-04 1.589313e-05
Al -3.169680e+00 3.603373e+00 2.373240e+00 3.539804e-05 -5.867811e-06 3.945738e-05
Ga -3.166673e+00 3.606828e+00 7.458245e+00 7.313952e-05 3.411718e-05 3.189130e-05
Al -3.173704e+00 3.594091e+00 -2.685662e+00 2.435845e-05 -3.683505e-05 5.733708e-05
Al -1.291848e-02 -1.865079e+00 2.374198e+00 -8.020616e-05 9.217835e-06 2.293342e-05
Al -2.105745e-02 -1.857744e+00 7.465448e+00 -2.470476e-05 -4.959133e-06 -1.522020e-05
Ga -5.855042e-03 -1.865408e+00 -2.684708e+00 5.944014e-05 3.311553e-05 -2.335423e-05
Al -1.141741e-02 1.794369e+00 4.920010e+00 -1.506958e-06 2.968829e-05 1.931606e-05
Al -1.671243e-02 1.782632e+00 -5.222861e+00 -1.320254e-05 4.501540e-05 6.884139e-05
Al -1.534825e-02 1.784074e+00 -1.430903e-01 1.060314e-04 6.879257e-05 1.160064e-04
Al 3.139733e+00 -3.669890e+00 4.903817e+00 1.352321e-05 2.064201e-05 1.664658e-05
Al 3.131944e+00 -3.670707e+00 -5.200098e+00 7.486927e-05 4.027094e-05 1.090276e-04
Al 3.117199e+00 -3.676031e+00 -1.572873e-01 1.106054e-04 6.574025e-05 4.506430e-05
Ga 1.565788e+00 -9.470893e-01 4.917102e+00 -9.640177e-05 5.819018e-05 -3.960885e-06
Al 1.558321e+00 -9.453989e-01 -5.225375e+00 -3.718704e-05 3.744035e-05 4.243358e-05
Al 1.567440e+00 -9.416973e-01 -1.397445e-01 1.423487e-05 1.890509e-05 1.283106e-04
Al 3.123955e+00 1.784843e+00 4.913682e+00 -2.058329e-05 -2.475766e-05 1.600740e-05
Al 3.123868e+00 1.777981e+00 -5.212856e+00 3.210017e-07 -3.279582e-06 1.233955e-04
Al 3.127127e+00 1.771811e+00 -1.539318e-01 1.576123e-04 6.914628e-05 5.832861e-05
Al 6.271347e+00 -3.683080e+00 4.911952e+00 6.171643e-06 9.167487e-08 -2.498165e-05
Al 6.272396e+00 -3.683361e+00 -5.228774e+00 6.004287e-06 -9.863623e-06 5.478642e-05
Ga 6.269321e+00 -3.692779e+00 -1.301485e-01 9.312137e-05 7.198211e-05 2.329543e-04
Al 4.692815e+00 -9.525597e-01 4.919227e+00 -4.243725e-05 -3.868342e-05 1.941242e-05
Al 4.690989e+00 -9.454559e-01 -5.221977e+00 -5.774351e-06 -2.025211e-05 8.240632e-05
Al 4.679819e+00 -9.371566e-01 -1.425769e-01 4.380453e-05 -2.261855e-05 4.985965e-05
Ga -3.175709e+00 1.782999e+00 4.907479e+00 -5.538545e-05 -1.050857e-05 8.139977e-05
Al -3.179732e+00 1.774179e+00 -5.212494e+00 1.928842e-05 2.231091e-05 6.387057e-05
Al -3.186100e+00 1.789978e+00 -1.387059e-01 1.000995e-04 3.305802e-05 -4.253017e-05
Al -2.607509e-02 -3.679177e+00 4.909832e+00 -2.971827e-05 -6.666387e-06 -2.691570e-05
Al -3.043133e-02 -3.678934e+00 -5.208666e+00 2.837612e-05 -4.183378e-06 7.037092e-05
Al -1.271614e-02 -3.692451e+00 -1.431790e-01 9.677167e-05 -9.528656e-05 9.168684e-05
Ga -1.596391e+00 -9.522395e-01 4.922695e+00 1.369236e-07 2.703839e-06 -2.835005e-05
Al -1.597690e+00 -9.489699e-01 -5.245417e+00 -4.135372e-05 -1.267231e-06 1.603357e-04
Ga -1.595328e+00 -9.426056e-01 -1.120338e-01 -3.960513e-05 3.652267e-05 2.871880e-04
N 1.552754e+00 9.197887e-01 4.292840e+00 1.207798e-04 -6.385259e-06 -3.048115e-05
N 1.553301e+00 8.739375e-01 -5.819319e+00 3.800503e-05 -2.424861e-05 -7.020223e-05
N 1.550054e+00 8.694052e-01 -7.575449e-01 4.832947e-05 1.281866e-06 8.329748e-06
N -2.279525e-02 3.593437e+00 4.313887e+00 -2.870209e-05 -3.253284e-05 -6.571378e-05
N -2.815511e-02 3.597218e+00 -5.825580e+00 -2.488828e-05 -1.779983e-05 -4.445162e-05
N -6.442215e-02 3.572040e+00 -7.776289e-01 -3.311423e-05 -8.546404e-05 -7.751443e-05
N 3.169829e+00 -1.878865e+00 4.282421e+00 6.145334e-05 1.356578e-05 1.966118e-05
N 3.127692e+00 -1.863612e+00 -5.816854e+00 2.575236e-06 -1.833485e-06 -6.276997e-05
N 3.124447e+00 -1.856690e+00 -7.558571e-01 1.256513e-05 1.880607e-05 -1.440851e-05
N -4.790120e+00 8.438250e-01 4.287966e+00 5.240874e-05 -2.352929e-05 -1.309152e-04
N -4.752629e+00 8.689671e-01 -5.817939e+00 3.702521e-05 2.297920e-05 -6.025581e-05
N -4.746997e+00 8.692883e-01 -7.548274e-01 3.967643e-05 4.760945e-06 4.876759e-05
N -6.315031e+00 3.593043e+00 4.315949e+00 -3.198755e-06 -2.737874e-05 -6.261868e-05
N -6.319436e+00 3.591492e+00 -5.826278e+00 2.388965e-05 -1.028429e-05 -5.224325e-05
N -6.280319e+00 3.570673e+00 -7.748018e-01 3.192022e-06 -3.552480e-05 -3.330634e-06
N -3.215273e+00 -1.878073e+00 4.314040e+00 -3.097370e-05 6.023961e-06 -4.231946e-05
N -3.181230e+00 -1.862003e+00 -5.816617e+00 -3.813985e-05 1.643463e-05 1.915198e-05
N -3.213344e+00 -1.836522e+00 -7.338915e-01 -7.393208e-05 5.292380e-05 3.307141e-06
N -1.549450e+00 8.989877e-01 4.280124e+00 -3.577597e-05 2.043271e-06 4.211419e-05
N -1.595802e+00 8.782733e-01 -5.807014e+00 5.625666e-05 -1.616651e-05 -2.304045e-06
N -1.600034e+00 9.189126e-01 -7.097930e-01 4.093698e-06 1.623283e-05 5.225519e-05
N -3.167526e+00 3.647547e+00 4.291580e+00 -4.333264e-05 -2.518118e-05 -1.191420e-04
N -3.168524e+00 3.600367e+00 -5.755379e+00 -1.034676e-04 -6.725310e-05 -4.907178e-05
N -3.172297e+00 3.594033e+00 -7.585796e-01 4.787347e-05 -2.515487e-05 3.054809e-06
N -1.578183e-02 -1.902456e+00 4.277655e+00 8.417085e-05 -2.993135e-05 -8.005515e-05
N -1.736942e-02 -1.864634e+00 -5.806732e+00 4.830356e-05 -3.928313e-05 7.717878e-06
N 1.982921e-02 -1.880968e+00 -7.082011e-01 1.680866e-05 6.823906e-05 -2.205980e-05
N -1.489376e-02 1.785652e+00 1.772037e+00 -1.552651e-04 -9.888047e-05 -8.836612e-05
N -1.979514e-02 1.779526e+00 6.843383e+00 -2.976886e-05 -3.443253e-05 -6.058173e-05
N 2.213624e-02 1.800123e+00 -3.311490e+00 -5.505953e-05 2.005857e-05 -8.481005e-06
N 3.130249e+00 -3.675704e+00 1.767730e+00 -8.589465e-05 -1.907174e-05 -5.826098e-05
N 3.169911e+00 -3.647478e+00 6.817843e+00 -3.923296e-05 1.107335e-06 -8.597703e-05
N 3.126258e+00 -3.671798e+00 -3.277990e+00 1.318447e-05 4.175353e-05 -5.868577e-05
N 1.558592e+00 -9.420971e-01 1.782022e+00 -1.864881e-05 2.764689e-05 -8.033669e-05
N 1.555418e+00 -9.474756e-01 6.899845e+00 -5.230317e-05 5.483488e-05 1.319249e-05
N 1.595567e+00 -9.216115e-01 -3.308996e+00 -4.473104e-05 3.443551e-05 3.787063e-05
N 3.126006e+00 1.782281e+00 1.767861e+00 -1.700087e-04 -7.066645e-05 -1.202422e-04
N 3.127615e+00 1.778564e+00 6.836403e+00 -1.307865e-05 -4.212422e-05 -8.652626e-05
N 3.124181e+00 1.775527e+00 -3.291942e+00 3.636598e-06 -2.793846e-05 -6.090686e-05
N 6.276086e+00 -3.678318e+00 1.847963e+00 -2.426119e-04 -9.727783e-05 -1.782527e-04
N 6.275813e+00 -3.674381e+00 6.837359e+00 7.330048e-06 -2.447510e-05 -2.318842e-05
N 6.274235e+00 -3.728432e+00 -3.312405e+00 6.350901e-05 1.251241e-05 -4.807226e-05
N 4.699440e+00 -9.458429e-01 1.771862e+00 -1.293105e-05 2.067907e-05 -9.578707e-05
N 4.699040e+00 -9.459764e-01 6.841338e+00 -3.809029e-05 2.474326e-05 -5.326333e-05
N 4.652088e+00 -9.203118e-01 -3.310480e+00 -5.962184e-05 1.892435e-05 -6.924749e-05
N -3.176253e+00 1.782545e+00 1.784772e+00 -1.147803e-04 -3.415879e-05 -3.222129e-05
N -3.170303e+00 1.731631e+00 6.880329e+00 1.919400e-05 -2.416831e-05 -4.480988e-05
N -3.219249e+00 1.798078e+00 -3.300209e+00 -5.257613e-05 4.322919e-05 -2.493699e-05
N -2.444545e-02 -3.681662e+00 1.773437e+00 -1.010773e-04 5.247845e-06 -8.372133e-05
N -6.139207e-02 -3.648890e+00 6.823499e+00 -6.775052e-06 -7.833668e-06 -3.185776e-05
N -2.757861e-02 -3.723787e+00 -3.301474e+00 -4.793523e-06 -3.227124e-05 -3.372131e-05
N -1.600025e+00 -9.486937e-01 1.857302e+00 3.380257e-05 6.750806e-05 -1.012311e-04
N -1.594508e+00 -9.471240e-01 6.907413e+00 1.059098e-04 1.694187e-04 -1.071622e-05
N -1.595039e+00 -9.470657e-01 -3.342558e+00 -6.546055e-05 5.454356e-05 -1.482836e-04
