108
Energy=-8.944190e+05 Lattice="9.453385e+00 0.000000e+00 0.000000e+00 -4.731144e+00 8.180759e+00 0.000000e+00 6.851404e-03 -9.458172e-03 1.521183e+01" Stress="1.126856e-03 -3.055694e-04 3.678904e-04 -3.023643e-04 6.454768e-05 -3.949922e-04 3.602175e-04 -3.895830e-04 2.011490e-03" Properties=species:S:1:pos:R:3:forces:R:3 Config_type=AlGaN_super3_10_2_14.xyz
Al 1.561535e+00 8.769214e-01 2.384926e+00 7.230932e-05 4.010867e-04 1.450631e-04
Al 1.566906e+00 8.732054e-01 7.427563e+00 -1.498956e-04 2.372713e-04 2.248469e-04
Al 1.566386e+00 8.779228e-01 -2.656954e+00 -7.269793e-04 1.991300e-04 -1.658970e-04
Al -2.607815e-02 3.594237e+00 2.402356e+00 -5.177009e-04 -3.198981e-04 -1.797724e-04
Al -1.355333e-02 3.597582e+00 7.430069e+00 3.184711e-05 -1.084716e-04 2.205501e-04
Al -2.783421e-02 3.600892e+00 -2.675733e+00 -2.034288e-04 -1.485988e-04 -5.324754e-05
Al 3.133336e+00 -1.861652e+00 2.371446e+00 6.773385e-04 -1.916079e-04 5.759044e-05
Al 3.144812e+00 -1.863267e+00 7.454143e+00 -3.722400e-05 1.659745e-04 4.996081e-04
Al 3.132071e+00 -1.860868e+00 -2.666388e+00 -4.703214e-04 1.461324e-04 -1.526852e-04
Al -4.752611e+00 8.760125e-01 2.377697e+00 -7.785034e-05 1.139511e-04 -1.763093e-04
Al -4.752381e+00 8.668238e-01 7.455877e+00 2.633118e-04 9.045140e-05 -3.870027e-05
Al -4.768782e+00 8.766800e-01 -2.680533e+00 4.308910e-04 -6.751905e-05 1.937730e-04
Al -6.323214e+00 3.583353e+00 2.398242e+00 -3.904322e-04 -6.035687e-04 -3.874480e-04
Al -6.336581e+00 3.582845e+00 7.451530e+00 2.813992e-05 1.564048e-04 1.192970e-04
Al -6.324527e+00 3.586590e+00 -2.691008e+00 9.940160e-05 7.078218e-05 -9.324962e-05
Al -3.176822e+00 -1.853711e+00 2.388917e+00 -6.785165e-04 -3.345015e-04 5.570249e-04
Al -3.176869e+00 -1.868533e+00 7.452159e+00 1.823064e-04 -1.530092e-04 -1.234170e-05
Ga -3.187887e+00 -1.862223e+00 -2.675924e+00 -2.674908e-04 8.807392e-05 1.732339e-04
Al -1.601348e+00 8.812136e-01 2.381864e+00 -1.897637e-04 3.638505e-04 2.506425e-04
Al -1.604238e+00 8.724848e-01 7.428644e+00 4.586603e-04 -1.364538e-04 1.090183e-04
Ga -1.604031e+00 8.886758e-01 -2.644908e+00 4.950486e-04 -2.533365e-04 1.508492e-04
Al -3.171200e+00 3.591313e+00 2.386255e+00 2.526049e-04 -3.315015e-04 -1.818886e-04
Ga -3.169030e+00 3.584642e+00 7.458322e+00 3.736814e-04 -1.351573e-04 1.176746e-04
Al -3.181568e+00 3.606188e+00 -2.682575e+00 3.093087e-04 -2.635170e-04 -3.348919e-04
Ga -2.097537e-02 -1.858565e+00 2.396600e+00 8.164028e-04 2.256619e-04 -3.364802e-05
Ga -1.797721e-02 -1.859097e+00 7.429944e+00 2.337515e-04 7.922456e-05 6.937018e-05
Al -1.282101e-02 -1.869238e+00 -2.650529e+00 1.353411e-04 4.046125e-05 1.150649e-04
Al -2.062586e-02 1.774179e+00 4.909704e+00 -2.421327e-04 2.025169e-04 -2.775264e-04
Ga -2.218775e-02 1.797398e+00 -5.231894e+00 -1.183568e-04 1.720007e-04 3.990387e-04
Al -1.849644e-02 1.778503e+00 -1.241054e-01 -4.634169e-04 -1.569037e-04 -7.362712e-04
Al 3.130708e+00 -3.682298e+00 4.904605e+00 -2.003347e-04 1.354470e-04 -2.243450e-04
Al 3.135709e+00 -3.671598e+00 -5.211018e+00 -1.184031e-05 3.533286e-04 1.703596e-04
Al 3.123616e+00 -3.680505e+00 -1.450288e-01 -1.353642e-04 2.340222e-04 -1.137994e-04
Al 1.562510e+00 -9.462061e-01 4.911559e+00 8.999597e-04 5.804872e-04 9.273445e-04
Ga 1.572275e+00 -9.498585e-01 -5.197170e+00 -4.269000e-04 1.786907e-04 2.065644e-04
Al 1.560502e+00 -9.462748e-01 -1.543662e-01 -4.874814e-04 1.207743e-04 -4.693419e-04
Al 3.128313e+00 1.783792e+00 4.915758e+00 -6.137153e-05 -1.473606e-04 -1.342634e-04
Al 3.135529e+00 1.787855e+00 -5.223639e+00 -9.657298e-06 1.525738e-05 2.641888e-04
Al 3.132417e+00 1.772950e+00 -1.446666e-01 -2.292712e-04 2.850460e-04 2.977293e-05
Al 6.292425e+00 -3.685608e+00 4.910945e+00 -2.853912e-04 1.437314e-04 3.197154e-05
Al 6.277083e+00 -3.678678e+00 -5.230914e+00 1.423346e-04 -6.961389e-05 -8.333122e-05
Ga 6.283161e+00 -3.686194e+00 -1.273480e-01 9.451606e-05 -1.270569e-04 -8.460978e-04
Ga 4.706013e+00 -9.502824e-01 4.917416e+00 -3.300972e-04 3.074350e-04 4.493841e-04
Al 4.697856e+00 -9.418693e-01 -5.235560e+00 -2.380918e-04 5.079209e-05 -1.626627e-04
Al 4.695446e+00 -9.373749e-01 -1.293809e-01 -3.246526e-04 -8.644249e-05 -9.900574e-05
Al -3.171826e+00 1.780751e+00 4.900725e+00 9.390782e-05 4.584375e-05 -1.407055e-04
Al -3.196031e+00 1.785593e+00 -5.213934e+00 -2.194771e-04 9.279659e-05 -1.397281e-04
Al -3.185363e+00 1.785578e+00 -1.334525e-01 1.317896e-04 1.661560e-05 -1.082399e-04
Al -2.177040e-02 -3.692603e+00 4.908614e+00 4.335973e-04 5.646469e-04 4.673323e-05
Al -2.930681e-02 -3.688967e+00 -5.198638e+00 -1.075658e-04 2.350447e-04 -1.234828e-04
Al -1.380008e-02 -3.683964e+00 -1.503773e-01 -9.023450e-05 2.173401e-04 -1.057993e-03
Al -1.597695e+00 -9.420420e-01 4.917131e+00 -4.390818e-06 2.164145e-04 2.958039e-06
Ga -1.610553e+00 -9.466029e-01 -5.223966e+00 -3.876219e-04 4.412261e-05 1.202216e-04
Al -1.593825e+00 -9.426929e-01 -1.246469e-01 3.006857e-04 2.274935e-05 -1.407460e-04
N 1.557187e+00 8.706330e-01 4.308705e+00 1.118619e-04 -2.357874e-04 2.393599e-04
N 1.593084e+00 8.932920e-01 -5.870742e+00 1.899576e-04 9.685077e-05 -1.525382e-04
N 1.553765e+00 8.766252e-01 -7.396353e-01 1.935655e-04 -2.761010e-06 1.482487e-04
N -2.252703e-02 3.593209e+00 4.318035e+00 5.431650e-05 -4.557098e-05 4.113882e-04
N -2.985946e-02 3.650130e+00 -5.862345e+00 -5.941606e-05 1.179004e-04 -3.619427e-04
N -6.394978e-02 3.573497e+00 -7.623434e-01 -4.167469e-04 -6.193214e-05 1.841345e-04
N 3.093082e+00 -1.883784e+00 4.280901e+00 -3.262578e-05 -2.804574e-05 2.350201e-04
N 3.164157e+00 -1.882602e+00 -5.842592e+00 9.350599e-05 -2.097724e-04 -1.178223e-04
N 3.137127e+00 -1.862018e+00 -7.441479e-01 1.731158e-04 -3.525006e-05 -4.324319e-05
N -4.752608e+00 9.156967e-01 4.287510e+00 1.591562e-04 2.988515e-05 1.809995e-04
N -4.755595e+00 8.787100e-01 -5.831502e+00 2.807276e-04 -1.972397e-05 -5.760331e-05
N -4.752614e+00 8.688098e-01 -7.519454e-01 4.119618e-04 8.050785e-05 2.993822e-05
N -6.324545e+00 3.589114e+00 4.308792e+00 1.712584e-04 2.178351e-04 9.967321e-05
N -6.328820e+00 3.599337e+00 -5.829141e+00 2.461883e-05 4.111693e-05 -5.528127e-06
N -6.288486e+00 3.570434e+00 -7.765002e-01 1.461887e-04 -5.142235e-05 2.276886e-05
N -3.130508e+00 -1.881092e+00 4.298506e+00 5.724502e-05 -2.590004e-04 6.022189e-05
N -3.215365e+00 -1.880462e+00 -5.842236e+00 -2.443808e-04 -7.979490e-05 -4.639690e-05
N -3.178160e+00 -1.813129e+00 -7.055179e-01 1.536609e-04 3.540513e-04 3.422753e-05
N -1.596598e+00 8.718347e-01 4.303875e+00 2.334573e-04 -2.123033e-04 3.376268e-04
N -1.648900e+00 9.049864e-01 -5.869148e+00 4.676530e-04 -2.957296e-04 -3.692710e-05
N -1.602389e+00 8.764667e-01 -6.721347e-01 2.325571e-04 2.727841e-04 -3.273077e-04
N -3.172438e+00 3.595706e+00 4.305667e+00 -1.174253e-04 -9.699350e-05 -4.725969e-05
N -3.178230e+00 3.603475e+00 -5.768525e+00 1.067259e-04 -1.169205e-04 1.915172e-04
N -3.175441e+00 3.596712e+00 -7.585138e-01 2.370537e-04 -2.628468e-04 1.603327e-04
N -1.534959e-02 -1.856901e+00 4.377117e+00 -1.272384e-03 -9.920222e-04 -9.227552e-04
N -1.808020e-02 -1.902262e+00 -5.814213e+00 2.575647e-04 -4.011862e-04 3.962647e-05
N -2.464240e-02 -1.860073e+00 -7.292656e-01 2.259194e-04 -1.534330e-04 -7.728828e-05
N -1.652940e-02 1.782704e+00 1.794555e+00 8.305317e-05 -2.248446e-04 6.441881e-04
N -1.931274e-02 1.773259e+00 6.835841e+00 -1.871035e-04 2.531219e-04 9.048575e-05
N 1.636156e-02 1.800419e+00 -3.255469e+00 6.637425e-04 9.331396e-05 -4.259058e-05
N 3.133345e+00 -3.682092e+00 1.779096e+00 -7.619083e-07 2.865071e-04 -3.164877e-05
N 3.171297e+00 -3.657316e+00 6.818420e+00 -9.818295e-05 3.593151e-04 -3.654881e-04
N 3.133036e+00 -3.673102e+00 -3.284078e+00 -1.975367e-04 2.059698e-04 1.953957e-04
N 1.595244e+00 -9.240329e-01 1.761478e+00 -4.598589e-04 1.860497e-04 -2.694030e-04
N 1.609436e+00 -9.284435e-01 6.826426e+00 6.309459e-05 -4.955303e-04 -9.791288e-04
N 1.553337e+00 -9.451239e-01 -3.211138e+00 8.983646e-04 -2.865353e-04 -1.039392e-04
N 3.127903e+00 1.781632e+00 1.774870e+00 -2.815002e-05 -5.395420e-04 2.095112e-04
N 3.136079e+00 1.777471e+00 6.836492e+00 -5.204392e-05 -1.176912e-04 -2.988858e-05
N 3.124107e+00 1.777880e+00 -3.296503e+00 -3.241128e-04 -2.188615e-04 -1.208196e-04
N 6.285684e+00 -3.682014e+00 1.844676e+00 -4.384493e-04 3.567156e-04 1.249045e-03
N 6.289821e+00 -3.680296e+00 6.835895e+00 1.122088e-04 -7.950418e-05 4.441971e-05
N 6.278711e+00 -3.722753e+00 -3.308420e+00 1.373162e-04 -3.133014e-04 -1.660672e-04
N 4.703734e+00 -9.456742e-01 1.789613e+00 -7.179591e-05 -3.718592e-05 3.426689e-04
N 4.709313e+00 -9.500308e-01 6.896831e+00 -2.577432e-04 -8.762954e-06 -1.374215e-04
N 4.658974e+00 -9.211666e-01 -3.312563e+00 -4.432185e-04 6.042542e-05 -2.698474e-04
N -3.178087e+00 1.783262e+00 1.784722e+00 -1.182683e-04 -1.353733e-04 2.411950e-04
N -3.179258e+00 1.730261e+00 6.814518e+00 -2.443027e-04 -5.304806e-05 -1.215069e-04
N -3.220734e+00 1.800107e+00 -3.295983e+00 -1.858413e-04 3.176714e-04 6.954567e-05
N -2.199877e-02 -3.725132e+00 1.764435e+00 6.079305e-04 7.888383e-05 1.182617e-03
N -5.867743e-02 -3.714539e+00 6.809767e+00 -5.120278e-05 -6.651521e-05 -9.343415e-06
N -2.569482e-02 -3.672166e+00 -3.277188e+00 8.697382e-05 6.854722e-06 9.356697e-05
N -1.635407e+00 -9.246510e-01 1.783980e+00 5.309545e-04 -1.632834e-04 -8.170297e-04
N -1.639662e+00 -9.282621e-01 6.829836e+00 -7.124337e-04 1.384623e-04 -1.296282e-04
N -1.557096e+00 -9.642627e-01 -3.258670e+00 -2.560723e-05 -2.327881e-04 6.811627e-05
