108
Energy=-1214847.333677 Lattice="9.488154 0.000000 0.000000 -4.744386 8.215486 0.000000 0.000164 0.004591 15.296870" Stress="-0.000000 -0.000000 0.000000 -0.000000 -0.000001 0.000001 0.000000 0.000001 0.000001" Properties=species:S:1:pos:R:3:forces:R:3
Al 1.560005 0.885273 2.438373 0.000008 0.000030 0.000007
Al 1.563227 0.894059 7.497365 -0.000011 -0.000005 -0.000026
Al 1.568363 0.886958 -2.737750 0.000004 -0.000062 -0.000092
Al -0.021329 3.607393 2.416107 -0.000238 0.000048 -0.000045
Al -0.029865 3.602712 7.506379 0.000011 -0.000016 0.000010
Al -0.007151 3.614490 -2.722960 0.000060 -0.000029 0.000008
Al 3.150860 -1.864605 2.407849 0.000040 0.000107 -0.000005
Al 3.143282 -1.865870 7.500108 -0.000057 -0.000052 0.000173
Ga 3.148271 -1.867350 -2.700312 -0.000179 -0.000024 0.000103
Al -4.780036 0.869038 2.438499 -0.000044 -0.000184 -0.000018
Al -4.774856 0.888184 7.481140 -0.000020 0.000032 -0.000007
Al -4.775546 0.878070 -2.719493 0.000002 0.000031 0.000078
Al -6.355234 3.601729 2.421259 -0.000060 0.000015 -0.000111
Al -6.345799 3.594063 7.511435 0.000069 -0.000039 0.000018
Al -6.365986 3.601917 -2.730968 -0.000044 0.000020 -0.000045
Ga -3.188007 -1.860432 2.401267 0.000011 -0.000012 0.000030
Ga -3.196705 -1.862083 7.484421 -0.000010 -0.000014 0.000007
Al -3.190626 -1.883213 -2.678050 -0.000010 -0.000006 0.000040
Al -1.592487 0.870044 2.432820 0.000003 -0.000098 0.000034
Al -1.601573 0.898032 7.486660 -0.000006 -0.000032 0.000028
Ga -1.605423 0.881247 -2.710709 0.000085 0.000011 -0.000029
Ga -3.176486 3.618881 2.442253 0.000027 0.000013 0.000006
Al -3.182212 3.606625 7.482756 -0.000005 -0.000014 -0.000014
Ga -3.183817 3.602890 -2.719227 -0.000019 -0.000057 -0.000012
Al -0.029894 -1.856793 2.428824 -0.000002 -0.000015 -0.000023
Ga -0.015353 -1.868427 7.500861 0.000024 -0.000068 -0.000015
Ga -0.022776 -1.867263 -2.711260 0.000015 0.000001 -0.000012
Al -0.032084 1.791205 4.959421 -0.000002 -0.000003 0.000007
Al -0.014909 1.796153 -5.272035 0.000041 0.000040 -0.000007
Ga -0.019775 1.799352 -0.135243 -0.000142 0.000162 0.000043
Al 3.145955 -3.692011 4.973338 -0.000030 0.000133 -0.000002
Al 3.139150 -3.703496 -5.285579 -0.000000 0.000098 -0.000072
Al 3.164840 -3.687268 -0.134517 -0.000015 0.000101 -0.000056
Ga 1.566675 -0.948635 4.946902 -0.000009 -0.000017 0.000009
Al 1.567646 -0.945608 -5.274921 0.000037 -0.000018 -0.000056
Ga 1.563064 -0.951250 -0.109986 -0.000094 0.000084 0.000021
Al 3.147010 1.791309 4.963902 0.000033 -0.000031 0.000017
Al 3.137744 1.790731 -5.265670 0.000040 -0.000018 -0.000029
Ga 3.139773 1.785828 -0.145594 0.000028 0.000013 -0.000043
Ga 6.301842 -3.704048 4.957796 0.000021 0.000005 0.000016
Al 6.300907 -3.712803 -5.251103 -0.000024 -0.000008 0.000004
Al 6.292858 -3.686089 -0.154928 0.000054 0.000017 -0.000011
Al 4.712966 -0.939679 4.959892 -0.000014 -0.000048 -0.000054
Ga 4.713588 -0.947249 -5.249611 -0.000062 -0.000023 0.000003
Al 4.729967 -0.955091 -0.149584 -0.000004 -0.000073 0.000089
Al -3.184773 1.779352 4.963417 -0.000002 0.000024 -0.000021
Al -3.190224 1.798708 -5.288705 -0.000044 0.000028 0.000024
Ga -3.190413 1.772585 -0.118724 0.000035 0.000032 -0.000004
Al -0.028252 -3.699468 4.961128 0.000049 -0.000060 0.000118
Al -0.020559 -3.712417 -5.268563 0.000010 0.000007 -0.000013
Ga -0.037544 -3.688305 -0.132737 -0.000023 0.000028 -0.000054
Al -1.602561 -0.934417 4.953947 -0.000062 -0.000060 -0.000084
Ga -1.602477 -0.948002 -5.251894 -0.000013 -0.000028 0.000018
Al -1.616462 -0.958463 -0.132567 -0.000053 0.000024 0.000007
N 1.558778 0.931629 4.347359 0.000035 -0.000013 0.000015
N 1.560407 0.879107 -5.875174 -0.000003 0.000045 0.000004
N 1.556745 0.870459 -0.823066 0.000138 -0.000028 -0.000014
N -0.068980 3.590995 4.329764 0.000101 -0.000046 -0.000016
N -0.020755 3.609103 -5.873462 -0.000017 0.000009 -0.000008
N -0.023015 3.658269 -0.794801 -0.000025 -0.000049 0.000013
N 3.188257 -1.895089 4.324685 -0.000011 -0.000015 0.000063
N 3.104952 -1.890922 -5.885053 0.000005 -0.000051 -0.000067
N 3.176022 -1.888199 -0.719357 0.000018 -0.000025 -0.000070
N -4.770384 0.874473 4.359980 0.000022 -0.000011 -0.000002
N -4.771501 0.919504 -5.899632 -0.000075 0.000001 -0.000008
N -4.767401 0.832629 -0.804363 -0.000028 0.000069 -0.000049
N -6.309397 3.586580 4.329205 0.000037 0.000046 0.000028
N -6.350859 3.606765 -5.863865 -0.000005 0.000020 0.000020
N -6.392926 3.632847 -0.810635 0.000031 -0.000029 -0.000008
N -3.188266 -1.816920 4.382218 0.000034 0.000017 0.000027
N -3.188498 -1.916432 -5.853410 0.000009 0.000019 -0.000037
N -3.185085 -1.868890 -0.741439 -0.000010 -0.000012 0.000014
N -1.602415 0.877385 4.352939 0.000053 -0.000048 0.000014
N -1.600523 0.923331 -5.891207 0.000020 -0.000065 -0.000114
N -1.603101 0.832377 -0.740836 0.000050 -0.000053 0.000006
N -3.180069 3.615417 4.421346 -0.000032 -0.000026 -0.000014
N -3.185954 3.611836 -5.888100 0.000006 -0.000004 0.000001
N -3.142319 3.634548 -0.735672 -0.000013 -0.000058 0.000047
N -0.066911 -1.889225 4.344146 -0.000022 0.000067 0.000053
N 0.017717 -1.893968 -5.827918 -0.000020 0.000011 0.000004
N -0.057419 -1.838913 -0.739150 0.000053 -0.000062 -0.000046
N -0.019841 1.786890 1.851100 0.000083 0.000017 0.000017
N -0.020880 1.791747 6.884709 -0.000042 0.000030 0.000006
N 0.017820 1.812400 -3.349550 -0.000020 0.000022 0.000064
N 3.185744 -3.670584 1.781706 0.000065 -0.000098 0.000015
N 3.146412 -3.687165 6.896625 -0.000006 0.000039 0.000020
N 3.182768 -3.716560 -3.371974 -0.000045 0.000049 0.000053
N 1.558842 -0.945869 1.879343 0.000048 -0.000094 0.000009
N 1.602511 -0.921227 6.919727 -0.000021 -0.000010 -0.000042
N 1.565742 -0.907275 -3.361995 -0.000006 0.000087 0.000063
N 3.140456 1.784032 1.842952 0.000083 -0.000040 0.000023
N 3.137550 1.791965 6.884564 -0.000016 0.000012 0.000031
N 3.143075 1.784811 -3.337916 0.000015 -0.000002 0.000015
N 6.302472 -3.742787 1.775794 0.000031 0.000015 0.000021
N 6.303356 -3.746982 6.924677 -0.000028 0.000013 -0.000032
N 6.301034 -3.689584 -3.322731 0.000013 0.000002 0.000003
N 4.681195 -0.918738 1.772347 -0.000023 0.000129 0.000009
N 4.672590 -0.922218 6.871499 0.000092 0.000010 -0.000020
N 4.765684 -0.931891 -3.276310 0.000122 0.000032 -0.000070
N -3.189087 1.737366 1.860248 -0.000069 0.000010 -0.000030
N -3.185929 1.784736 6.884861 0.000015 -0.000004 -0.000012
N -3.228043 1.760548 -3.374461 0.000012 0.000002 -0.000010
N -0.064736 -3.668933 1.843528 0.000036 -0.000028 0.000021
N -0.030302 -3.739666 6.876798 -0.000035 0.000039 -0.000034
N -0.063503 -3.721605 -3.356906 0.000012 0.000026 0.000028
N -1.562907 -0.924956 1.785748 0.000002 0.000020 0.000002
N -1.599809 -0.897831 6.859736 0.000009 0.000027 0.000055
N -1.651950 -0.976622 -3.292798 -0.000092 -0.000003 -0.000017
