108
Energy=-1.809929e+06 Lattice="9.561350e+00 0.000000e+00 0.000000e+00 -4.780745e+00 8.278374e+00 0.000000e+00 -2.164712e-03 6.640641e-04 1.547073e+01" Stress="4.754458e-07 4.852614e-06 6.599580e-06 -1.468547e-06 6.712238e-06 -8.119994e-06 1.640503e-07 -8.063978e-06 4.343970e-07" Properties=species:S:1:pos:R:3:forces:R:3 Config_type=AlGaN_super3_30_2_11.xyz
Al 1.572170e+00 8.834231e-01 2.432410e+00 7.258467e-06 3.042341e-05 1.393795e-06
Al 1.575328e+00 8.913442e-01 7.603969e+00 -5.483030e-06 -4.217949e-06 5.287463e-06
Al 1.568192e+00 8.841826e-01 -2.743929e+00 -1.199000e-05 -1.233996e-05 7.260283e-06
Al -2.141554e-02 3.650288e+00 2.444032e+00 -1.335517e-05 -5.784373e-06 2.155640e-05
Al -1.816535e-02 3.647564e+00 7.574707e+00 -4.587684e-06 3.498308e-06 1.892724e-06
Ga -2.496184e-02 3.616633e+00 -2.725985e+00 -4.724152e-06 -2.059557e-06 2.705081e-05
Ga 3.171338e+00 -1.880676e+00 2.413090e+00 8.840077e-06 1.259127e-05 4.145451e-05
Al 3.177099e+00 -1.883163e+00 7.584406e+00 -1.329207e-05 6.207138e-06 2.382554e-05
Ga 3.175539e+00 -1.858901e+00 -2.702731e+00 -9.058827e-06 3.563104e-06 4.341327e-05
Ga -4.809686e+00 8.735589e-01 2.446165e+00 -2.173572e-05 2.725563e-05 3.034857e-05
Ga -4.814610e+00 8.725223e-01 7.603370e+00 -7.411695e-06 1.475746e-05 3.001761e-05
Al -4.806588e+00 8.693054e-01 -2.759348e+00 -1.460958e-05 -1.537667e-05 4.858108e-06
Ga -6.417332e+00 3.637201e+00 2.446953e+00 4.713085e-06 -3.691920e-05 4.730118e-05
Ga -6.422940e+00 3.630577e+00 7.587773e+00 -1.599212e-05 -1.127126e-05 3.006167e-05
Ga -6.389344e+00 3.622934e+00 -2.733599e+00 -2.718301e-06 1.473422e-06 4.057180e-05
Al -3.214327e+00 -1.881153e+00 2.418582e+00 -1.476599e-05 6.163614e-07 2.822164e-05
Al -3.230815e+00 -1.892551e+00 7.592991e+00 2.421814e-06 -1.567286e-06 7.715991e-06
Ga -3.220841e+00 -1.855370e+00 -2.716080e+00 -3.750981e-06 -7.597088e-06 2.234929e-05
Ga -1.610982e+00 8.754250e-01 2.435487e+00 -2.647006e-05 2.520484e-05 3.722151e-05
Ga -1.613214e+00 8.920571e-01 7.601550e+00 -1.162288e-05 -1.012647e-05 4.728865e-05
Al -1.609324e+00 8.839544e-01 -2.741844e+00 -2.560265e-06 -9.892411e-06 3.498720e-05
Ga -3.192381e+00 3.641979e+00 2.435141e+00 -7.728150e-06 -2.182827e-05 4.846391e-05
Ga -3.195543e+00 3.637169e+00 7.599713e+00 7.738696e-06 -2.703924e-06 1.805566e-05
Ga -3.214371e+00 3.630134e+00 -2.726640e+00 3.392255e-06 5.409482e-06 4.054575e-05
Ga -2.671088e-02 -1.863950e+00 2.404713e+00 -9.213819e-06 -1.225661e-05 4.421257e-05
Ga -1.937664e-02 -1.872983e+00 7.604679e+00 -1.917972e-05 2.105641e-06 6.578542e-05
Ga -2.191151e-02 -1.872566e+00 -2.704921e+00 -2.906182e-06 -1.213225e-06 6.518913e-05
Ga -1.013564e-02 1.819456e+00 5.007073e+00 2.195670e-05 9.698953e-06 2.881833e-05
Al -1.557040e-02 1.801365e+00 -5.313404e+00 2.041862e-05 -5.469370e-06 1.783422e-05
Ga -2.017337e-02 1.787908e+00 -1.399645e-01 -8.796134e-07 -3.255456e-05 -5.672604e-05
Al 3.176975e+00 -3.725923e+00 5.023375e+00 6.026097e-06 -1.644927e-06 2.085429e-05
Ga 3.167984e+00 -3.722095e+00 -5.322124e+00 1.255526e-05 -4.177771e-06 1.376334e-05
Al 3.160056e+00 -3.708230e+00 -1.419564e-01 -1.951050e-07 7.631117e-06 -2.410538e-07
Ga 1.584672e+00 -9.478344e-01 5.026603e+00 -1.868170e-06 -2.243431e-06 3.462185e-05
Ga 1.585521e+00 -9.472331e-01 -5.307516e+00 1.109566e-05 6.770637e-06 1.442435e-05
Al 1.572090e+00 -9.579461e-01 -1.574611e-01 1.150907e-05 1.079988e-05 3.897058e-05
Al 3.157226e+00 1.799738e+00 5.016322e+00 -5.511450e-06 -3.443118e-06 -2.944421e-06
Al 3.167283e+00 1.790976e+00 -5.296405e+00 -2.020611e-07 2.593113e-06 3.018232e-05
Ga 3.166705e+00 1.779980e+00 -1.664391e-01 -6.949590e-06 -2.176139e-05 8.959522e-05
Al 6.334375e+00 -3.715199e+00 5.006431e+00 -5.309710e-06 6.815517e-07 1.378994e-05
Ga 6.349901e+00 -3.725329e+00 -5.319322e+00 -1.038870e-05 -1.221459e-05 2.560535e-05
Ga 6.346660e+00 -3.703767e+00 -1.318846e-01 2.902882e-06 -4.769975e-06 -2.752425e-05
Ga 4.763981e+00 -9.659432e-01 5.018272e+00 2.291800e-06 -3.927215e-06 2.392395e-05
Al 4.756491e+00 -9.511613e-01 -5.322102e+00 1.308351e-05 1.435150e-06 1.026904e-05
Al 4.757933e+00 -9.579048e-01 -1.433971e-01 -1.768631e-07 1.566382e-05 1.290390e-05
Al -3.216052e+00 1.808506e+00 5.015153e+00 7.801134e-06 -2.436755e-06 2.452364e-05
Al -3.218012e+00 1.794043e+00 -5.280664e+00 1.292459e-05 8.981081e-06 4.481798e-05
Ga -3.212892e+00 1.790848e+00 -1.797484e-01 7.156854e-06 -1.542654e-05 -2.803110e-05
Ga -2.158066e-02 -3.734350e+00 5.010742e+00 1.295023e-05 2.727905e-06 6.634140e-05
Al -2.274199e-02 -3.737280e+00 -5.305952e+00 5.171216e-06 -1.597275e-05 3.363162e-05
Al -1.413304e-02 -3.707284e+00 -1.396595e-01 -6.068711e-06 1.786044e-06 1.792228e-05
Ga -1.636635e+00 -9.658745e-01 5.020317e+00 9.972728e-06 -1.543564e-06 1.723304e-05
Ga -1.626538e+00 -9.537762e-01 -5.300040e+00 3.406921e-07 -9.580133e-06 3.012572e-05
Al -1.618163e+00 -9.592065e-01 -1.567694e-01 1.446425e-05 1.203503e-05 1.315864e-05
N 1.613030e+00 9.006813e-01 4.347595e+00 1.231924e-06 -1.081610e-05 -1.198132e-05
N 1.575268e+00 9.326853e-01 -5.943783e+00 -1.050784e-05 -7.145199e-07 -1.970992e-05
N 1.566311e+00 8.367938e-01 -8.268388e-01 3.173581e-06 -4.305470e-06 -1.905412e-05
N -2.755797e-02 3.691748e+00 4.370957e+00 -2.079318e-06 8.777561e-06 -2.625613e-05
N -2.157064e-02 3.590791e+00 -5.977078e+00 -1.602371e-06 -3.987126e-06 -1.950462e-05
N -6.355098e-02 3.657413e+00 -7.546174e-01 1.240054e-05 -1.842589e-07 -1.389124e-05
N 3.163169e+00 -1.928000e+00 4.396500e+00 -1.373394e-06 -1.047767e-06 -3.833776e-05
N 3.206588e+00 -1.857794e+00 -5.971126e+00 3.101973e-06 -1.190373e-06 -1.541811e-05
N 3.168877e+00 -1.875599e+00 -7.098835e-01 -5.909451e-06 -2.809022e-06 -5.668516e-05
N -4.806668e+00 9.264928e-01 4.430530e+00 -5.812948e-07 7.849504e-06 -1.544142e-05
N -4.802778e+00 8.848039e-01 -5.874683e+00 -1.085945e-05 -7.299545e-06 -2.469682e-05
N -4.806340e+00 8.250743e-01 -8.357613e-01 2.725316e-06 -8.625489e-06 -9.308479e-06
N -6.445160e+00 3.616177e+00 4.433137e+00 -5.820917e-06 -1.033717e-06 -3.292956e-05
N -6.358941e+00 3.606163e+00 -5.896775e+00 1.341503e-05 1.653519e-05 -2.459913e-05
N -6.355542e+00 3.662663e+00 -7.538319e-01 2.111464e-05 1.003947e-06 -9.219073e-06
N -3.211929e+00 -1.923563e+00 4.338901e+00 4.393122e-06 3.047214e-06 -2.582917e-05
N -3.251267e+00 -1.859273e+00 -5.963839e+00 -3.396140e-07 3.981156e-06 -2.223187e-05
N -3.215175e+00 -1.829557e+00 -7.399144e-01 4.804610e-06 1.429669e-06 -2.368616e-05
N -1.655066e+00 9.029858e-01 4.412805e+00 -1.652354e-05 -1.435735e-05 -3.650003e-05
N -1.619292e+00 9.338605e-01 -5.887397e+00 -1.349042e-05 -3.657220e-07 -3.337598e-05
N -1.608231e+00 8.362715e-01 -8.184301e-01 -1.459188e-05 -1.515932e-05 -4.390811e-05
N -3.161188e+00 3.619889e+00 4.420974e+00 -2.636225e-06 5.714297e-06 -2.834113e-05
N -3.247689e+00 3.605508e+00 -5.889720e+00 -1.320705e-05 7.795901e-06 -1.914613e-05
N -3.211103e+00 3.690178e+00 -7.442661e-01 6.168007e-06 6.461619e-06 -1.669857e-05
N -2.080374e-02 -1.873313e+00 4.382210e+00 -7.735058e-07 5.855113e-06 -4.459678e-05
N -2.079503e-02 -1.926835e+00 -5.896618e+00 2.505483e-06 -6.142705e-06 -3.599549e-05
N -2.244249e-02 -1.879700e+00 -7.114809e-01 -7.218378e-06 6.747664e-06 -6.546398e-05
N 2.024444e-02 1.826453e+00 1.852692e+00 2.918467e-06 1.814504e-05 5.172440e-05
N 2.306717e-02 1.823878e+00 6.992411e+00 5.420816e-07 9.713244e-06 -1.208331e-05
N -1.870631e-02 1.752927e+00 -3.382397e+00 -2.907496e-06 2.024318e-05 -1.006140e-05
N 3.208483e+00 -3.744168e+00 1.771660e+00 5.991943e-06 -1.676891e-06 1.190865e-05
N 3.205177e+00 -3.697321e+00 6.953851e+00 3.121870e-06 -1.560963e-06 -1.457700e-05
N 3.167668e+00 -3.710319e+00 -3.353805e+00 -2.988485e-06 -8.582227e-06 -3.669620e-05
N 1.574234e+00 -9.027580e-01 1.764811e+00 -6.692545e-06 -1.817258e-05 -2.647439e-05
N 1.613683e+00 -9.287050e-01 7.014018e+00 1.090466e-05 -5.168589e-06 -2.235887e-05
N 1.575445e+00 -9.167605e-01 -3.331180e+00 1.145755e-05 -9.128128e-09 -3.439331e-05
N 3.125822e+00 1.775030e+00 1.813616e+00 1.482943e-06 1.999155e-06 -1.129712e-04
N 3.120718e+00 1.770697e+00 6.933417e+00 7.219508e-07 1.607943e-06 -3.079418e-05
N 3.160493e+00 1.749274e+00 -3.370052e+00 8.019432e-06 6.089353e-06 -1.380087e-05
N 6.308304e+00 -3.695826e+00 1.847913e+00 -1.411525e-05 2.792005e-05 3.404708e-05
N 6.306047e+00 -3.691678e+00 6.941345e+00 5.111778e-06 -2.590662e-06 -7.196324e-06
N 6.349221e+00 -3.714166e+00 -3.348292e+00 -1.018396e-05 1.342782e-06 -2.982483e-05
N 4.799077e+00 -9.742936e-01 1.776766e+00 1.454443e-05 -1.663432e-05 -2.602715e-05
N 4.759384e+00 -1.004356e+00 6.996289e+00 3.556315e-06 -1.198661e-05 -1.102828e-05
N 4.754816e+00 -9.209487e-01 -3.404625e+00 1.353622e-05 3.339536e-06 -2.430511e-05
N -3.212967e+00 1.796016e+00 1.794263e+00 7.725972e-06 1.203794e-05 -8.573796e-07
N -3.215719e+00 1.797460e+00 6.922728e+00 2.840095e-06 8.686411e-06 -4.459919e-05
N -3.208812e+00 1.752522e+00 -3.354103e+00 -5.976836e-06 4.780018e-06 -2.884637e-05
N -2.429270e-02 -3.725400e+00 1.775738e+00 6.203477e-06 2.322085e-05 -3.162798e-05
N -2.498064e-02 -3.722538e+00 6.973690e+00 4.722954e-06 5.593622e-07 -5.433058e-05
N -2.203038e-02 -3.714907e+00 -3.397504e+00 -4.281102e-06 -1.407770e-06 -4.977651e-05
N -1.662335e+00 -9.770598e-01 1.764864e+00 1.502150e-05 -1.478710e-05 4.526054e-07
N -1.664437e+00 -9.835616e-01 6.998078e+00 9.371230e-06 6.730881e-06 -3.303351e-05
N -1.616131e+00 -9.174593e-01 -3.329160e+00 5.551911e-06 1.741075e-05 -3.383708e-05
