108
Energy=-1.260622e+06 Lattice="9.479908e+00 0.000000e+00 0.000000e+00 -4.748115e+00 8.206417e+00 0.000000e+00 -2.489441e-04 -6.593877e-04 1.530413e+01" Stress="-9.101856e-03 8.924354e-04 -6.581427e-06 8.899537e-04 -4.646156e-03 3.024430e-04 -9.778577e-06 3.012675e-04 -4.016660e-03" Properties=species:S:1:pos:R:3:forces:R:3 Config_type=AlGaN_super3_18_2_3.xyz
Al 1.571992e+00 9.390676e-01 2.459065e+00 -3.776683e-03 -2.706692e-02 -1.559260e-02
Al 1.542424e+00 8.737509e-01 7.509391e+00 6.221580e-04 -2.171143e-03 2.618856e-03
Al 1.558214e+00 8.622705e-01 -2.739171e+00 1.707415e-03 7.669467e-03 4.192738e-03
Al -2.103599e-02 3.601339e+00 2.451803e+00 -2.688908e-03 5.347436e-03 -5.390904e-03
Al -2.816727e-02 3.598432e+00 7.499720e+00 1.602268e-03 -1.897301e-04 1.427080e-03
Al -1.572213e-02 3.599114e+00 -2.740703e+00 -1.993320e-04 -2.704254e-03 3.148905e-03
Al 3.162711e+00 -1.884584e+00 2.432574e+00 -7.293437e-03 1.346454e-03 -4.334961e-03
Al 3.156898e+00 -1.873055e+00 7.522898e+00 3.596985e-04 -8.878989e-04 1.041209e-03
Ga 3.157764e+00 -1.861144e+00 -2.760925e+00 -7.415639e-04 -2.331830e-03 9.013429e-03
Al -4.746282e+00 9.360827e-01 2.486289e+00 -1.537639e-02 -2.906103e-02 -2.663887e-02
Al -4.784837e+00 8.793030e-01 7.512791e+00 8.897101e-04 -4.839902e-03 -1.799374e-03
Al -4.784467e+00 8.876884e-01 -2.739425e+00 -2.528049e-06 -4.526965e-03 6.881111e-03
Ga -6.364508e+00 3.586846e+00 2.426792e+00 -9.513725e-04 1.802062e-03 -9.374954e-04
Al -6.351176e+00 3.609544e+00 7.507726e+00 1.212534e-03 1.316973e-03 -4.750706e-03
Al -6.359445e+00 3.594957e+00 -2.732021e+00 1.468864e-03 -1.000837e-03 5.468563e-03
Al -3.167008e+00 -1.876766e+00 2.444156e+00 -1.048117e-02 -4.620547e-04 -4.844494e-03
Al -3.172070e+00 -1.868486e+00 7.513381e+00 -2.258145e-04 -3.626833e-04 -4.956286e-03
Ga -3.177648e+00 -1.871744e+00 -2.731852e+00 -1.464546e-03 -2.561819e-04 8.698193e-03
Ga -1.636984e+00 8.929741e-01 2.431106e+00 8.812251e-03 -1.584012e-03 -3.357420e-03
Al -1.619846e+00 8.870151e-01 7.505929e+00 6.025901e-03 -3.897800e-03 -2.263503e-03
Ga -1.616132e+00 8.984074e-01 -2.731015e+00 7.617069e-03 -1.238773e-03 4.287893e-03
Al -3.192429e+00 3.626599e+00 2.450824e+00 1.020127e-02 -1.632761e-03 -5.254529e-03
Al -3.199831e+00 3.633691e+00 7.505003e+00 2.993696e-03 -2.512152e-03 1.295358e-03
Ga -3.202574e+00 3.611591e+00 -2.743881e+00 4.681558e-03 4.828757e-03 5.777895e-03
Ga -2.045256e-02 -1.876122e+00 2.428262e+00 1.233064e-02 8.320478e-03 -6.904520e-04
Al -1.964402e-02 -1.864051e+00 7.509510e+00 2.079648e-03 3.239366e-04 -8.898036e-04
Ga -2.273607e-02 -1.857143e+00 -2.744091e+00 6.748055e-03 -1.833744e-03 8.696655e-03
Al -4.004223e-02 1.780022e+00 4.981733e+00 9.051348e-03 5.128691e-03 2.893867e-03
Al -4.924382e-02 1.770816e+00 -5.282799e+00 1.515724e-02 8.360158e-03 2.860107e-03
Al -9.888679e-03 1.791016e+00 -1.862627e-01 -8.976667e-04 -7.429028e-04 9.527683e-03
Al 3.158200e+00 -3.693067e+00 4.992823e+00 -2.583018e-03 -9.915470e-04 -1.533582e-03
Al 3.148753e+00 -3.690882e+00 -5.289378e+00 -5.693741e-04 -6.520619e-04 -1.677482e-03
Al 3.157780e+00 -3.702544e+00 -1.733151e-01 -1.631935e-03 2.358654e-03 1.211934e-02
Ga 1.581262e+00 -9.636529e-01 4.992402e+00 -3.249178e-03 3.158592e-03 -4.193716e-03
Al 1.581028e+00 -9.698224e-01 -5.286194e+00 -3.660254e-03 6.571077e-03 -3.997176e-03
Al 1.587949e+00 -9.606537e-01 -1.841072e-01 -2.886530e-03 6.610317e-03 1.489661e-02
Al 3.116096e+00 1.791579e+00 5.006163e+00 -4.148478e-04 6.031799e-04 -1.179451e-03
Ga 3.122816e+00 1.779544e+00 -5.286315e+00 -2.610848e-03 2.657248e-04 5.242909e-03
Al 3.130672e+00 1.791122e+00 -1.455521e-01 -1.190993e-03 -5.029979e-03 -7.663645e-03
Al 6.307938e+00 -3.696021e+00 4.993369e+00 -3.013290e-03 3.315648e-04 9.998792e-04
Ga 6.295662e+00 -3.695170e+00 -5.287876e+00 -1.177701e-03 -1.252392e-03 3.611611e-03
Al 6.294088e+00 -3.698681e+00 -1.843021e-01 -8.492993e-04 1.909089e-03 1.018069e-02
Ga 4.732440e+00 -9.665746e-01 4.985842e+00 -1.864549e-03 1.239805e-03 1.163740e-04
Al 4.725961e+00 -9.564603e-01 -5.286216e+00 -3.308706e-03 1.687726e-03 2.451520e-03
Ga 4.722805e+00 -9.506243e-01 -1.193151e-01 -1.018979e-03 4.110204e-03 -3.602702e-03
Ga -3.204828e+00 1.802891e+00 4.993335e+00 1.377564e-03 3.321607e-04 3.901977e-03
Ga -3.194731e+00 1.796090e+00 -5.297568e+00 -1.362064e-03 5.601344e-04 2.083222e-03
Al -3.199652e+00 1.806945e+00 -1.803479e-01 -3.493573e-03 -3.457573e-03 8.124612e-03
Al -3.306962e-02 -3.681943e+00 4.995299e+00 -3.482943e-04 -1.096230e-03 2.118382e-03
Al -1.374565e-02 -3.673355e+00 -5.286821e+00 -3.437979e-03 -2.596958e-03 1.251808e-03
Ga -2.399293e-02 -3.694173e+00 -1.191455e-01 -1.238152e-03 1.031658e-03 -1.587704e-02
Al -1.593647e+00 -9.610641e-01 4.996604e+00 -2.645538e-03 2.890334e-03 2.176678e-03
Ga -1.589306e+00 -9.488755e-01 -5.294925e+00 -1.967282e-03 2.934009e-03 2.230489e-03
Ga -1.588701e+00 -9.473109e-01 -1.067365e-01 -3.530778e-03 2.779312e-03 -2.205945e-02
N 1.555223e+00 9.131091e-01 4.353750e+00 -1.015262e-03 3.584179e-03 5.788602e-03
N 1.515412e+00 8.594718e-01 -5.883193e+00 -4.267556e-03 -6.824964e-03 -4.946147e-03
N 1.558426e+00 8.766365e-01 -7.956270e-01 -4.975588e-04 -3.837227e-03 2.215930e-05
N -2.144361e-02 3.604793e+00 4.393731e+00 3.108683e-04 -1.443359e-03 -3.599244e-03
N -5.167020e-02 3.584213e+00 -5.889482e+00 -6.401534e-03 -3.720368e-03 -5.997595e-03
N -2.079548e-02 3.606737e+00 -7.967519e-01 -2.297192e-03 -1.382085e-03 -1.087703e-03
N 3.156173e+00 -1.909618e+00 4.356889e+00 -1.410963e-03 -4.063209e-03 -5.011318e-03
N 3.156076e+00 -1.871340e+00 -5.867647e+00 -1.043800e-03 -4.138202e-04 -8.051011e-04
N 3.134116e+00 -1.883989e+00 -7.718140e-01 -7.034331e-03 -6.404003e-03 6.115514e-04
N -4.807873e+00 8.913844e-01 4.340689e+00 -3.855471e-03 4.065410e-03 1.010188e-02
N -4.779182e+00 8.413085e-01 -5.909226e+00 2.552042e-03 -7.066073e-03 5.266692e-04
N -4.776078e+00 9.154202e-01 -8.045437e-01 2.194118e-03 2.428208e-03 1.795842e-03
N -6.353547e+00 3.602761e+00 4.414924e+00 2.799654e-03 -4.790977e-04 2.860737e-03
N -6.319567e+00 3.624352e+00 -5.911193e+00 6.651689e-03 3.528827e-03 -3.043068e-04
N -6.375853e+00 3.593012e+00 -7.919451e-01 -4.287877e-03 -2.409881e-03 -1.418535e-05
N -3.147138e+00 -1.883421e+00 4.380078e+00 9.295914e-03 -2.665250e-03 -7.090146e-03
N -3.206623e+00 -1.849092e+00 -5.904140e+00 -2.398234e-03 3.112718e-03 -6.542568e-04
N -3.176145e+00 -1.888174e+00 -7.600692e-01 1.610343e-03 -6.893973e-03 -6.390739e-04
N -1.585880e+00 8.759541e-01 4.414508e+00 -4.193315e-04 -1.097838e-02 -2.036643e-03
N -1.568456e+00 9.166535e-01 -5.895501e+00 -5.879624e-03 -7.485931e-03 -7.911460e-03
N -1.622133e+00 9.183675e-01 -7.576152e-01 5.020044e-03 4.973553e-03 8.181604e-03
N -3.200024e+00 3.655377e+00 4.385460e+00 2.344278e-03 4.605948e-03 -6.775486e-03
N -3.200996e+00 3.651452e+00 -5.887603e+00 4.393561e-03 6.907825e-03 -3.103332e-03
N -3.175537e+00 3.607777e+00 -7.659756e-01 1.130722e-02 -2.778545e-03 3.355873e-03
N -5.217083e-02 -1.880372e+00 4.409936e+00 -2.625153e-03 -1.457088e-03 -8.892104e-04
N 1.565635e-03 -1.876654e+00 -5.886527e+00 1.004535e-02 -2.891923e-03 -3.203653e-03
N 2.292729e-03 -1.848889e+00 -7.626439e-01 9.474997e-03 3.128226e-03 -5.847070e-04
N 7.252271e-03 1.806254e+00 1.807383e+00 9.165258e-04 2.265467e-03 -8.340352e-03
N -2.549665e-02 1.780398e+00 6.906338e+00 -2.376993e-03 -1.063938e-03 -4.686050e-03
N 2.562084e-02 1.801225e+00 -3.378725e+00 -3.986040e-03 6.174252e-05 6.821165e-03
N 3.159931e+00 -3.696422e+00 1.838678e+00 -6.693019e-03 -6.570699e-03 -1.062235e-02
N 3.153613e+00 -3.691231e+00 6.916526e+00 -4.226155e-03 3.390605e-04 -3.266247e-03
N 3.186914e+00 -3.711331e+00 -3.388353e+00 -8.213311e-04 -3.328814e-03 1.495232e-03
N 1.619938e+00 -9.410690e-01 1.803112e+00 -5.103184e-03 8.178899e-03 -2.819492e-03
N 1.585729e+00 -9.652799e-01 6.951566e+00 -4.638115e-03 3.431719e-03 5.006901e-03
N 1.579911e+00 -9.109249e-01 -3.386807e+00 -4.812574e-03 -8.432459e-04 -2.337973e-05
N 3.135864e+00 1.729623e+00 1.774923e+00 5.090253e-03 5.342006e-03 2.953909e-03
N 3.123586e+00 1.787380e+00 6.924841e+00 5.720366e-05 -2.090735e-03 -6.038021e-03
N 3.126942e+00 1.785074e+00 -3.319122e+00 1.029152e-03 -3.235526e-04 6.174100e-03
N 6.267932e+00 -3.666693e+00 1.804034e+00 -4.281241e-04 -4.204201e-03 -6.995358e-03
N 6.301973e+00 -3.689943e+00 6.917619e+00 -1.203471e-03 4.049541e-04 -3.201602e-03
N 6.299157e+00 -3.725764e+00 -3.323210e+00 2.142074e-03 -3.909288e-03 3.007964e-03
N 4.708491e+00 -1.020737e+00 1.827419e+00 1.414714e-02 2.652652e-02 1.983134e-02
N 4.730091e+00 -9.593916e-01 6.951380e+00 -1.749649e-03 4.130466e-03 7.362204e-04
N 4.735676e+00 -9.253888e-01 -3.364742e+00 -2.924677e-04 1.231384e-02 -8.101579e-03
N -3.249523e+00 1.807224e+00 1.807224e+00 6.601519e-03 9.021283e-03 -7.118305e-03
N -3.205231e+00 1.786736e+00 6.964914e+00 3.582764e-04 3.989479e-03 -2.333061e-05
N -3.223443e+00 1.780343e+00 -3.340932e+00 -5.871913e-03 -5.994653e-03 1.266514e-04
N 7.222883e-03 -3.720907e+00 1.795875e+00 3.518430e-04 -1.250777e-03 1.781665e-02
N -2.544984e-02 -3.680761e+00 6.914869e+00 -2.689623e-04 -5.426487e-04 -4.052924e-03
N -5.805797e-02 -3.701206e+00 -3.370716e+00 -5.677754e-03 -1.994039e-03 -4.389751e-03
N -1.626157e+00 -9.783767e-01 1.788366e+00 -6.169825e-03 3.312083e-03 2.556864e-02
N -1.595606e+00 -9.566754e-01 6.920804e+00 -1.173678e-03 4.358522e-03 -1.603881e-03
N -1.596706e+00 -9.506711e-01 -3.342965e+00 -2.553238e-03 5.863191e-03 -2.697504e-03
