108
Energy=-757092.614792 Lattice="9.434020 0.000000 0.000000 -4.718534 8.169051 0.000000 -0.002490 -0.001485 15.152890" Stress="-0.000000 -0.000000 -0.000000 -0.000000 -0.000001 -0.000000 -0.000000 -0.000000 -0.000001" Properties=species:S:1:pos:R:3:forces:R:3
Al 1.550106 0.878367 2.387277 -0.000161 0.000072 0.000048
Al 1.552642 0.876541 7.422719 0.000018 -0.000122 0.000098
Al 1.553824 0.883221 -2.683736 0.000054 0.000027 0.000055
Al -0.021541 3.591332 2.377001 -0.000041 -0.000104 -0.000000
Al -0.022932 3.589536 7.420699 -0.000064 0.000012 0.000105
Al -0.013675 3.590993 -2.678654 -0.000081 -0.000045 0.000124
Al 3.127822 -1.861810 2.382137 0.000002 -0.000059 -0.000189
Al 3.124690 -1.859433 7.433378 0.000047 0.000100 -0.000078
Al 3.142284 -1.850557 -2.683005 0.000115 0.000061 0.000147
Al -4.747177 0.868856 2.354642 0.000152 0.000106 -0.000026
Al -4.753688 0.868709 7.439651 0.000030 0.000188 0.000011
Al -4.752117 0.857323 -2.664935 -0.000017 -0.000001 -0.000042
Al -6.319425 3.588285 2.378457 -0.000001 -0.000011 -0.000185
Al -6.320386 3.582356 7.419780 0.000069 0.000074 0.000082
Al -6.325150 3.584652 -2.671131 -0.000130 -0.000028 0.000000
Al -3.164810 -1.860189 2.363661 -0.000053 0.000023 -0.000096
Al -3.170171 -1.859597 7.436433 0.000057 0.000081 -0.000007
Al -3.175879 -1.853770 -2.674524 0.000092 -0.000041 -0.000083
Al -1.591318 0.867361 2.366687 0.000191 -0.000097 -0.000075
Al -1.589855 0.869561 7.423543 0.000143 0.000049 0.000007
Al -1.587490 0.867576 -2.658272 0.000231 0.000014 -0.000053
Al -3.166165 3.595118 2.363472 0.000110 -0.000182 -0.000193
Al -3.164423 3.596048 7.426700 0.000071 -0.000246 -0.000114
Ga -3.163313 3.594717 -2.653552 0.000237 -0.000076 -0.000079
Al -0.029828 -1.857083 2.390969 -0.000166 0.000064 -0.000111
Ga -0.024346 -1.853524 7.426235 0.000322 0.000037 -0.000083
Ga -0.030071 -1.848178 -2.679131 0.000337 -0.000034 -0.000037
Al -0.015141 1.776933 4.897354 -0.000217 0.000190 0.000191
Al -0.013611 1.776980 -5.204719 -0.000064 0.000161 -0.000036
Al -0.023753 1.785487 -0.146716 -0.000045 0.000012 0.000415
Al 3.123651 -3.672350 4.900128 -0.000041 0.000105 -0.000053
Al 3.133503 -3.660923 -5.210380 0.000018 0.000133 -0.000014
Al 3.138068 -3.672715 -0.137758 -0.000039 -0.000129 0.000587
Al 1.546932 -0.944745 4.887810 -0.000233 0.000245 -0.000096
Al 1.561551 -0.939232 -5.200139 0.000124 0.000115 -0.000029
Ga 1.558771 -0.942699 -0.133795 -0.000375 0.000360 0.000583
Al 3.106856 1.784009 4.901797 0.000015 0.000046 -0.000008
Al 3.112354 1.780642 -5.199384 0.000036 0.000035 0.000020
Al 3.122833 1.785582 -0.150349 -0.000321 -0.000109 0.000133
Al 6.269790 -3.677070 4.898814 0.000036 0.000066 0.000042
Al 6.269667 -3.670822 -5.203656 0.000063 0.000016 0.000146
Al 6.266869 -3.671655 -0.153077 0.000033 -0.000030 0.000197
Ga 4.693408 -0.956061 4.906417 -0.000096 0.000186 0.000068
Al 4.692197 -0.954430 -5.202322 -0.000146 0.000111 -0.000089
Al 4.703991 -0.950026 -0.147996 -0.000275 0.000034 -0.000128
Ga -3.165887 1.783643 4.903557 -0.000093 0.000109 0.000050
Ga -3.164743 1.773419 -5.201848 -0.000107 0.000047 0.000085
Al -3.167027 1.768956 -0.141235 -0.000040 0.000039 0.000536
Al -0.029172 -3.669613 4.887560 0.000075 0.000024 -0.000092
Al -0.030535 -3.670940 -5.210046 0.000106 -0.000532 -0.000067
Al -0.035797 -3.679093 -0.120145 0.000150 0.000107 0.000329
Al -1.589560 -0.952517 4.889915 -0.000262 0.000128 -0.000126
Al -1.599102 -0.946209 -5.195620 -0.000062 0.000104 -0.000086
Al -1.607589 -0.944608 -0.136491 -0.000008 0.000054 0.000180
N 1.548355 0.874448 4.302083 0.000144 -0.000149 -0.000066
N 1.550747 0.872458 -5.807320 -0.000029 -0.000251 -0.000022
N 1.548802 0.918159 -0.771025 0.000059 -0.000058 0.000050
N -0.023313 3.591631 4.300477 0.000031 -0.000159 -0.000057
N -0.019494 3.591082 -5.808929 0.000085 -0.000165 -0.000072
N -0.022266 3.591242 -0.756436 0.000039 -0.000030 0.000015
N 3.086674 -1.881964 4.286167 -0.000183 -0.000160 0.000027
N 3.122209 -1.854162 -5.804509 0.000007 -0.000037 0.000061
N 3.165543 -1.879321 -0.768634 0.000239 -0.000095 -0.000075
N -4.784794 0.891748 4.261176 -0.000085 -0.000116 0.000010
N -4.786654 0.846959 -5.807497 -0.000034 -0.000098 -0.000001
N -4.744243 0.866065 -0.742043 0.000122 -0.000025 0.000157
N -6.318491 3.589011 4.296104 0.000005 -0.000016 0.000045
N -6.315826 3.590532 -5.813397 -0.000131 -0.000122 -0.000121
N -6.312319 3.593085 -0.751464 -0.000023 0.000060 0.000143
N -3.128540 -1.881851 4.274793 0.000287 -0.000188 -0.000205
N -3.163754 -1.856705 -5.798341 -0.000014 -0.000090 0.000005
N -3.165979 -1.855627 -0.751529 0.000030 -0.000030 0.000169
N -1.555972 0.848106 4.279130 0.000747 -0.000385 -0.000162
N -1.548008 0.845060 -5.822380 0.000356 -0.000206 -0.000220
N -1.590725 0.867765 -0.739200 0.000211 -0.000069 0.000244
N -3.166481 3.639269 4.275523 -0.000081 0.000030 0.000031
N -3.164049 3.643203 -5.816852 -0.000225 0.000100 0.000122
N -3.168028 3.597313 -0.677238 -0.000176 -0.000063 0.000345
N -0.025923 -1.855496 4.308020 0.000208 -0.000156 0.000106
N -0.020570 -1.850792 -5.746259 0.000055 0.000593 -0.000011
N -0.062809 -1.878377 -0.709103 -0.000004 -0.000299 0.000315
N -0.019608 1.778028 1.773644 -0.000128 0.000175 -0.000459
N -0.021733 1.776389 6.818044 -0.000103 0.000100 -0.000007
N -0.024883 1.777047 -3.280789 -0.000124 0.000120 0.000012
N 3.130748 -3.669988 1.775884 0.000012 0.000168 -0.000434
N 3.124487 -3.671038 6.821509 -0.000010 0.000103 -0.000013
N 3.165915 -3.648400 -3.296982 -0.000001 -0.000057 -0.000092
N 1.550766 -0.944363 1.843584 0.000201 -0.000084 -0.000730
N 1.592800 -0.923061 6.804768 -0.000075 0.000178 0.000068
N 1.597790 -0.919948 -3.285262 -0.000370 0.000025 -0.000085
N 3.114996 1.778843 1.765726 0.000149 -0.000057 -0.000254
N 3.119670 1.776280 6.819255 -0.000027 -0.000131 -0.000072
N 3.124031 1.779786 -3.278198 0.000025 -0.000070 -0.000019
N 6.265714 -3.674362 1.767685 0.000057 0.000063 -0.000227
N 6.266046 -3.669449 6.822231 -0.000027 0.000050 -0.000070
N 6.269125 -3.668997 -3.277573 0.000069 0.000019 -0.000021
N 4.694369 -0.951474 1.770376 -0.000036 0.000034 0.000184
N 4.695477 -0.948048 6.880251 -0.000010 -0.000276 0.000187
N 4.698349 -0.945427 -3.281266 0.000097 0.000160 -0.000031
N -3.166629 1.772327 1.778047 -0.000019 0.000063 -0.000501
N -3.171463 1.774512 6.884577 0.000041 0.000172 0.000092
N -3.167745 1.729298 -3.229141 -0.000074 -0.000018 0.000081
N -0.030968 -3.670883 1.792903 0.000155 0.000140 -0.000344
N -0.025311 -3.718767 6.801872 -0.000049 -0.000137 -0.000106
N -0.063271 -3.699228 -3.309283 -0.000036 -0.000055 0.000058
N -1.595428 -0.947691 1.777407 -0.000149 0.000139 -0.000305
N -1.639454 -0.925441 6.800937 -0.000474 -0.000019 0.000125
N -1.640633 -0.917211 -3.288774 -0.000524 -0.000114 0.000166
