108
Energy=-1.352174e+06 Lattice="9.505422e+00 0.000000e+00 0.000000e+00 -4.755268e+00 8.230798e+00 0.000000e+00 2.419063e-03 -2.110809e-04 1.533888e+01" Stress="2.317838e-04 -4.440906e-05 7.174608e-05 -4.414177e-05 6.803227e-05 6.564815e-05 9.357482e-05 7.273833e-05 1.966409e-04" Properties=species:S:1:pos:R:3:forces:R:3 Config_type=AlGaN_super3_20_2_20.xyz
Al 1.582129e+00 8.802482e-01 2.408469e+00 5.594602e-05 -5.421465e-05 1.343580e-04
Al 1.577302e+00 8.720848e-01 7.530213e+00 3.088806e-05 -5.839684e-05 7.519104e-05
Al 1.556285e+00 8.692770e-01 -2.711461e+00 3.770832e-04 -1.277873e-05 2.120420e-04
Al -2.717829e-02 3.624748e+00 2.415801e+00 -1.079170e-05 -2.911944e-06 1.284272e-04
Al -1.334718e-02 3.632779e+00 7.540852e+00 9.705854e-05 1.863072e-04 3.600931e-04
Al -3.716998e-02 3.612358e+00 -2.724931e+00 1.700404e-05 4.164793e-04 -4.105003e-04
Al 3.157618e+00 -1.866167e+00 2.381456e+00 1.689876e-04 -3.758854e-04 8.236358e-04
Al 3.146870e+00 -1.868902e+00 7.566109e+00 -9.582228e-05 2.251549e-04 3.838769e-05
Ga 3.142279e+00 -1.871533e+00 -2.729448e+00 9.180417e-05 -7.181259e-05 4.093809e-04
Al -4.794034e+00 8.723560e-01 2.386000e+00 -9.609263e-05 -2.343365e-04 -5.952670e-05
Al -4.788500e+00 8.749454e-01 7.532410e+00 -4.135378e-05 -1.411592e-04 -2.435652e-04
Al -4.776245e+00 8.716849e-01 -2.693026e+00 4.847845e-05 5.619479e-04 5.003909e-05
Ga -6.360967e+00 3.597524e+00 2.423142e+00 1.821633e-04 1.096373e-04 3.540294e-04
Al -6.358988e+00 3.621884e+00 7.516793e+00 -5.054207e-05 -2.832025e-05 7.438181e-07
Ga -6.352527e+00 3.613757e+00 -2.716813e+00 -9.874029e-05 1.976659e-05 2.441062e-04
Ga -3.201439e+00 -1.861048e+00 2.412881e+00 1.327076e-04 -8.038174e-05 3.266905e-04
Al -3.189295e+00 -1.879379e+00 7.538599e+00 1.431555e-04 -6.473465e-05 1.467634e-04
Ga -3.189755e+00 -1.856373e+00 -2.723070e+00 -1.073334e-04 -2.994960e-04 4.685018e-04
Ga -1.611322e+00 8.766800e-01 2.400406e+00 2.757057e-04 -1.886754e-04 -9.658081e-05
Ga -1.607190e+00 8.687528e-01 7.538980e+00 1.208932e-04 -8.229663e-05 7.994759e-05
Al -1.605922e+00 8.717405e-01 -2.706407e+00 -4.825138e-04 6.318843e-04 -2.285316e-04
Ga -3.188081e+00 3.624458e+00 2.386470e+00 3.244158e-04 -2.474652e-04 1.959248e-04
Al -3.200350e+00 3.634511e+00 7.542965e+00 -7.981042e-05 1.523422e-05 -5.238718e-05
Al -3.187996e+00 3.621842e+00 -2.706328e+00 4.032696e-04 -1.419730e-04 5.938315e-05
Ga -2.126613e-02 -1.866558e+00 2.417579e+00 1.833603e-04 -8.694402e-05 5.923963e-04
Al -2.006087e-02 -1.878186e+00 7.540046e+00 -1.369086e-05 -1.044612e-04 1.747453e-04
Al -2.046883e-02 -1.863216e+00 -2.730806e+00 5.565907e-05 -4.906740e-04 -1.705815e-04
Ga -2.822775e-03 1.795935e+00 4.975154e+00 -3.077767e-04 3.445405e-04 1.365488e-04
Ga -1.520761e-02 1.793067e+00 -5.244676e+00 -1.605030e-04 1.268631e-04 -9.312583e-05
Ga -2.714852e-02 1.793840e+00 -1.638656e-01 -6.987546e-05 4.362992e-05 2.109228e-04
Ga 3.152278e+00 -3.691926e+00 4.991416e+00 -6.879606e-05 1.862818e-04 3.239368e-04
Al 3.143708e+00 -3.690537e+00 -5.272252e+00 1.834367e-04 7.162899e-05 -1.453189e-04
Al 3.144778e+00 -3.701842e+00 -1.616709e-01 -6.430661e-05 5.883044e-06 -2.057832e-05
Ga 1.564395e+00 -9.558821e-01 4.981977e+00 -1.794994e-04 3.427624e-04 1.753229e-04
Al 1.553909e+00 -9.672406e-01 -5.269416e+00 -2.095787e-05 6.806238e-06 -1.124373e-04
Ga 1.561726e+00 -9.608190e-01 -1.571774e-01 -3.296499e-04 2.191688e-04 4.109073e-04
Al 3.149713e+00 1.798369e+00 4.986640e+00 -1.731771e-04 -7.335636e-06 -6.064625e-05
Ga 3.146319e+00 1.785200e+00 -5.269271e+00 3.144517e-05 6.425289e-05 4.258104e-04
Al 3.161662e+00 1.779405e+00 -1.589779e-01 -1.004832e-04 -1.587391e-04 -3.757379e-04
Al 6.328629e+00 -3.698345e+00 4.993282e+00 -4.695966e-04 -2.208226e-04 1.325783e-04
Al 6.315045e+00 -3.686053e+00 -5.282362e+00 -2.921897e-04 1.371566e-04 -8.218571e-05
Ga 6.311379e+00 -3.694638e+00 -1.528076e-01 1.057720e-04 3.964466e-05 4.577510e-04
Ga 4.733301e+00 -9.508745e-01 4.984742e+00 -5.829665e-05 1.796849e-04 1.356500e-04
Al 4.732141e+00 -9.627657e-01 -5.282622e+00 -3.760826e-05 1.217292e-04 -3.241030e-04
Al 4.731618e+00 -9.387751e-01 -1.455304e-01 -5.526925e-05 1.597137e-05 -5.154050e-04
Ga -3.213979e+00 1.793590e+00 4.982304e+00 1.672577e-04 2.390045e-05 7.129969e-05
Ga -3.203404e+00 1.795893e+00 -5.240778e+00 -1.180844e-04 9.257686e-05 5.506273e-04
Al -3.205019e+00 1.787844e+00 -1.868061e-01 -3.158917e-04 1.188963e-04 2.326887e-04
Al -3.785799e-02 -3.695590e+00 5.007067e+00 1.089766e-04 -5.402936e-05 4.784562e-04
Al -1.903859e-02 -3.681264e+00 -5.274174e+00 5.637750e-05 3.922378e-06 -9.800257e-05
Al -1.466830e-02 -3.698035e+00 -1.785328e-01 2.418538e-05 1.770368e-04 -6.712731e-04
Al -1.606942e+00 -9.745721e-01 5.002761e+00 -8.152016e-05 9.403609e-05 4.516866e-04
Al -1.603173e+00 -9.761360e-01 -5.261086e+00 -1.140399e-05 -2.972437e-04 1.754794e-04
Al -1.608602e+00 -9.528534e-01 -1.807733e-01 4.283029e-05 -2.508214e-04 -1.672495e-04
N 1.612030e+00 8.987779e-01 4.325608e+00 2.649995e-04 -1.022268e-04 -1.202351e-04
N 1.560245e+00 8.270440e-01 -5.905148e+00 2.678803e-05 -5.303775e-05 -2.624046e-05
N 1.602473e+00 8.950631e-01 -8.033473e-01 2.238412e-04 -3.894642e-05 -1.252479e-04
N 1.624705e-02 3.649914e+00 4.331135e+00 2.662376e-04 5.712523e-05 -1.618948e-04
N -2.355290e-02 3.665069e+00 -5.885787e+00 3.061145e-06 -2.896574e-05 -2.490086e-04
N -6.572456e-02 3.646147e+00 -8.183095e-01 -3.157998e-05 -4.881102e-05 -5.232243e-06
N 3.151499e+00 -1.870738e+00 4.296274e+00 3.794684e-05 -1.011465e-04 -6.042156e-04
N 3.142562e+00 -1.869023e+00 -5.853550e+00 3.068186e-05 1.532950e-05 -2.098594e-04
N 3.190605e+00 -1.892758e+00 -7.453792e-01 1.285746e-04 8.541109e-05 -1.366192e-04
N -4.821481e+00 8.985580e-01 4.309028e+00 -4.011001e-05 -6.574517e-05 3.596804e-05
N -4.775390e+00 8.321631e-01 -5.910149e+00 5.771337e-05 -2.373057e-04 8.288845e-05
N -4.780203e+00 8.683907e-01 -7.736486e-01 5.154633e-05 -4.769611e-05 -1.225842e-04
N -6.357062e+00 3.617935e+00 4.423051e+00 1.956689e-04 -1.546048e-04 -2.641512e-04
N -6.359117e+00 3.665629e+00 -5.896101e+00 1.649494e-04 -4.137290e-05 -2.408230e-05
N -6.321914e+00 3.593367e+00 -7.406116e-01 3.592370e-05 2.520387e-05 -6.116479e-05
N -3.149783e+00 -1.890462e+00 4.397763e+00 1.136580e-04 8.354238e-05 -3.704997e-04
N -3.186838e+00 -1.869232e+00 -5.874749e+00 1.357192e-05 1.462650e-04 -1.253704e-04
N -3.197501e+00 -1.820718e+00 -7.445495e-01 7.650617e-06 1.529219e-04 -2.346326e-04
N -1.611395e+00 8.256936e-01 4.386147e+00 2.654040e-04 -3.931815e-04 -1.535249e-04
N -1.610458e+00 8.275384e-01 -5.835759e+00 5.713764e-05 9.587602e-05 -1.874897e-04
N -1.648045e+00 8.519294e-01 -7.889390e-01 2.872920e-04 -5.742727e-05 1.734290e-04
N -3.236080e+00 3.651702e+00 4.368487e+00 -1.349029e-04 9.332060e-06 -4.074900e-04
N -3.196545e+00 3.665782e+00 -5.884612e+00 -1.204097e-04 -4.092451e-05 9.660688e-05
N -3.189165e+00 3.625388e+00 -7.756006e-01 1.429417e-04 -1.064493e-04 1.575868e-05
N -6.430644e-02 -1.894291e+00 4.400367e+00 3.948447e-05 -2.189480e-04 -4.744811e-04
N -2.583263e-02 -1.869503e+00 -5.877284e+00 1.114083e-04 4.550139e-05 -4.795216e-05
N -6.216158e-02 -1.891379e+00 -8.097113e-01 5.088387e-05 -5.853733e-06 9.969804e-05
N 2.104054e-02 1.814711e+00 1.826257e+00 -1.507115e-04 1.037507e-04 -1.363517e-04
N 2.326860e-02 1.817515e+00 6.954281e+00 -8.604831e-05 3.576562e-05 -6.143245e-05
N -2.156109e-02 1.786670e+00 -3.263722e+00 -1.916934e-04 2.048599e-04 7.996935e-05
N 3.192749e+00 -3.679485e+00 1.762057e+00 -9.740623e-05 2.280155e-04 -7.565562e-05
N 3.149927e+00 -3.693094e+00 6.977633e+00 -5.491173e-05 -5.658149e-05 -1.871833e-04
N 3.142410e+00 -3.747726e+00 -3.357282e+00 -1.024528e-05 -3.214443e-04 4.577463e-04
N 1.598323e+00 -9.308706e-01 1.826806e+00 -3.554266e-04 2.774380e-04 -6.789275e-04
N 1.567586e+00 -9.593627e-01 6.971128e+00 1.028781e-04 -4.801252e-05 -9.630214e-05
N 1.519902e+00 -9.302513e-01 -3.348193e+00 -9.980791e-05 -6.935731e-05 6.548875e-05
N 3.145008e+00 1.744234e+00 1.758363e+00 -1.213592e-04 -5.037722e-05 2.360235e-04
N 3.147636e+00 1.788258e+00 6.914505e+00 -3.075270e-05 2.326166e-06 -2.360832e-04
N 3.146627e+00 1.738518e+00 -3.297205e+00 1.206494e-04 -1.231047e-04 -9.917392e-05
N 6.278792e+00 -3.721675e+00 1.816876e+00 -1.132317e-04 -1.287177e-04 -5.104696e-04
N 6.314529e+00 -3.697282e+00 6.920826e+00 -4.244104e-05 2.591552e-05 -2.766599e-04
N 6.276512e+00 -3.720881e+00 -3.366681e+00 -2.108996e-04 -2.245396e-04 1.687219e-04
N 4.694194e+00 -9.272251e-01 1.771243e+00 -7.965144e-05 2.184774e-04 2.382481e-04
N 4.727618e+00 -9.576183e-01 6.973925e+00 -2.288805e-05 1.862913e-05 -3.695405e-05
N 4.729937e+00 -9.020916e-01 -3.373624e+00 -4.596721e-05 -9.860447e-05 1.942124e-05
N -3.236279e+00 1.766398e+00 1.740318e+00 4.311365e-05 1.517566e-04 -3.113821e-04
N -3.236234e+00 1.818177e+00 6.957990e+00 1.823326e-05 -4.664423e-05 -1.340480e-04
N -3.198669e+00 1.792476e+00 -3.254111e+00 1.967945e-04 -3.221218e-04 1.490459e-04
N -2.693843e-02 -3.693861e+00 1.727877e+00 -7.951270e-05 3.584015e-05 1.763309e-04
N -1.901269e-02 -3.695646e+00 6.927970e+00 -4.492995e-05 9.612918e-05 -2.536116e-04
N 2.352505e-02 -3.675246e+00 -3.351216e+00 -1.547533e-04 4.069988e-04 3.723383e-05
N -1.603024e+00 -9.555446e-01 1.725472e+00 -1.298294e-04 1.094121e-04 2.514061e-06
N -1.604981e+00 -1.006400e+00 6.914919e+00 -1.045880e-04 -1.073822e-05 -4.491427e-05
N -1.565169e+00 -9.324746e-01 -3.345803e+00 5.773995e-05 -2.158121e-04 -2.006841e-04
