108
Energy=-2.221908e+06 Lattice="9.614626e+00 0.000000e+00 0.000000e+00 -4.805936e+00 8.325388e+00 0.000000e+00 -5.195543e-04 2.352856e-04 1.558548e+01" Stress="2.274319e-06 2.404146e-06 -8.752175e-07 9.106741e-06 6.188058e-06 -9.412406e-06 -4.417487e-06 -2.757555e-06 -2.915525e-07" Properties=species:S:1:pos:R:3:forces:R:3 Config_type=AlGaN_super3_39_1_14.xyz
Al 1.569241e+00 8.974882e-01 2.469707e+00 3.352064e-06 2.251144e-06 2.225123e-05
Al 1.569315e+00 8.979154e-01 7.622469e+00 -1.104260e-05 5.023343e-06 2.598702e-06
Ga 1.589483e+00 8.878467e-01 -2.745007e+00 9.236669e-07 -1.564737e-05 4.187166e-06
Al -1.447055e-02 3.648471e+00 2.454765e+00 -9.227081e-06 1.826174e-06 -1.858111e-06
Al -2.639795e-02 3.641994e+00 7.640095e+00 -1.070271e-05 7.295153e-06 -1.319671e-05
Ga -2.889049e-02 3.672524e+00 -2.746320e+00 9.501263e-06 -5.700297e-07 -2.231311e-07
Ga 3.177027e+00 -1.894672e+00 2.464891e+00 -3.806316e-06 -2.968960e-06 2.758345e-05
Ga 3.189683e+00 -1.882325e+00 7.632975e+00 5.702777e-06 1.350385e-05 -7.064913e-06
Al 3.179923e+00 -1.904743e+00 -2.745469e+00 -1.343119e-06 -4.315678e-06 4.343784e-06
Ga -4.838485e+00 8.894990e-01 2.480123e+00 -1.757424e-05 1.231594e-05 1.310890e-05
Al -4.826827e+00 8.812000e-01 7.614973e+00 -6.131180e-06 1.062403e-07 8.410573e-06
Ga -4.842192e+00 8.893469e-01 -2.745622e+00 -2.274894e-06 -9.482637e-06 -1.437263e-05
Al -6.442214e+00 3.658333e+00 2.463487e+00 -8.526782e-06 -1.237361e-06 2.743806e-05
Ga -6.442429e+00 3.645722e+00 7.633060e+00 -9.839570e-06 -2.973279e-06 3.321069e-06
Al -6.433627e+00 3.655870e+00 -2.743517e+00 -7.935992e-06 6.928256e-07 -7.645025e-06
Ga -3.225471e+00 -1.904932e+00 2.470006e+00 -2.507076e-05 -3.630055e-06 -3.552419e-06
Ga -3.239899e+00 -1.881890e+00 7.627948e+00 -3.690410e-06 8.818071e-06 7.888877e-06
Ga -3.229836e+00 -1.898001e+00 -2.744955e+00 8.805925e-06 -2.724612e-08 6.033973e-06
Ga -1.604366e+00 8.955243e-01 2.491897e+00 -2.230588e-05 -9.427509e-06 3.298988e-05
Al -1.619107e+00 9.026577e-01 7.602333e+00 -7.575547e-06 -1.993008e-06 7.050013e-06
Ga -1.621923e+00 8.865304e-01 -2.743257e+00 2.038634e-06 1.337841e-05 -9.366661e-07
Ga -3.224940e+00 3.666438e+00 2.459338e+00 -8.801533e-06 -2.536711e-06 -2.005446e-06
Ga -3.215261e+00 3.644924e+00 7.639987e+00 -5.201198e-07 4.005571e-06 1.981231e-06
Ga -3.217209e+00 3.674890e+00 -2.744284e+00 1.298718e-05 -6.757895e-06 -1.432522e-05
Al -2.103729e-02 -1.890607e+00 2.455649e+00 2.586282e-05 -6.783752e-06 1.603686e-05
Ga -2.070405e-02 -1.875384e+00 7.645554e+00 -1.311154e-05 7.215779e-06 -4.237282e-06
Ga -1.816890e-02 -1.893730e+00 -2.741626e+00 2.585430e-06 5.791328e-06 -2.943873e-05
Al -2.373916e-02 1.820063e+00 5.055170e+00 4.550513e-06 9.029286e-06 1.430097e-05
Ga -2.893958e-02 1.818073e+00 -5.382535e+00 -4.591936e-09 2.799719e-06 -1.213593e-05
Ga -2.401631e-02 1.821310e+00 -1.193841e-01 7.431000e-06 -9.200238e-06 8.391840e-06
Ga 3.196269e+00 -3.756493e+00 5.048604e+00 5.844507e-06 2.538213e-07 1.155202e-07
Al 3.189127e+00 -3.737565e+00 -5.356798e+00 -8.730649e-07 -3.607358e-06 -1.898207e-06
Al 3.186005e+00 -3.734745e+00 -1.340366e-01 1.527114e-05 -8.975788e-06 9.863731e-07
Ga 1.576996e+00 -9.502729e-01 5.039359e+00 -8.306013e-06 1.170083e-05 1.133220e-05
Ga 1.592423e+00 -9.658380e-01 -5.347272e+00 2.613012e-06 -3.641528e-06 -4.456721e-06
Ga 1.588931e+00 -9.738978e-01 -1.281470e-01 2.084592e-06 -9.077993e-06 1.239733e-05
Ga 3.179728e+00 1.799233e+00 5.048363e+00 1.738041e-06 2.014080e-05 -3.747319e-06
Ga 3.182563e+00 1.805868e+00 -5.366339e+00 5.327934e-06 5.994387e-06 2.016529e-06
Ga 3.178213e+00 1.818214e+00 -1.173046e-01 -1.098565e-05 -4.137054e-06 1.076990e-05
Ga 6.367618e+00 -3.752738e+00 5.039262e+00 -2.394916e-06 -6.746712e-07 7.037143e-06
Ga 6.373307e+00 -3.747212e+00 -5.348216e+00 -1.135255e-08 -3.812080e-06 -1.498031e-05
Ga 6.381741e+00 -3.750764e+00 -1.287434e-01 2.364877e-05 -1.756183e-05 -3.111346e-06
Al 4.787179e+00 -9.529820e-01 5.061891e+00 4.127036e-06 3.634128e-06 -8.254800e-06
Ga 4.772709e+00 -9.666616e-01 -5.345350e+00 3.404126e-06 -1.219256e-06 -1.779327e-06
Ga 4.771241e+00 -9.768324e-01 -1.520895e-01 7.258131e-06 7.390989e-06 1.433365e-05
Al -3.224243e+00 1.799688e+00 5.070117e+00 3.682839e-06 -6.254710e-06 5.396008e-06
Ga -3.222040e+00 1.809517e+00 -5.373853e+00 3.098360e-07 4.026200e-06 3.389506e-06
Ga -3.222075e+00 1.817902e+00 -1.359652e-01 1.461607e-05 2.211309e-05 -1.929259e-05
Ga -2.303786e-02 -3.744450e+00 5.030245e+00 1.543986e-05 -6.956045e-06 1.663403e-05
Ga -1.696911e-02 -3.745248e+00 -5.331009e+00 3.031480e-06 1.047246e-05 5.781947e-06
Ga -2.504417e-02 -3.744350e+00 -1.325336e-01 1.208598e-05 1.243470e-05 1.082006e-05
Ga -1.627014e+00 -9.517873e-01 5.049180e+00 -2.307166e-05 2.644319e-08 -3.203096e-05
Ga -1.626905e+00 -9.518942e-01 -5.366630e+00 9.176137e-08 1.819837e-06 1.412693e-06
Ga -1.623015e+00 -9.630023e-01 -1.160209e-01 3.381480e-06 -1.629468e-06 -1.722623e-06
N 1.532086e+00 9.151519e-01 4.390342e+00 -2.051672e-05 -6.734145e-06 -1.227875e-05
N 1.577471e+00 8.844768e-01 -6.042295e+00 -4.612386e-08 -3.861102e-06 8.386297e-06
N 1.579579e+00 8.856876e-01 -7.660939e-01 3.796830e-06 -1.206087e-05 -9.324700e-06
N -2.625971e-02 3.607402e+00 4.372455e+00 -3.721197e-06 3.340684e-06 -1.440621e-05
N -6.485949e-02 3.685148e+00 -6.021018e+00 2.966920e-06 -2.196474e-06 1.058866e-05
N -6.722034e-02 3.685266e+00 -7.604383e-01 -1.455079e-05 -1.706442e-06 1.370213e-05
N 3.224626e+00 -1.869307e+00 4.445649e+00 3.682044e-06 -1.104332e-05 -4.947729e-06
N 3.183668e+00 -1.936741e+00 -5.975037e+00 -3.754250e-06 -3.641225e-06 -4.227820e-06
N 3.176288e+00 -1.945418e+00 -8.115487e-01 -1.148240e-05 -8.505316e-06 -1.359718e-05
N -4.785921e+00 8.629154e-01 4.464210e+00 8.397669e-07 1.408989e-06 -1.268913e-06
N -4.828848e+00 8.807053e-01 -6.045681e+00 -3.841090e-07 2.227665e-06 -6.872102e-06
N -4.834369e+00 8.894812e-01 -7.686215e-01 -4.166482e-06 -1.294501e-05 1.197130e-05
N -6.436214e+00 3.655782e+00 4.375334e+00 -5.453934e-06 -7.361705e-06 -2.555329e-06
N -6.431261e+00 3.663433e+00 -5.984579e+00 1.750784e-06 -3.599165e-06 -5.444405e-06
N -6.433774e+00 3.656911e+00 -8.210529e-01 2.094370e-06 1.323603e-06 7.454250e-06
N -3.271657e+00 -1.867714e+00 4.449495e+00 1.290727e-06 4.234546e-06 -4.728541e-08
N -3.234278e+00 -1.890058e+00 -5.980847e+00 -2.554458e-06 1.000694e-06 5.318792e-06
N -3.223327e+00 -1.893653e+00 -7.650607e-01 -3.886696e-05 -2.235783e-06 -2.249782e-06
N -1.621825e+00 9.407923e-01 4.476321e+00 1.517692e-05 3.643478e-06 -3.390285e-06
N -1.624165e+00 8.903727e-01 -6.063789e+00 3.447641e-06 -1.456351e-06 -3.350971e-06
N -1.620257e+00 8.855243e-01 -7.676013e-01 -1.103073e-05 -6.055889e-06 -3.314536e-05
N -3.222485e+00 3.606979e+00 4.441136e+00 -2.966432e-06 7.558690e-07 4.452313e-06
N -3.184141e+00 3.686153e+00 -5.961533e+00 -2.454885e-06 -7.715252e-06 -7.954588e-06
N -3.181724e+00 3.689906e+00 -7.518482e-01 -1.537558e-05 -9.134376e-06 -4.492533e-06
N -2.259487e-02 -1.888674e+00 4.367909e+00 -4.197320e-06 5.074060e-06 -4.904442e-06
N -1.847523e-02 -1.891752e+00 -5.968809e+00 -8.875644e-07 -2.492028e-06 -1.150938e-06
N -2.261226e-02 -1.888911e+00 -7.654462e-01 -4.492436e-06 7.965621e-07 1.544533e-05
N 1.829091e-02 1.833352e+00 1.861382e+00 1.052480e-05 6.713593e-06 -3.366302e-05
N -1.752140e-02 1.818671e+00 6.998637e+00 8.164990e-06 -2.204687e-06 -2.413981e-06
N -2.097234e-02 1.813304e+00 -3.398877e+00 8.576157e-06 5.454139e-08 1.723949e-05
N 3.225920e+00 -3.762154e+00 1.795067e+00 -1.212948e-06 1.900693e-05 3.687413e-07
N 3.227012e+00 -3.765654e+00 7.022163e+00 5.891090e-06 -5.778782e-06 8.991010e-07
N 3.184892e+00 -3.692141e+00 -3.429186e+00 -2.625306e-06 6.085734e-06 1.153939e-05
N 1.542199e+00 -9.383234e-01 1.867560e+00 -3.103223e-06 1.527291e-05 -2.421275e-05
N 1.578396e+00 -9.134848e-01 7.018780e+00 1.078480e-05 -6.514941e-06 -1.520165e-06
N 1.625238e+00 -9.861810e-01 -3.359912e+00 -1.537925e-06 1.057105e-05 6.818032e-06
N 3.140103e+00 1.833500e+00 1.874749e+00 1.161883e-05 -6.957108e-07 -2.156821e-05
N 3.179325e+00 1.759599e+00 7.034169e+00 9.372721e-06 -3.626986e-06 -3.897679e-06
N 3.181373e+00 1.857197e+00 -3.380132e+00 -7.517031e-06 -4.355090e-07 6.453459e-06
N 6.386245e+00 -3.791949e+00 1.862831e+00 2.085087e-05 -4.000671e-06 -3.000835e-05
N 6.337979e+00 -3.768846e+00 7.020880e+00 1.476231e-05 -2.663341e-06 1.989744e-06
N 6.424892e+00 -3.768448e+00 -3.363266e+00 -4.768150e-06 4.789331e-06 1.096073e-05
N 4.781770e+00 -9.651786e-01 1.821377e+00 1.886147e-05 8.442704e-06 -1.579000e-06
N 4.781450e+00 -9.173747e-01 6.974283e+00 -6.648177e-07 -1.158378e-05 -5.093805e-06
N 4.739167e+00 -9.872761e-01 -3.356550e+00 -1.042040e-06 1.623425e-05 1.460334e-05
N -3.224535e+00 1.805804e+00 1.834891e+00 1.331917e-05 4.016471e-06 -1.071354e-05
N -3.230783e+00 1.765209e+00 6.995142e+00 -5.892393e-07 -1.014485e-06 -1.107272e-05
N -3.227597e+00 1.810874e+00 -3.389490e+00 -4.663259e-06 2.117154e-06 2.206742e-05
N -6.902832e-02 -3.719669e+00 1.862549e+00 -2.970459e-05 -1.091204e-05 -1.080225e-05
N -2.329737e-02 -3.738527e+00 7.004537e+00 1.061884e-05 3.979149e-06 -8.947766e-06
N -6.397529e-02 -3.766785e+00 -3.349644e+00 -1.572516e-06 -1.838420e-06 1.692863e-05
N -1.586682e+00 -9.818208e-01 1.865513e+00 2.335508e-05 -9.221824e-06 -1.091750e-05
N -1.623571e+00 -9.186952e-01 7.024386e+00 1.187284e-05 2.370284e-06 8.508642e-06
N -1.625248e+00 -9.616208e-01 -3.388880e+00 -2.869040e-07 -9.185649e-06 8.251235e-06
