108
Energy=-2450785.430022 Lattice="9.629388 0.000000 0.000000 -4.832733 8.326548 0.000000 -0.056796 0.273028 15.557253" Stress="-0.000052 0.000001 -0.000011 0.000001 -0.000060 0.000056 -0.000011 0.000056 -0.000070" Properties=species:S:1:pos:R:3:forces:R:3
Al 1.541122 1.000464 2.450897 0.001745 -0.003446 0.000185
Al 1.552827 1.027899 7.624502 0.001041 -0.000303 0.001296
Ga 1.593969 0.795444 -2.743188 0.000690 -0.002933 0.001065
Al -0.043843 3.765339 2.464660 -0.000487 -0.001559 0.000834
Ga -0.048566 3.797923 7.615248 0.000190 -0.000248 0.002065
Al -0.004923 3.557684 -2.749577 0.000344 -0.000100 0.001923
Ga 3.172726 -1.786761 2.436323 -0.000132 -0.000750 0.002219
Ga 3.168521 -1.734747 7.627572 0.000367 -0.001753 0.000613
Ga 3.229531 -1.995280 -2.735002 -0.000768 -0.000573 0.002178
Ga -4.881982 0.988574 2.423195 0.001191 -0.004488 0.004609
Al -4.882107 1.036076 7.632676 0.000288 -0.000903 0.001128
Ga -4.825767 0.792274 -2.755344 0.001279 -0.001232 0.000904
Ga -6.492618 3.773982 2.458541 0.002002 -0.001856 0.000652
Ga -6.488846 3.797359 7.617685 -0.000446 -0.000177 0.001024
Ga -6.438797 3.560831 -2.740073 0.000176 0.000591 0.000655
Ga -3.249287 -1.796618 2.448183 0.001576 -0.000066 0.000820
Ga -3.252639 -1.741631 7.627045 -0.000727 -0.002261 0.001893
Ga -3.206156 -1.988606 -2.740872 0.001843 -0.000330 0.003200
Ga -1.658393 1.011176 2.452260 0.003819 -0.003542 -0.000845
Ga -1.682586 1.036044 7.643925 0.004652 -0.000567 -0.000818
Ga -1.623931 0.802139 -2.764226 0.003469 -0.002704 0.000710
Ga -3.274987 3.782353 2.450871 0.002747 -0.000638 -0.000037
Ga -3.285546 3.800817 7.638741 0.003497 0.001136 0.000206
Ga -3.221295 3.561837 -2.751887 0.002488 0.000713 0.000406
Al -0.043082 -1.766466 2.457813 0.002730 -0.001526 0.000030
Ga -0.053802 -1.728890 7.638950 0.003976 -0.000814 0.000892
Ga -0.003705 -1.982206 -2.751179 0.002174 0.000818 0.001334
Ga -0.039540 1.943315 5.032524 -0.003341 -0.000936 0.001621
Ga -0.002633 1.690248 -5.343521 -0.002430 -0.001805 0.000653
Ga -0.002698 1.736229 -0.141279 -0.003862 0.004338 0.002714
Ga 3.187830 -3.615205 5.033956 -0.002535 -0.002025 0.000258
Ga 3.233327 -3.868686 -5.328598 -0.003629 -0.000154 0.000529
Ga 3.240724 -3.823575 -0.144928 -0.003803 0.003725 0.001388
Ga 1.571319 -0.836306 5.032732 -0.004032 0.000834 0.000672
Ga 1.619476 -1.084446 -5.339920 -0.003219 0.001690 0.000213
Ga 1.620939 -1.051811 -0.127291 -0.005441 0.005477 0.000813
Ga 3.144180 1.937732 5.040229 0.000289 -0.000241 0.001552
Ga 3.209422 1.693459 -5.359182 -0.000270 -0.001037 0.001997
Ga 3.199426 1.724028 -0.142774 -0.002629 0.005541 0.002215
Al 6.374317 -3.611057 5.031669 -0.000354 -0.001164 0.001465
Ga 6.431324 -3.850935 -5.327768 0.000163 0.000086 0.001732
Ga 6.410506 -3.817579 -0.148068 -0.001038 0.005054 0.002008
Ga 4.779446 -0.841532 5.046890 -0.000383 0.001999 0.001326
Ga 4.841029 -1.076133 -5.347098 -0.001515 0.002494 0.000651
Al 4.815967 -1.016646 -0.154361 0.000054 -0.002808 0.002645
Ga -3.281302 1.942521 5.041938 0.000020 -0.000366 0.001851
Al -3.223986 1.691657 -5.351801 -0.000676 0.000176 0.001753
Ga -3.228948 1.728178 -0.157219 -0.000691 0.005092 0.001892
Ga -0.053024 -3.600120 5.034350 -0.000066 -0.000561 0.001438
Ga 0.003582 -3.851209 -5.337410 0.000535 0.000272 0.000350
Ga 0.002606 -3.814168 -0.141164 -0.001695 0.004277 0.003046
Ga -1.651061 -0.844476 5.030021 -0.000667 0.002340 0.000904
Al -1.604085 -1.073576 -5.336846 -0.000553 0.001319 0.001049
Ga -1.605131 -1.044315 -0.136252 -0.002558 0.005280 0.001199
N 1.548650 1.015145 4.371969 0.001011 -0.002211 -0.005432
N 1.600155 0.769686 -6.006125 0.000420 -0.001676 -0.005392
N 1.592718 0.804751 -0.771075 0.000742 -0.001000 -0.000872
N -0.022288 3.802415 4.395596 0.003983 0.002357 -0.004837
N 0.001540 3.542697 -5.970047 0.000208 0.000183 -0.001517
N -0.006869 3.572667 -0.823975 -0.000559 0.001662 -0.005561
N 3.175488 -1.764028 4.414590 0.000124 -0.000091 -0.001783
N 3.225664 -2.013217 -5.958844 0.000363 -0.000123 -0.000771
N 3.249155 -1.951709 -0.748503 0.003852 0.003484 -0.000378
N -4.879182 1.013570 4.402726 0.000580 -0.002138 -0.001264
N -4.793352 0.792429 -5.994722 0.004867 0.000225 -0.003910
N -4.830874 0.777785 -0.776584 0.000468 -0.001957 0.001184
N -6.513982 3.805368 4.436050 -0.003761 0.001838 0.000840
N -6.432508 3.547789 -5.965684 -0.000196 0.000670 -0.001935
N -6.435186 3.579497 -0.766600 -0.000069 0.001871 -0.000446
N -3.256616 -1.800871 4.427899 0.000070 -0.004393 -0.000272
N -3.166399 -1.993508 -5.949503 0.004250 0.002210 -0.000401
N -3.238008 -1.946076 -0.751236 -0.004716 0.003901 -0.002021
N -1.675194 1.025334 4.419255 0.003785 -0.001788 0.000277
N -1.654665 0.756504 -5.932784 0.000004 -0.002569 0.002958
N -1.624448 0.812046 -0.784750 0.003368 0.000129 0.000317
N -3.279574 3.792828 4.418699 0.002996 0.000778 -0.000288
N -3.225473 3.512801 -5.943701 0.002836 -0.003564 0.001506
N -3.227653 3.582802 -0.777688 0.002493 0.003142 0.000027
N -0.049001 -1.757318 4.378219 0.003097 0.000646 -0.005044
N -0.032111 -1.982934 -5.944855 -0.001491 0.002875 0.001196
N -0.004902 -1.967547 -0.778062 0.002981 0.002809 -0.000496
N -0.013285 1.942658 1.852862 0.001144 -0.003678 -0.000401
N -0.019774 1.929007 7.014702 0.000048 -0.003440 0.001096
N 0.003254 1.742818 -3.365820 -0.003093 0.004749 0.000543
N 3.216837 -3.662713 1.841495 0.002105 -0.007953 -0.000387
N 3.175489 -3.602828 7.004727 -0.003477 0.000088 -0.000308
N 3.261909 -3.863993 -3.351288 0.000724 -0.001906 0.000901
N 1.537360 -0.845047 1.859897 -0.003796 -0.001295 -0.000225
N 1.568276 -0.788324 7.014641 -0.003660 0.004350 -0.000171
N 1.625818 -1.073808 -3.368568 -0.002725 0.002209 -0.000185
N 3.115513 1.900910 1.836481 -0.001439 -0.007055 -0.000874
N 3.149032 1.914505 7.027627 0.000219 -0.004663 0.002047
N 3.200530 1.707744 -3.379850 -0.000083 0.000818 -0.001811
N 6.344334 -3.658136 1.833304 -0.002240 -0.007308 -0.001061
N 6.375731 -3.596795 6.960038 0.000250 0.001282 -0.006565
N 6.396603 -3.859003 -3.349136 -0.003853 -0.001581 0.000100
N 4.786028 -0.890082 1.775858 -0.001476 0.004625 -0.006537
N 4.775725 -0.784599 7.026005 -0.000724 0.005608 0.000251
N 4.826406 -1.068939 -3.374515 -0.001294 0.002443 -0.001615
N -3.270586 1.923366 1.812467 0.000232 -0.005306 -0.001386
N -3.308372 1.937781 7.019191 -0.003914 -0.002158 0.000570
N -3.226510 1.711140 -3.419030 -0.000606 0.001004 -0.006148
N -0.048207 -3.588205 1.845956 0.000739 -0.001744 -0.002061
N -0.047675 -3.589140 7.008728 0.000027 0.000759 -0.001061
N 0.002567 -3.840197 -3.368083 -0.000054 -0.000056 -0.000809
N -1.612846 -0.879972 1.844798 0.002593 -0.002794 0.000289
N -1.650135 -0.822646 7.000482 -0.001215 0.003116 -0.001641
N -1.601135 -1.069578 -3.409692 -0.001537 0.003236 -0.005312
