108
Energy=-1.809929e+06 Lattice="9.565310e+00 0.000000e+00 0.000000e+00 -4.791728e+00 8.279675e+00 0.000000e+00 -1.043832e-02 1.169748e-02 1.546363e+01" Stress="2.791420e-04 -4.978602e-05 -2.358863e-04 -6.131478e-05 1.355740e-04 3.790277e-04 -2.490651e-04 3.721661e-04 -3.930198e-04" Properties=species:S:1:pos:R:3:forces:R:3 Config_type=AlGaN_super3_30_1_36.xyz
Al 1.579958e+00 8.983957e-01 2.442402e+00 7.961169e-05 -9.202262e-05 1.334918e-03
Al 1.574975e+00 8.900050e-01 7.576645e+00 -7.296199e-04 -4.912030e-04 1.216042e-03
Ga 1.569110e+00 8.706294e-01 -2.728445e+00 4.730975e-04 -3.060706e-04 4.498568e-04
Al -3.462768e-02 3.644928e+00 2.440891e+00 2.044351e-03 -6.226777e-04 9.893931e-04
Al -1.876492e-02 3.655222e+00 7.566996e+00 -6.088928e-04 -4.683855e-04 4.642309e-04
Ga -1.809319e-02 3.636027e+00 -2.724685e+00 4.410196e-04 -1.854088e-04 9.522030e-04
Al 3.187816e+00 -1.891319e+00 2.446630e+00 -1.388532e-03 3.285384e-03 -5.655292e-03
Ga 3.173643e+00 -1.872424e+00 7.576177e+00 -1.034601e-05 -3.907486e-04 6.652372e-04
Al 3.173628e+00 -1.882289e+00 -2.724405e+00 5.569995e-05 1.156708e-04 1.362951e-03
Al -4.828703e+00 8.773455e-01 2.426352e+00 1.805248e-04 2.184334e-04 9.988048e-04
Al -4.822685e+00 8.856433e-01 7.579381e+00 1.166903e-03 -2.953843e-04 1.313435e-03
Ga -4.803512e+00 8.747678e-01 -2.722856e+00 6.591763e-04 -1.849367e-04 7.616854e-04
Al -6.420895e+00 3.625151e+00 2.469317e+00 -1.448145e-04 -5.087367e-04 7.880739e-04
Ga -6.434552e+00 3.637676e+00 7.570142e+00 4.796202e-04 6.815757e-04 2.045758e-03
Al -6.405880e+00 3.642381e+00 -2.756438e+00 9.647432e-05 2.658865e-04 7.753605e-04
Ga -3.219705e+00 -1.874519e+00 2.436377e+00 6.096217e-04 2.734650e-04 7.314148e-04
Al -3.211616e+00 -1.881231e+00 7.573114e+00 2.050027e-04 3.557841e-04 1.315738e-03
Ga -3.207124e+00 -1.887608e+00 -2.733781e+00 3.253444e-04 -6.808161e-05 1.305494e-03
Al -1.616940e+00 8.867877e-01 2.461598e+00 5.646843e-04 2.028282e-04 1.282622e-04
Ga -1.637382e+00 8.820089e-01 7.585443e+00 1.250126e-03 -4.023842e-04 1.477937e-04
Al -1.625374e+00 8.776376e-01 -2.759778e+00 4.141926e-04 -4.783401e-04 9.822781e-04
Ga -3.201554e+00 3.644740e+00 2.427389e+00 7.076917e-04 -1.658201e-05 4.334228e-04
Ga -3.217134e+00 3.640193e+00 7.593981e+00 9.098857e-04 2.476923e-06 2.969727e-04
Ga -3.216741e+00 3.634438e+00 -2.731109e+00 1.198152e-04 -4.490656e-04 6.451193e-04
Ga -1.909215e-02 -1.858176e+00 2.443736e+00 1.322742e-04 -1.590772e-04 2.114285e-04
Ga -3.612138e-02 -1.855608e+00 7.606401e+00 7.590082e-04 -1.715274e-04 5.605667e-04
Ga -1.635431e-02 -1.879105e+00 -2.757136e+00 3.884797e-04 -4.309452e-04 4.472662e-04
Ga -1.879634e-02 1.815285e+00 5.004350e+00 -6.922136e-04 1.759911e-03 -5.402995e-04
Ga -2.190825e-02 1.788225e+00 -5.329344e+00 -6.491714e-04 6.098086e-04 6.402982e-04
Ga -4.205081e-02 1.796712e+00 -1.157934e-01 -4.838715e-04 5.925844e-04 -5.424744e-04
Al 3.185141e+00 -3.716508e+00 5.005847e+00 1.263733e-03 1.054723e-04 -2.538108e-04
Ga 3.174555e+00 -3.724816e+00 -5.304423e+00 -3.217048e-04 7.209888e-05 1.095928e-03
Al 3.183480e+00 -3.703594e+00 -1.489727e-01 -3.010448e-04 2.402562e-04 1.035758e-03
Ga 1.578345e+00 -9.498224e-01 4.998069e+00 -4.843185e-04 3.785969e-04 -6.789779e-04
Al 1.574524e+00 -9.692903e-01 -5.306705e+00 -6.081006e-04 4.767909e-04 6.653790e-04
Ga 1.605649e+00 -9.769076e-01 -1.256330e-01 -9.187337e-04 7.920959e-04 5.307894e-04
Al 3.152381e+00 1.798026e+00 5.025790e+00 4.480517e-04 2.252784e-03 -9.001855e-03
Ga 3.170462e+00 1.801021e+00 -5.317923e+00 -2.680194e-04 -1.507213e-04 1.394797e-03
Ga 3.165168e+00 1.805762e+00 -1.286273e-01 2.650663e-04 3.413959e-04 8.002685e-04
Al 6.370958e+00 -3.709485e+00 5.016749e+00 -9.186129e-03 -1.836581e-03 -5.848662e-03
Al 6.373295e+00 -3.715440e+00 -5.324989e+00 -4.830361e-04 6.973638e-05 1.372930e-03
Ga 6.355592e+00 -3.726860e+00 -1.271112e-01 3.889569e-04 3.508032e-04 4.495638e-04
Ga 4.768644e+00 -9.580410e-01 5.013286e+00 -5.774334e-04 2.404492e-04 -2.669031e-04
Ga 4.779065e+00 -9.660884e-01 -5.325296e+00 -4.144864e-04 1.835089e-04 8.270137e-04
Al 4.749210e+00 -9.720176e-01 -1.365962e-01 -6.936742e-04 2.226670e-05 7.490741e-04
Ga -3.228856e+00 1.800356e+00 4.993490e+00 -9.521553e-05 1.133909e-04 1.460611e-04
Al -3.217492e+00 1.791395e+00 -5.309018e+00 2.539908e-05 2.504076e-04 8.332341e-04
Ga -3.203157e+00 1.788468e+00 -1.285142e-01 -8.263661e-04 3.817652e-04 6.182875e-04
Ga -3.809071e-02 -3.711398e+00 5.005782e+00 6.941635e-04 -4.389448e-04 -6.750807e-04
Al -2.566512e-02 -3.719056e+00 -5.303026e+00 2.986168e-04 2.663170e-04 2.310586e-05
Ga -2.674918e-02 -3.726556e+00 -1.403586e-01 -1.164403e-04 9.090053e-05 4.856593e-04
Al -1.626632e+00 -9.544505e-01 5.017443e+00 -1.003686e-04 6.280294e-04 5.207362e-04
Al -1.615199e+00 -9.705920e-01 -5.310236e+00 -5.687003e-04 1.280021e-04 5.111204e-04
Ga -1.621509e+00 -9.464315e-01 -1.509136e-01 -5.988882e-04 2.784735e-04 4.306815e-04
N 1.605749e+00 9.123706e-01 4.359659e+00 9.892180e-04 -1.713594e-04 -1.026858e-03
N 1.576790e+00 8.264087e-01 -5.966158e+00 7.445645e-04 -3.726524e-04 -1.154779e-03
N 1.564105e+00 8.769150e-01 -7.540315e-01 3.981501e-04 -3.281819e-04 -1.358004e-04
N -3.373384e-02 3.694349e+00 4.365788e+00 3.083450e-03 1.714574e-03 9.829677e-04
N 1.937630e-02 3.663416e+00 -5.971544e+00 6.495459e-04 2.086279e-04 -1.212988e-03
N -6.247377e-02 3.655520e+00 -7.449567e-01 -2.399465e-04 1.990500e-05 -7.517878e-04
N 3.172540e+00 -1.923532e+00 4.351262e+00 6.918242e-04 -1.322884e-03 3.476139e-03
N 3.131479e+00 -1.864364e+00 -5.921712e+00 1.517537e-04 1.535615e-05 -7.484355e-04
N 3.211433e+00 -1.903312e+00 -7.917837e-01 7.809205e-04 -4.359978e-04 -1.262941e-03
N -4.861159e+00 9.021890e-01 4.346619e+00 -6.149535e-04 3.684556e-04 4.477039e-04
N -4.768724e+00 9.019290e-01 -5.966513e+00 5.322860e-04 -1.646957e-05 -1.241088e-03
N -4.808332e+00 8.329312e-01 -7.395926e-01 4.549114e-04 -4.618914e-04 -6.912852e-04
N -6.459002e+00 3.620429e+00 4.391880e+00 3.091324e-03 -3.043780e-03 1.678372e-03
N -6.403696e+00 3.681434e+00 -5.912092e+00 9.690963e-05 1.901565e-04 -1.039611e-03
N -6.408227e+00 3.640005e+00 -8.377653e-01 -2.479808e-04 1.753259e-06 -4.318126e-04
N -3.168050e+00 -1.894354e+00 4.422179e+00 -7.575510e-05 -7.186868e-04 -7.427986e-04
N -3.159531e+00 -1.910843e+00 -5.956958e+00 6.272937e-04 -2.271214e-04 -1.227679e-03
N -3.250233e+00 -1.863196e+00 -7.445714e-01 -1.648371e-04 1.297467e-04 -1.040563e-03
N -1.623905e+00 8.410591e-01 4.375940e+00 1.036304e-03 -6.864836e-04 -4.798318e-04
N -1.664235e+00 8.504762e-01 -5.901616e+00 4.838464e-04 -5.314929e-04 -1.998281e-04
N -1.622987e+00 8.847855e-01 -8.424583e-01 9.880408e-04 -2.387392e-04 -4.822006e-04
N -3.176198e+00 3.676917e+00 4.405141e+00 2.600040e-05 -3.605568e-05 -4.313552e-04
N -3.253402e+00 3.614896e+00 -5.884676e+00 -1.564552e-04 -4.625052e-04 -3.597436e-04
N -3.175594e+00 3.661643e+00 -7.394735e-01 6.161864e-04 -2.186697e-04 -4.456865e-04
N -6.722105e-02 -1.841751e+00 4.413532e+00 2.508413e-04 -6.623510e-04 -6.733040e-04
N -1.900568e-02 -1.878476e+00 -5.864131e+00 2.321581e-04 -5.361735e-04 -5.605227e-05
N -1.567858e-02 -1.876697e+00 -7.746606e-01 6.898055e-04 -2.931238e-04 -2.510088e-04
N -3.110691e-02 1.800594e+00 1.878492e+00 -1.601028e-04 2.028410e-04 9.596555e-04
N 1.048837e-02 1.827610e+00 6.997384e+00 7.414539e-05 4.897170e-04 3.229739e-04
N -5.886089e-02 1.773209e+00 -3.349741e+00 -4.672678e-04 4.886470e-04 -8.482342e-04
N 3.218623e+00 -3.692914e+00 1.776752e+00 -7.721462e-04 8.840231e-04 1.207458e-03
N 3.207273e+00 -3.741009e+00 6.927777e+00 -1.966699e-04 2.382470e-04 -4.345819e-04
N 3.178150e+00 -3.679540e+00 -3.330320e+00 -4.889793e-04 5.202883e-04 -6.939446e-04
N 1.628029e+00 -9.308658e-01 1.859663e+00 2.331590e-04 -1.597381e-03 5.747051e-04
N 1.570790e+00 -9.097052e-01 6.970745e+00 -5.518842e-04 5.020543e-04 -1.066868e-04
N 1.627310e+00 -9.873142e-01 -3.385959e+00 -4.178773e-04 3.406816e-04 -8.155753e-04
N 3.162241e+00 1.813354e+00 1.860873e+00 -1.872922e-04 1.887181e-04 -1.027924e-03
N 3.157707e+00 1.756290e+00 6.934061e+00 -2.420535e-06 -3.502320e-04 3.566870e-03
N 3.165702e+00 1.837663e+00 -3.340714e+00 -2.022797e-04 3.111387e-04 -6.745002e-04
N 6.363407e+00 -3.768041e+00 1.854869e+00 -8.868725e-04 -4.543556e-04 -1.422340e-05
N 6.309094e+00 -3.689890e+00 6.925968e+00 8.782100e-04 5.514388e-04 2.315343e-03
N 6.396135e+00 -3.744710e+00 -3.398596e+00 1.177984e-04 -1.860528e-04 -1.344862e-03
N 4.716989e+00 -9.356025e-01 1.791585e+00 -7.076060e-05 -1.070477e-03 1.443620e-03
N 4.802268e+00 -9.278919e-01 6.998861e+00 -1.944941e-04 -1.639571e-04 -3.103678e-04
N 4.727857e+00 -9.875969e-01 -3.345254e+00 -7.626463e-04 1.004868e-04 -1.220784e-03
N -3.212138e+00 1.750728e+00 1.859395e+00 -1.728362e-04 -4.439999e-04 -2.962495e-04
N -3.265071e+00 1.783371e+00 6.967656e+00 -8.478139e-04 -5.904126e-05 -5.365831e-04
N -3.179455e+00 1.773319e+00 -3.388199e+00 -2.291536e-04 2.787025e-04 -9.925362e-04
N -6.941884e-02 -3.740687e+00 1.844832e+00 -6.968050e-04 -3.359589e-04 -3.817681e-04
N -2.731914e-02 -3.708849e+00 6.972133e+00 -4.916465e-04 -2.250505e-04 4.808386e-05
N -5.544079e-02 -3.748377e+00 -3.386624e+00 -3.009025e-04 -4.049307e-05 -6.422254e-04
N -1.615751e+00 -9.006939e-01 1.821145e+00 -8.061430e-04 -1.042417e-04 -2.973369e-04
N -1.658803e+00 -9.759978e-01 6.933500e+00 -1.079641e-03 -8.727785e-05 -5.290382e-04
N -1.618070e+00 -9.199361e-01 -3.391651e+00 -6.085534e-04 2.580540e-04 -7.600695e-04
