108
Energy=-2.816985e+06 Lattice="9.516788e+00 0.000000e+00 0.000000e+00 -4.762548e+00 8.234283e+00 0.000000e+00 -1.148591e-02 -8.697247e-03 1.537028e+01" Stress="-8.485037e-02 6.029686e-03 -4.444550e-04 6.023197e-03 -7.908100e-02 -4.410266e-04 -4.443135e-04 -4.445407e-04 -7.973336e-02" Properties=species:S:1:pos:R:3:forces:R:3 Config_type=AlGaN_super3_52_0_2.xyz
Al 1.562542e+00 8.978830e-01 2.489051e+00 -1.450614e-03 -1.237193e-02 -9.072808e-03
Ga 1.561884e+00 8.966752e-01 7.544478e+00 -1.461252e-03 -1.575179e-02 -3.731140e-03
Ga 1.573759e+00 9.043544e-01 -2.765042e+00 -1.522177e-03 -1.574634e-02 -3.592556e-03
Al -9.944527e-03 3.618399e+00 2.488738e+00 -2.673624e-03 -1.742461e-03 -7.739002e-03
Ga -1.125545e-02 3.618446e+00 7.544262e+00 -2.495378e-03 -1.070760e-03 -8.161719e-04
Ga -2.116907e-04 3.627629e+00 -2.764947e+00 -2.529165e-03 -1.152254e-03 -7.322499e-04
Ga 3.178621e+00 -1.892558e+00 2.480999e+00 -3.281341e-03 8.238982e-04 -8.478881e-03
Ga 3.178016e+00 -1.893245e+00 7.544205e+00 -2.634098e-03 1.586934e-03 -1.555326e-03
Ga 3.189041e+00 -1.884919e+00 -2.762668e+00 -2.693389e-03 1.580850e-03 -1.174996e-03
Ga -4.809783e+00 8.979032e-01 2.483484e+00 6.644542e-04 -1.405869e-02 -9.138409e-03
Ga -4.809124e+00 8.978713e-01 7.545276e+00 8.336594e-04 -1.458541e-02 -2.752169e-03
Ga -4.797919e+00 9.062517e-01 -2.762697e+00 8.328923e-04 -1.456343e-02 -2.521768e-03
Ga -6.384064e+00 3.618593e+00 2.483331e+00 -2.505638e-04 9.063497e-05 -6.693020e-03
Ga -6.382151e+00 3.619649e+00 7.544805e+00 -1.775303e-04 1.693676e-04 1.321625e-04
Ga -6.371043e+00 3.627953e+00 -2.762729e+00 -1.890585e-04 1.376194e-04 2.998505e-04
Ga -3.193448e+00 -1.892469e+00 2.482072e+00 2.585615e-06 2.255756e-03 -7.314807e-03
Ga -3.192950e+00 -1.892052e+00 7.544770e+00 -2.762584e-04 2.786018e-03 -7.386481e-04
Ga -3.181703e+00 -1.883675e+00 -2.762741e+00 -3.027263e-04 2.791703e-03 -5.287906e-04
Ga -1.662577e+00 8.997756e-01 2.487063e+00 1.512494e-02 -7.359034e-03 -1.221163e-02
Ga -1.663931e+00 8.988799e-01 7.545205e+00 1.432271e-02 -8.092994e-03 -5.721359e-03
Ga -1.653561e+00 9.066229e-01 -2.765099e+00 1.435411e-02 -8.077324e-03 -5.778639e-03
Ga -3.235656e+00 3.620266e+00 2.483053e+00 1.334226e-02 7.053178e-03 -9.141624e-03
Ga -3.237121e+00 3.620666e+00 7.545127e+00 1.319790e-02 6.722438e-03 -2.623579e-03
Ga -3.225815e+00 3.628966e+00 -2.762784e+00 1.318804e-02 6.671258e-03 -2.449081e-03
Ga -4.746706e-02 -1.889496e+00 2.482078e+00 1.336357e-02 8.952976e-03 -9.951448e-03
Ga -4.775384e-02 -1.891135e+00 7.544848e+00 1.305056e-02 9.282452e-03 -3.490540e-03
Ga -3.654096e-02 -1.882610e+00 -2.762819e+00 1.304792e-02 9.273368e-03 -3.262175e-03
Ga -9.627869e-03 1.803337e+00 5.012962e+00 -1.281045e-02 -9.175505e-03 -4.906400e-03
Ga 1.252452e-03 1.811585e+00 -5.295216e+00 -1.299227e-02 -9.240931e-03 -3.630091e-03
Ga 2.806792e-05 1.810354e+00 -2.441432e-01 -1.284552e-02 -9.114907e-03 3.830527e-02
Ga 3.179319e+00 -3.708218e+00 5.013483e+00 -1.301794e-02 -6.771040e-03 -3.299113e-03
Ga 3.190367e+00 -3.699920e+00 -5.294498e+00 -1.312620e-02 -6.714969e-03 -2.628060e-03
Ga 3.190289e+00 -3.700755e+00 -2.279477e-01 -1.320112e-02 -6.963685e-03 3.586483e-02
Ga 1.606309e+00 -9.868351e-01 5.013718e+00 -1.422725e-02 8.264107e-03 -6.126173e-03
Ga 1.617421e+00 -9.786130e-01 -5.294279e+00 -1.424878e-02 8.174811e-03 -5.564180e-03
Ga 1.616846e+00 -9.786656e-01 -2.269829e-01 -1.450877e-02 8.069162e-03 3.257725e-02
Ga 3.135212e+00 1.803900e+00 5.013655e+00 1.356939e-04 -2.869043e-03 -1.359498e-03
Ga 3.146334e+00 1.812528e+00 -5.295031e+00 2.442469e-04 -2.800245e-03 -7.115783e-04
Ga 3.145390e+00 1.811856e+00 -2.299245e-01 -2.154923e-04 -3.192332e-03 3.819701e-02
Ga 6.324285e+00 -3.707244e+00 5.013748e+00 7.463818e-05 -2.241806e-04 -4.666829e-04
Ga 6.335612e+00 -3.699085e+00 -5.294664e+00 1.422417e-04 -2.249829e-04 1.765362e-04
Ga 6.334872e+00 -3.699996e+00 -2.289817e-01 -3.805125e-04 -5.683313e-04 3.897651e-02
Ga 4.751202e+00 -9.858872e-01 5.014313e+00 -8.146848e-04 1.464241e-02 -3.034246e-03
Ga 4.762327e+00 -9.775873e-01 -5.294034e+00 -8.713828e-04 1.460616e-02 -2.662790e-03
Ga 4.762032e+00 -9.779335e-01 -2.278320e-01 -1.214752e-03 1.431545e-02 3.552390e-02
Ga -3.236152e+00 1.805308e+00 5.014276e+00 2.576349e-03 -1.621594e-03 -1.933515e-03
Ga -3.224785e+00 1.813820e+00 -5.295363e+00 2.630201e-03 -1.595165e-03 -1.559274e-03
Ga -3.224565e+00 1.813235e+00 -2.312396e-01 2.349111e-03 -1.768231e-03 3.717804e-02
Ga -4.650273e-02 -3.706208e+00 5.013447e+00 2.472828e-03 9.862399e-04 -1.056614e-03
Ga -3.533836e-02 -3.697876e+00 -5.294579e+00 2.475496e-03 1.009325e-03 -5.817951e-04
Ga -3.555894e-02 -3.698248e+00 -2.300283e-01 2.303719e-03 8.501877e-04 3.769055e-02
Ga -1.619810e+00 -9.849066e-01 5.014482e+00 1.349214e-03 1.581513e-02 -3.900131e-03
Ga -1.608446e+00 -9.764655e-01 -5.294783e+00 1.430583e-03 1.579007e-02 -3.585126e-03
Ga -1.608650e+00 -9.764133e-01 -2.293371e-01 1.198548e-03 1.539259e-02 3.476283e-02
N 1.562962e+00 8.965596e-01 4.410363e+00 -7.206020e-04 -1.509970e-02 -1.613393e-02
N 1.573356e+00 9.052558e-01 -5.896938e+00 -7.977968e-04 -1.515007e-02 3.368243e-03
N 1.573727e+00 9.040021e-01 -8.364865e-01 -8.066386e-04 -1.499148e-02 6.190386e-03
N -1.081481e-02 3.619686e+00 4.410452e+00 -1.930516e-03 3.259325e-04 -1.955904e-02
N 2.178487e-04 3.627281e+00 -5.896760e+00 -1.874146e-03 1.716906e-04 4.465541e-05
N -3.699293e-04 3.627766e+00 -8.357985e-01 -1.874882e-03 8.194777e-05 2.918472e-03
N 3.178422e+00 -1.892847e+00 4.411121e+00 -2.387427e-03 1.535389e-03 -7.033840e-05
N 3.189452e+00 -1.884703e+00 -5.896735e+00 -2.263653e-03 1.527670e-03 -4.294765e-04
N 3.188849e+00 -1.885221e+00 -8.316876e-01 -2.395307e-03 1.365107e-03 2.251055e-03
N -4.808825e+00 8.977044e-01 4.412314e+00 7.539379e-04 -1.493403e-02 4.006143e-03
N -4.797778e+00 9.062717e-01 -5.896575e+00 5.738747e-04 -1.501569e-02 3.690621e-03
N -4.798185e+00 9.060597e-01 -8.330829e-01 4.286379e-04 -1.482538e-02 6.125623e-03
N -6.382093e+00 3.619776e+00 4.412311e+00 -1.891061e-04 5.581405e-04 1.047771e-03
N -6.370718e+00 3.628292e+00 -5.896496e+00 -4.587562e-04 3.933007e-04 3.788446e-04
N -6.371313e+00 3.627731e+00 -8.326263e-01 -6.188439e-04 2.742776e-04 3.319373e-03
N -3.192924e+00 -1.891775e+00 4.411854e+00 -8.355943e-04 1.934905e-03 2.611550e-04
N -3.181676e+00 -1.883659e+00 -5.896485e+00 -9.932031e-04 1.811147e-03 1.528871e-05
N -3.181880e+00 -1.884231e+00 -8.322173e-01 -1.045489e-03 1.571445e-03 2.563406e-03
N -1.664465e+00 8.984625e-01 4.414044e+00 1.428515e-02 -8.366612e-03 7.782019e-03
N -1.652569e+00 9.073721e-01 -5.896872e+00 1.435636e-02 -8.269662e-03 7.034740e-03
N -1.653926e+00 9.062101e-01 -8.376272e-01 1.436786e-02 -8.150007e-03 1.006903e-02
N -3.236785e+00 3.620684e+00 4.411925e+00 1.321811e-02 7.192933e-03 4.072811e-03
N -3.225690e+00 3.629399e+00 -5.896621e+00 1.329314e-02 7.129798e-03 3.669907e-03
N -3.225748e+00 3.628944e+00 -8.333375e-01 1.318208e-02 7.013581e-03 6.183956e-03
N -4.781528e-02 -1.890781e+00 4.411454e+00 1.277588e-02 8.374298e-03 3.612821e-03
N -3.639450e-02 -1.882706e+00 -5.896703e+00 1.274454e-02 8.470556e-03 3.317624e-03
N -3.668029e-02 -1.882835e+00 -8.330220e-01 1.262219e-02 8.343642e-03 5.754916e-03
N -4.035306e-03 1.806861e+00 1.900973e+00 3.389173e-03 8.840618e-04 -2.144546e-02
N -9.875904e-03 1.803255e+00 6.942284e+00 -1.282005e-02 -8.469214e-03 3.238152e-03
N 1.140212e-03 1.811471e+00 -3.366494e+00 -1.276971e-02 -8.434736e-03 3.513888e-03
N 3.184627e+00 -3.711959e+00 1.883325e+00 3.370232e-03 -1.583343e-02 -2.395519e-02
N 3.179119e+00 -3.708700e+00 6.942494e+00 -1.335893e-02 -7.159380e-03 3.595664e-03
N 3.189997e+00 -3.699993e+00 -3.365732e+00 -1.339247e-02 -7.154365e-03 3.600259e-03
N 1.605943e+00 -9.796572e-01 1.882336e+00 -1.400955e-02 2.406309e-02 -2.170350e-02
N 1.606016e+00 -9.868523e-01 6.942371e+00 -1.444859e-02 8.187371e-03 6.902671e-03
N 1.617332e+00 -9.789189e-01 -3.365866e+00 -1.445580e-02 8.124136e-03 6.935973e-03
N 3.129940e+00 1.801387e+00 1.885058e+00 -1.463149e-02 -1.106290e-02 -2.848471e-02
N 3.134982e+00 1.804097e+00 6.942938e+00 9.667416e-04 -1.709879e-03 8.406651e-05
N 3.146516e+00 1.812545e+00 -3.365787e+00 9.662249e-04 -1.626124e-03 -1.192151e-05
N 6.319082e+00 -3.710788e+00 1.884742e+00 -1.550412e-02 -9.019214e-03 -2.796982e-02
N 6.324140e+00 -3.707669e+00 6.942928e+00 4.891188e-04 -4.002365e-04 4.017825e-04
N 6.335589e+00 -3.699057e+00 -3.365506e+00 5.541938e-04 -4.085136e-04 3.643631e-04
N 4.751422e+00 -9.853155e-01 1.879306e+00 -1.294277e-04 1.542576e-02 -3.093660e-02
N 4.751124e+00 -9.858933e-01 6.942977e+00 -5.645696e-04 1.492553e-02 3.759756e-03
N 4.762229e+00 -9.776002e-01 -3.364960e+00 -5.656425e-04 1.487469e-02 3.683225e-03
N -3.235199e+00 1.805229e+00 1.880970e+00 2.474608e-03 -1.895553e-03 -3.534910e-02
N -3.236143e+00 1.805309e+00 6.943333e+00 2.353551e-03 -1.444267e-03 -2.203231e-04
N -3.225199e+00 1.813673e+00 -3.366082e+00 2.287930e-03 -1.376533e-03 -3.840084e-04
N -4.671696e-02 -3.706678e+00 1.880166e+00 2.026062e-03 1.247092e-04 -3.425683e-02
N -4.677620e-02 -3.706587e+00 6.942808e+00 1.882811e-03 -1.176270e-04 3.857558e-05
N -3.559261e-02 -3.698208e+00 -3.365036e+00 1.836810e-03 -1.468559e-04 1.755361e-05
N -1.619631e+00 -9.840147e-01 1.879601e+00 5.995894e-04 1.556880e-02 -3.117187e-02
N -1.619853e+00 -9.849880e-01 6.943137e+00 8.755269e-04 1.511324e-02 3.452729e-03
N -1.608756e+00 -9.768480e-01 -3.365948e+00 8.718109e-04 1.501775e-02 3.345937e-03
