108
Energy=-2405002.577638 Lattice="9.476278 0.000000 0.000000 -4.738139 8.206697 0.000000 0.000000 0.000000 15.313968" Stress="-0.000454 0.000038 -0.000000 0.000038 -0.000413 -0.000001 -0.000000 -0.000001 -0.000429" Properties=species:S:1:pos:R:3:forces:R:3
Al 1.564294 0.903146 2.504900 -0.001305 -0.014812 -0.012847
Al 1.564294 0.903146 7.521855 -0.001308 -0.014625 -0.004653
Ga 1.564294 0.903146 -2.775158 -0.002312 -0.018644 -0.006565
Ga 0.000000 3.612582 2.504900 -0.003342 -0.001709 -0.012710
Al 0.000000 3.612582 7.521855 -0.003075 -0.001673 -0.002617
Ga 0.000000 3.612582 -2.775158 -0.002958 -0.001779 -0.002798
Ga 3.173845 -1.884678 2.504900 -0.003290 0.001650 -0.013713
Ga 3.173845 -1.884678 7.521855 -0.003462 0.001968 -0.003991
Ga 3.173845 -1.884678 -2.775158 -0.003587 0.002089 -0.003059
Ga -4.783396 0.903146 2.504900 0.000260 -0.017358 -0.013956
Al -4.783396 0.903146 7.521855 0.001279 -0.013211 -0.004335
Ga -4.783396 0.903146 -2.775158 0.000829 -0.016951 -0.004724
Ga -6.347690 3.612582 2.504900 -0.000193 -0.000405 -0.011304
Ga -6.347690 3.612582 7.521855 -0.000523 -0.000440 -0.001120
Ga -6.347690 3.612582 -2.775158 -0.000059 0.000096 -0.002180
Ga -3.173845 -1.884678 2.504900 -0.000371 0.003526 -0.012297
Ga -3.173845 -1.884678 7.521855 -0.000342 0.003303 -0.002835
Ga -3.173845 -1.884678 -2.775158 -0.000395 0.003343 -0.002006
Ga -1.654808 0.903146 2.504900 0.016903 -0.009516 -0.016483
Ga -1.654808 0.903146 7.521855 0.016448 -0.009452 -0.008654
Ga -1.654808 0.903146 -2.775158 0.016427 -0.009102 -0.008234
Ga -3.219102 3.612582 2.504900 0.015531 0.008175 -0.013753
Ga -3.219102 3.612582 7.521855 0.015536 0.007937 -0.004977
Ga -3.219102 3.612582 -2.775158 0.014999 0.007826 -0.005073
Ga -0.045257 -1.884678 2.504900 0.015095 0.011261 -0.015652
Al -0.045257 -1.884678 7.521855 0.012268 0.008828 -0.004412
Ga -0.045257 -1.884678 -2.775158 0.015463 0.010959 -0.006071
Ga 0.000000 1.806291 5.013378 -0.015544 -0.011413 -0.006008
Al 0.000000 1.806291 -5.283635 -0.011906 -0.008633 -0.006384
Ga 0.000000 1.806291 -0.266680 -0.015173 -0.011126 0.045351
Ga 3.173845 -3.690969 5.013378 -0.015767 -0.008331 -0.004528
Ga 3.173845 -3.690969 -5.283635 -0.015463 -0.008441 -0.005933
Al 3.173845 -3.690969 -0.266680 -0.012463 -0.005221 0.036582
Ga 1.609551 -0.981532 5.013378 -0.016340 0.009360 -0.008251
Ga 1.609551 -0.981532 -5.283635 -0.016681 0.009432 -0.009407
Ga 1.609551 -0.981532 -0.266680 -0.016184 0.009103 0.042576
Ga 3.128588 1.806291 5.013378 0.000625 -0.003469 -0.002336
Ga 3.128588 1.806291 -5.283635 0.000169 -0.003348 -0.004137
Ga 3.128588 1.806291 -0.266680 0.000576 -0.003666 0.048737
Ga 6.302433 -3.690969 5.013378 0.000245 0.000010 -0.001065
Ga 6.302433 -3.690969 -5.283635 0.000283 -0.000466 -0.002413
Ga 6.302433 -3.690969 -0.266680 -0.000224 0.000418 0.049864
Ga 4.738139 -0.981532 5.013378 -0.000498 0.017342 -0.004813
Ga 4.738139 -0.981532 -5.283635 -0.000698 0.017397 -0.005847
Al 4.738139 -0.981532 -0.266680 -0.001559 0.013254 0.036445
Al -3.219102 1.806291 5.013378 0.003506 -0.001869 -0.003533
Ga -3.219102 1.806291 -5.283635 0.003222 -0.001912 -0.004656
Ga -3.219102 1.806291 -0.266680 0.003426 -0.001892 0.047362
Ga -0.045257 -3.690969 5.013378 0.003517 0.000861 -0.002480
Al -0.045257 -3.690969 -5.283635 0.003076 0.001559 -0.003750
Ga -0.045257 -3.690969 -0.266680 0.003462 0.001617 0.048515
Ga -1.609551 -0.981532 5.013378 0.001800 0.019247 -0.005864
Ga -1.609551 -0.981532 -5.283635 0.002405 0.018570 -0.007220
Al -1.609551 -0.981532 -0.266680 0.001400 0.014665 0.035656
N 1.564294 0.903146 4.418497 -0.001425 -0.017612 -0.016302
N 1.564294 0.903146 -5.878516 -0.019814 -0.007204 -0.009242
N 1.564294 0.903146 -0.861561 -0.001355 -0.017757 0.009181
N 0.000000 3.612582 4.418497 -0.002179 0.000109 0.002463
N 0.000000 3.612582 -5.878516 -0.002304 -0.021282 -0.013326
N 0.000000 3.612582 -0.861561 -0.020311 0.010354 0.012718
N 3.173845 -1.884678 4.418497 -0.002943 0.001733 0.002190
N 3.173845 -1.884678 -5.878516 -0.002950 0.001656 0.001988
N 3.173845 -1.884678 -0.861561 0.015777 -0.008952 0.019635
N -4.783396 0.903146 4.418497 0.019328 -0.006696 0.014709
N -4.783396 0.903146 -5.878516 0.000434 -0.017746 -0.016853
N -4.783396 0.903146 -0.861561 0.000737 -0.034940 0.015267
N -6.347690 3.612582 4.418497 -0.000776 0.000548 0.002935
N -6.347690 3.612582 -5.878516 0.018658 0.011643 0.010416
N -6.347690 3.612582 -0.861561 -0.000804 0.000209 0.006447
N -3.173845 -1.884678 4.418497 -0.001229 0.001838 0.002296
N -3.173845 -1.884678 -5.878516 -0.001251 0.002218 0.002306
N -3.173845 -1.884678 -0.861561 -0.000761 0.023109 0.019504
N -1.654808 0.903146 4.418497 -0.002081 0.001333 0.018572
N -1.654808 0.903146 -5.878516 0.031741 -0.001188 0.016414
N -1.654808 0.903146 -0.861561 0.017026 -0.026994 0.018373
N -3.219102 3.612582 4.418497 0.015400 -0.013199 0.014218
N -3.219102 3.612582 -5.878516 -0.003257 0.019654 0.014126
N -3.219102 3.612582 -0.861561 0.030644 0.016691 0.015192
N -0.045257 -1.884678 4.418497 0.014870 0.010126 0.006640
N -0.045257 -1.884678 -5.878516 0.014514 -0.011975 -0.009604
N -0.045257 -1.884678 -0.861561 -0.003641 0.020746 0.016167
N 0.000000 1.806291 1.910020 0.003753 -0.021226 -0.032242
N 0.000000 1.806291 6.926975 0.003987 0.000913 0.021622
N 0.000000 1.806291 -3.370038 -0.014760 -0.010014 -0.017296
N 3.173845 -3.690969 1.910020 -0.015538 -0.008510 -0.050478
N 3.173845 -3.690969 6.926975 0.003413 -0.019322 0.013942
N 3.173845 -3.690969 -3.370038 -0.015496 -0.008445 0.006812
N 1.609551 -0.981532 1.910020 -0.017293 0.027692 -0.029183
N 1.609551 -0.981532 6.926975 -0.032555 0.018876 0.021872
N 1.609551 -0.981532 -3.370038 -0.016544 0.009591 0.010249
N 3.128588 1.806291 1.910020 -0.017835 -0.012982 -0.036222
N 3.128588 1.806291 6.926975 0.000855 -0.023529 0.017342
N 3.128588 1.806291 -3.370038 0.001271 -0.002203 0.002029
N 6.302433 -3.690969 1.910020 0.000689 -0.000230 -0.043607
N 6.302433 -3.690969 6.926975 -0.018361 -0.011248 0.009858
N 6.302433 -3.690969 -3.370038 0.000457 -0.000175 0.002658
N 4.738139 -0.981532 1.910020 -0.000255 0.017928 -0.050792
N 4.738139 -0.981532 6.926975 -0.000718 0.035257 0.012007
N 4.738139 -0.981532 -3.370038 -0.000363 0.017732 0.006803
N -3.219102 1.806291 1.910020 0.003147 -0.002073 -0.044111
N -3.219102 1.806291 6.926975 -0.015891 -0.012482 -0.014138
N -3.219102 1.806291 -3.370038 0.002982 -0.001871 0.001701
N -0.045257 -3.690969 1.910020 0.002409 0.000164 -0.043712
N -0.045257 -3.690969 6.926975 0.002026 0.022070 0.009890
N -0.045257 -3.690969 -3.370038 0.002304 -0.000081 -0.021419
N -1.609551 -0.981532 1.910020 0.001347 0.018157 -0.051403
N -1.609551 -0.981532 6.926975 0.019966 0.007191 0.013472
N -1.609551 -0.981532 -3.370038 0.001227 0.018064 0.006473
