108
Energy=-619765.276890 Lattice="9.451002 0.000000 0.000000 -4.740053 8.168442 0.000000 0.003563 0.005518 15.156128" Stress="0.000053 0.000014 -0.000000 0.000014 0.000054 0.000001 -0.000000 0.000001 0.000023" Properties=species:S:1:pos:R:3:forces:R:3
Al 1.550388 0.874624 2.400483 0.000025 -0.005948 -0.003171
Al 1.549404 0.879150 7.429452 0.001003 -0.006080 -0.000403
Al 1.550247 0.880888 -2.687722 0.002146 -0.005175 -0.002280
Al -0.017393 3.589472 2.389249 0.000156 0.000254 -0.001924
Al -0.023680 3.587244 7.425750 0.000672 0.000265 0.000114
Al -0.023627 3.589112 -2.677339 -0.000596 -0.000203 -0.000920
Al 3.136460 -1.869934 2.406514 0.009208 0.003232 -0.008491
Al 3.147446 -1.866614 7.424967 0.000464 0.000798 0.000446
Al 3.142318 -1.871302 -2.689068 0.004487 0.001937 -0.000473
Al -4.760388 0.876854 2.412225 0.002769 -0.006752 -0.005831
Al -4.763310 0.888290 7.428483 0.001348 -0.006887 0.000228
Al -4.759875 0.890366 -2.642211 -0.000045 -0.006189 -0.076931
Al -6.328877 3.589020 2.392731 0.000690 0.001509 -0.002396
Al -6.329070 3.592485 7.426475 -0.000917 0.000817 0.000330
Al -6.335483 3.585321 -2.674223 -0.000283 -0.001387 -0.001268
Al -3.146456 -1.862410 2.381413 0.000128 -0.000355 -0.001601
Al -3.162992 -1.858964 7.419989 0.000599 0.000598 -0.001312
Al -3.160745 -1.856516 -2.671910 -0.000944 -0.000281 0.000631
Al -1.624043 0.883674 2.394567 0.007328 -0.004709 -0.004016
Al -1.629393 0.887477 7.431763 0.007163 -0.004438 -0.001287
Al -1.631939 0.890260 -2.681271 0.006665 -0.003362 -0.003415
Al -3.195411 3.594783 2.394034 0.004738 0.002587 -0.003232
Al -3.197058 3.598839 7.430477 0.005432 0.001884 -0.000254
Al -3.197205 3.591897 -2.682601 0.006066 0.001271 -0.002207
Al -0.022747 -1.858008 2.398240 0.005154 0.000725 -0.003291
Al -0.028861 -1.854934 7.431356 0.005447 0.002202 -0.000422
Ga -0.036006 -1.860331 -2.673724 0.006971 0.003347 -0.001206
Al -0.016363 1.778524 4.913398 -0.005808 -0.001965 -0.000801
Al -0.023100 1.772313 -5.208171 -0.004775 -0.002530 -0.000123
Al -0.019132 1.782434 -0.155147 -0.004834 -0.002338 0.002336
Al 3.153104 -3.677082 4.914932 -0.005103 -0.003236 -0.000735
Al 3.142411 -3.685346 -5.208940 -0.004568 -0.001188 0.000393
Al 3.148844 -3.676551 -0.150235 -0.004556 -0.000408 0.001154
Al 1.582969 -0.964134 4.916217 -0.008485 0.004861 -0.001664
Al 1.579571 -0.966596 -5.210276 -0.007386 0.004522 -0.001429
Al 1.575136 -0.963203 -0.177773 -0.005665 0.004405 0.013052
Al 3.119310 1.784189 4.914893 -0.001755 0.000191 0.000499
Al 3.120898 1.779514 -5.205429 -0.001625 -0.001365 0.003652
Al 3.120509 1.780561 -0.164366 -0.001565 0.001280 -0.000269
Al 6.289052 -3.671048 4.910613 -0.000054 -0.000166 0.000084
Ga 6.291773 -3.677117 -5.206005 -0.000823 -0.000321 0.001741
Al 6.289112 -3.669756 -0.151290 0.000061 0.001102 0.001650
Al 4.718367 -0.957317 4.913615 -0.000196 0.004608 0.001241
Ga 4.721877 -0.960537 -5.200114 -0.001777 0.007385 0.002696
Ga 4.710599 -0.917477 -0.184186 0.000750 0.000526 -0.005240
Al -3.193519 1.788411 4.913170 0.001995 0.000176 0.000343
Al -3.196508 1.789102 -5.204944 0.000623 -0.001143 0.002525
Al -3.197658 1.791682 -0.172863 -0.002055 -0.000964 0.001017
Al -0.023840 -3.667075 4.912654 0.000250 0.000477 -0.000184
Al -0.022217 -3.675405 -5.209172 -0.000067 0.001830 0.000480
Al -0.023508 -3.669435 -0.157101 -0.000505 -0.001228 0.006627
Al -1.593278 -0.953976 4.913043 -0.000674 0.005929 -0.000526
Al -1.593483 -0.949580 -5.205515 0.000061 0.005359 -0.001719
Al -1.595302 -0.942741 -0.134894 -0.000960 0.003441 -0.002144
N 1.549374 0.879164 4.319166 0.001653 -0.005897 0.000275
N 1.547371 0.874814 -5.807538 0.000784 -0.005578 0.000855
N 1.545694 0.878905 -0.764778 0.000699 -0.006564 0.003843
N -0.018951 3.590065 4.310618 -0.000778 0.000085 -0.000519
N -0.040152 3.575898 -5.814803 -0.010338 -0.005472 -0.004229
N -0.022788 3.593359 -0.756479 -0.000346 -0.000279 0.001595
N 3.147561 -1.867433 4.322727 0.001954 0.001746 -0.002794
N 3.132174 -1.879802 -5.813255 -0.010121 -0.005500 -0.004808
N 3.129990 -1.871283 -0.770019 -0.011777 -0.005479 -0.003122
N -4.764088 0.886154 4.322875 0.001065 -0.008248 -0.000973
N -4.765856 0.901030 -5.811000 0.001746 0.004276 -0.004848
N -4.785849 0.923658 -0.936913 0.006187 0.006310 0.100186
N -6.332266 3.594104 4.311832 0.000031 -0.000402 -0.000271
N -6.315762 3.578041 -5.814917 0.010159 -0.005268 -0.005340
N -6.333542 3.593041 -0.757314 -0.000071 0.000636 0.003005
N -3.162820 -1.858451 4.308538 -0.001163 0.000856 -0.001727
N -3.142593 -1.852580 -5.834681 0.009001 0.005806 -0.005295
N -3.148840 -1.857883 -0.758568 0.011540 -0.005909 -0.003538
N -1.627108 0.885369 4.313282 0.006299 -0.003507 0.001114
N -1.632628 0.884345 -5.805869 0.006856 -0.003483 0.001536
N -1.628778 0.890639 -0.762057 0.005916 -0.004554 0.005230
N -3.196572 3.598700 4.312791 0.005831 0.001621 0.000487
N -3.199564 3.595042 -5.806863 0.005686 0.001771 -0.000209
N -3.196915 3.601109 -0.764468 0.005362 0.002059 0.004059
N -0.029507 -1.856889 4.317276 0.005779 0.002189 0.000488
N -0.031908 -1.859346 -5.803508 0.005814 0.001800 0.000443
N -0.032725 -1.859858 -0.718418 0.005249 0.004546 0.008867
N -0.013210 1.778191 1.786142 -0.005832 -0.002377 -0.001625
N -0.017874 1.778043 6.830758 -0.005643 -0.002631 0.000242
N -0.018645 1.778819 -3.285161 -0.005629 -0.002500 0.001766
N 3.153434 -3.676076 1.784053 -0.005585 -0.001876 0.000488
N 3.151505 -3.677991 6.829653 -0.005818 -0.001600 0.000225
N 3.149468 -3.680116 -3.287186 -0.005365 -0.001765 0.001255
N 1.582099 -0.964861 1.824550 -0.004794 0.005222 -0.012528
N 1.582717 -0.963426 6.833050 -0.007005 0.004160 0.001384
N 1.597868 -0.955297 -3.291223 0.000770 0.009125 -0.001495
N 3.123982 1.776068 1.791365 0.002873 -0.002900 -0.007739
N 3.119659 1.784845 6.829711 -0.000284 -0.001052 -0.001086
N 3.119771 1.780567 -3.278865 -0.001728 0.000658 -0.004707
N 6.297493 -3.675218 1.782266 -0.001246 -0.000708 -0.000620
N 6.288711 -3.672516 6.829214 -0.000051 -0.000521 -0.000990
N 6.288290 -3.670521 -3.258692 0.000057 -0.000057 0.012597
N 4.766719 -0.956768 1.739858 -0.017511 0.008717 0.031014
N 4.719254 -0.957360 6.830902 -0.001993 0.006185 -0.000377
N 4.730917 -0.951757 -3.247604 -0.005745 0.002100 0.008819
N -3.193968 1.781757 1.790447 -0.002065 -0.000750 -0.009004
N -3.193174 1.789736 6.830537 0.000551 -0.000416 -0.001157
N -3.194122 1.787184 -3.279332 0.001920 0.000390 -0.003613
N -0.021221 -3.671540 1.786915 0.000582 -0.000499 -0.002091
N -0.023202 -3.667235 6.830544 0.000700 0.000405 -0.000548
N -0.027602 -3.693243 -3.289103 0.000484 -0.010190 -0.003862
N -1.580503 -0.959522 1.779406 -0.001511 0.008566 0.003971
N -1.593466 -0.953338 6.830189 -0.000343 0.006371 -0.000612
N -1.614390 -0.942608 -3.288566 -0.009180 0.011484 -0.004084
