108
Energy=-5.282153e+05 Lattice="9.408633e+00 0.000000e+00 0.000000e+00 -4.708083e+00 8.147213e+00 0.000000e+00 -2.047724e-03 4.876551e-03 1.507852e+01" Stress="1.249890e-04 -1.448446e-04 -9.228584e-05 -1.453429e-04 8.126921e-05 1.884922e-04 -9.279906e-05 1.868659e-04 -5.269094e-04" Properties=species:S:1:pos:R:3:forces:R:3 Config_type=AlGaN_super3_2_1_15.xyz
Al 1.545237e+00 8.683052e-01 2.366754e+00 2.836241e-04 -8.710732e-05 -8.384248e-05
Al 1.541738e+00 8.695838e-01 7.389707e+00 2.036853e-04 -1.266752e-04 -4.780422e-05
Al 1.545893e+00 8.626920e-01 -2.669209e+00 1.477874e-04 -7.611122e-05 -7.236648e-05
Al -2.349701e-02 3.584184e+00 2.365950e+00 9.165429e-05 -6.176466e-05 1.458415e-04
Al -2.459857e-02 3.581990e+00 7.389913e+00 1.494252e-06 7.152112e-06 -5.435560e-05
Al -2.318896e-02 3.580553e+00 -2.669186e+00 -1.578106e-05 -2.556867e-06 -1.311160e-04
Al 3.107441e+00 -1.852675e+00 2.380433e+00 5.813201e-04 3.381916e-04 1.556024e-04
Al 3.116335e+00 -1.846866e+00 7.389187e+00 6.617239e-05 -1.778265e-05 -1.136102e-04
Al 3.110917e+00 -1.855735e+00 -2.678872e+00 9.913207e-05 3.820410e-05 -2.915238e-04
Al -4.727680e+00 8.793868e-01 2.381626e+00 -1.373586e-04 -6.152419e-04 -3.123103e-04
Al -4.729531e+00 8.679016e-01 7.389421e+00 1.723841e-04 -5.681068e-05 -1.419074e-04
Al -4.728572e+00 8.705538e-01 -2.679704e+00 4.967914e-04 -1.330991e-04 2.293462e-04
Al -6.303856e+00 3.581160e+00 2.381123e+00 -3.536406e-04 -3.518822e-04 1.404133e-04
Al -6.296885e+00 3.585381e+00 7.389325e+00 -2.640203e-05 3.266901e-05 -1.806758e-04
Al -6.301857e+00 3.576800e+00 -2.678834e+00 -3.600028e-05 1.112618e-04 -2.498816e-04
Al -3.149332e+00 -1.851352e+00 2.381509e+00 -1.191801e-04 1.670694e-05 -7.281763e-05
Al -3.159258e+00 -1.846068e+00 7.389250e+00 3.500503e-05 3.721762e-05 -1.381525e-04
Al -3.151187e+00 -1.854907e+00 -2.678657e+00 -6.082546e-05 1.226206e-04 -1.712910e-04
Al -1.592996e+00 8.698785e-01 2.366396e+00 1.895459e-04 -1.859540e-04 -2.874207e-05
Al -1.592137e+00 8.713570e-01 7.389913e+00 2.659930e-04 -2.152419e-04 -2.910358e-05
Al -1.593810e+00 8.644836e-01 -2.668421e+00 2.136217e-04 -1.355681e-04 2.279098e-05
Al -3.153565e+00 3.581998e+00 2.381563e+00 -1.200824e-04 -1.428884e-04 -4.250139e-05
Al -3.163064e+00 3.586440e+00 7.389387e+00 1.384385e-04 -1.176077e-04 -1.397849e-04
Al -3.155399e+00 3.577612e+00 -2.678590e+00 9.755074e-05 -9.412735e-05 -1.746004e-04
Al -2.205889e-02 -1.838436e+00 2.380792e+00 1.789780e-04 -9.910886e-05 1.290644e-05
Al -2.250333e-02 -1.846825e+00 7.389332e+00 1.676172e-04 -8.807395e-05 -1.171925e-04
Al -2.126013e-02 -1.844509e+00 -2.678573e+00 1.338267e-04 -1.252124e-04 -6.657499e-05
Al -2.400382e-02 1.773431e+00 4.876126e+00 -2.207605e-04 1.650048e-04 6.855140e-05
Al -2.276039e-02 1.768502e+00 -5.176519e+00 -2.101220e-04 1.460830e-04 2.548277e-05
Al -2.304709e-02 1.769496e+00 -1.549217e-01 -2.378378e-04 -4.330553e-05 -6.568640e-05
Al 3.117183e+00 -3.659441e+00 4.885789e+00 -1.412086e-04 1.987080e-04 -1.245645e-04
Al 3.118296e+00 -3.663786e+00 -5.184324e+00 -1.542070e-04 1.603260e-04 -1.608128e-04
Al 3.119896e+00 -3.669878e+00 -1.499561e-01 -2.477032e-05 3.423738e-04 -1.056770e-04
Al 1.546915e+00 -9.407720e-01 4.885643e+00 -2.766156e-04 1.183782e-04 -1.045584e-04
Al 1.548820e+00 -9.461515e-01 -5.184426e+00 -3.183330e-04 1.900451e-04 -1.292787e-04
Al 1.543378e+00 -9.406040e-01 -1.492036e-01 -2.098011e-04 4.601878e-04 -3.192517e-04
Al 3.109786e+00 1.774094e+00 4.885529e+00 -1.076863e-04 3.730574e-05 -1.429507e-04
Al 3.111392e+00 1.768751e+00 -5.184655e+00 -5.163742e-05 -4.422197e-06 -1.638734e-04
Al 3.104509e+00 1.769223e+00 -1.522875e-01 3.543992e-04 -6.284746e-05 8.374005e-04
Al 6.249933e+00 -3.658612e+00 4.885690e+00 -4.705851e-05 3.005884e-05 -1.252149e-04
Al 6.251265e+00 -3.662792e+00 -5.184364e+00 -2.553759e-05 1.435020e-05 -1.877908e-04
Al 6.247585e+00 -3.669526e+00 -1.496959e-01 5.462200e-06 3.293143e-04 -7.296629e-05
Al 4.682915e+00 -9.414410e-01 4.877382e+00 -1.669699e-04 2.470705e-05 -3.032171e-04
Al 4.684288e+00 -9.466625e-01 -5.177622e+00 -2.012644e-04 4.949787e-05 -1.256622e-04
Ga 4.683189e+00 -9.486774e-01 -1.472209e-01 4.196929e-05 5.005373e-04 4.670623e-04
Al -3.159746e+00 1.774907e+00 4.885723e+00 -7.000261e-05 6.891249e-05 -8.530847e-05
Al -3.158993e+00 1.769573e+00 -5.184632e+00 -7.883764e-05 6.328962e-05 1.008962e-06
Al -3.151549e+00 1.771441e+00 -1.482187e-01 -3.278085e-04 -1.454526e-04 -5.091950e-04
Al -2.199416e-02 -3.656365e+00 4.877772e+00 -2.860693e-05 5.630481e-05 -8.497761e-05
Al -2.061601e-02 -3.661378e+00 -5.178485e+00 -1.783525e-05 5.700279e-05 -2.356134e-04
Ga -2.175676e-02 -3.661809e+00 -1.468404e-01 -2.886453e-05 2.417752e-04 -2.164028e-04
Al -1.589629e+00 -9.390329e-01 4.885637e+00 -2.169199e-04 7.389191e-05 -6.561305e-05
Al -1.588849e+00 -9.443307e-01 -5.184435e+00 -2.200231e-04 1.164174e-04 -8.909629e-05
Al -1.585828e+00 -9.390925e-01 -1.481552e-01 -2.952959e-04 4.092158e-04 -6.498271e-04
N 1.544021e+00 8.683108e-01 4.283699e+00 2.924845e-04 -7.659398e-05 5.864674e-05
N 1.542681e+00 8.649410e-01 -5.775856e+00 2.537768e-04 -8.071730e-05 5.846482e-05
N 1.544777e+00 8.635908e-01 -7.490177e-01 2.630379e-04 -1.276454e-04 3.662640e-05
N -2.455496e-02 3.585010e+00 4.283106e+00 9.944948e-05 -1.408176e-04 6.329403e-05
N -2.318773e-02 3.577076e+00 -5.775778e+00 7.242397e-05 -1.229101e-04 6.175021e-05
N -2.414690e-02 3.580408e+00 -7.491514e-01 6.191324e-05 -5.498662e-05 1.481544e-04
N 3.110804e+00 -1.849754e+00 4.293101e+00 4.033468e-05 -1.283745e-04 2.399950e-04
N 3.117443e+00 -1.851618e+00 -5.774767e+00 1.423027e-04 -9.866382e-05 1.494810e-04
N 3.072693e+00 -1.876907e+00 -7.670733e-01 -6.312198e-05 -8.643178e-05 2.079912e-04
N -4.729339e+00 8.745910e-01 4.293644e+00 2.528994e-04 -4.535979e-05 2.580098e-04
N -4.728221e+00 8.630519e-01 -5.774377e+00 1.983134e-04 -1.693323e-05 7.954452e-05
N -4.725814e+00 9.116739e-01 -7.662298e-01 -6.326245e-04 6.624102e-04 -1.198905e-04
N -6.301810e+00 3.582846e+00 4.293465e+00 5.092119e-05 -5.801003e-05 1.871934e-04
N -6.295355e+00 3.580527e+00 -5.775106e+00 4.819797e-06 -1.579446e-05 2.076794e-04
N -6.339013e+00 3.556099e+00 -7.688821e-01 1.776163e-04 -9.484030e-05 2.562833e-05
N -3.153619e+00 -1.849241e+00 4.293558e+00 9.906325e-05 -1.821956e-05 2.589464e-04
N -3.157848e+00 -1.851017e+00 -5.774742e+00 1.123774e-04 -1.804104e-05 1.422052e-04
N -3.115275e+00 -1.876798e+00 -7.664572e-01 3.829614e-04 -3.790983e-05 1.264768e-05
N -1.594740e+00 8.700083e-01 4.283463e+00 3.566992e-04 -1.626917e-04 1.540069e-05
N -1.590689e+00 8.667032e-01 -5.775632e+00 3.304156e-04 -1.870110e-04 6.410927e-06
N -1.593700e+00 8.653228e-01 -7.476264e-01 4.745749e-04 -1.687438e-04 -5.671742e-05
N -3.157735e+00 3.584022e+00 4.293682e+00 1.004041e-04 -2.179577e-04 1.154460e-04
N -3.161627e+00 3.581773e+00 -5.774843e+00 1.074144e-04 -1.953680e-04 1.325679e-04
N -3.119946e+00 3.557765e+00 -7.681249e-01 4.033501e-05 -2.065312e-04 2.517967e-05
N -2.270092e-02 -1.840804e+00 4.293418e+00 2.333020e-04 -2.281388e-04 2.608765e-05
N -2.129948e-02 -1.851594e+00 -5.774800e+00 1.945736e-04 -1.888892e-04 1.339373e-04
N -2.234751e-02 -1.802655e+00 -7.678515e-01 2.187641e-04 -2.176380e-04 3.705587e-05
N -2.271153e-02 1.772672e+00 1.767905e+00 -1.828378e-04 2.540389e-04 1.154925e-04
N -2.399492e-02 1.773452e+00 6.791329e+00 -1.741509e-04 1.640646e-04 -2.776442e-06
N -2.267241e-02 1.768444e+00 -3.258735e+00 -1.966342e-04 1.432507e-04 1.308360e-05
N 3.116038e+00 -3.658406e+00 1.770989e+00 -1.265644e-04 -6.379096e-05 2.303578e-05
N 3.116418e+00 -3.658763e+00 6.798774e+00 -9.168054e-05 1.239230e-04 1.212756e-04
N 3.119491e+00 -3.664549e+00 -3.272527e+00 -8.896087e-05 1.199354e-04 1.687999e-04
N 1.547692e+00 -9.434364e-01 1.770882e+00 -2.822394e-04 -4.487549e-05 2.574038e-04
N 1.547548e+00 -9.418843e-01 6.798823e+00 -3.015833e-04 1.940264e-04 9.491313e-05
N 1.548901e+00 -9.448675e-01 -3.272407e+00 -2.782516e-04 1.797100e-04 1.233001e-04
N 3.113208e+00 1.775590e+00 1.772410e+00 -1.692813e-04 -3.896948e-04 -6.716740e-04
N 3.110699e+00 1.774048e+00 6.798603e+00 -7.985053e-05 -4.877139e-06 1.473020e-04
N 3.110026e+00 1.768073e+00 -3.272828e+00 -6.072542e-05 -5.232992e-05 2.495827e-04
N 6.252842e+00 -3.656894e+00 1.771107e+00 -1.624343e-04 -3.023273e-04 6.162085e-05
N 6.250118e+00 -3.657605e+00 6.798610e+00 1.847564e-05 -5.233406e-05 1.615805e-04
N 6.249823e+00 -3.663320e+00 -3.272732e+00 -2.801059e-05 -6.327819e-05 1.560972e-04
N 4.684650e+00 -9.419412e-01 1.835283e+00 -6.045885e-04 2.756334e-05 -5.710446e-04
N 4.682939e+00 -9.415085e-01 6.793158e+00 -1.736185e-04 1.616629e-05 1.241671e-04
N 4.684105e+00 -9.465318e-01 -3.259548e+00 -1.681510e-04 -6.734838e-05 4.585783e-05
N -3.160761e+00 1.776557e+00 1.771360e+00 1.201439e-04 -2.548021e-04 3.278933e-04
N -3.160724e+00 1.774677e+00 6.798800e+00 -1.119315e-04 7.538553e-05 1.119115e-04
N -3.157704e+00 1.768592e+00 -3.272325e+00 -1.184002e-04 5.457545e-05 -2.704281e-05
N -2.245273e-02 -3.658322e+00 1.833554e+00 5.986143e-04 4.583364e-04 -5.192550e-05
N -2.206084e-02 -3.656540e+00 6.793439e+00 -2.720512e-05 3.665176e-05 1.648357e-04
N -2.077680e-02 -3.661651e+00 -3.260691e+00 8.297551e-06 6.401637e-05 1.795983e-04
N -1.589260e+00 -9.419092e-01 1.770614e+00 -1.853346e-04 -6.478273e-05 5.710262e-04
N -1.590073e+00 -9.401071e-01 6.798758e+00 -2.185778e-04 1.087075e-04 1.135398e-04
N -1.589016e+00 -9.430937e-01 -3.272324e+00 -1.991285e-04 1.040282e-04 1.016959e-04
