108
Energy=-1.397949e+06 Lattice="9.510533e+00 0.000000e+00 0.000000e+00 -4.758728e+00 8.234986e+00 0.000000e+00 5.524947e-03 -3.358288e-03 1.535115e+01" Stress="1.740426e-04 -2.945441e-04 1.944050e-04 -3.108300e-04 -1.946470e-04 -1.143602e-04 2.155370e-04 -1.175600e-04 4.365111e-05" Properties=species:S:1:pos:R:3:forces:R:3 Config_type=AlGaN_super3_21_0_22.xyz
Al 1.565129e+00 8.900991e-01 2.420461e+00 1.026615e-04 -2.042819e-04 -2.367333e-06
Al 1.571191e+00 8.726639e-01 7.499817e+00 -1.025631e-04 -1.075723e-04 8.245962e-05
Al 1.556175e+00 8.787363e-01 -2.696558e+00 2.492929e-04 1.182862e-04 -1.413650e-04
Al -1.987004e-02 3.610784e+00 2.413804e+00 -1.949282e-05 4.688307e-05 1.948784e-05
Al -2.454395e-02 3.619795e+00 7.489610e+00 -2.364598e-04 -2.411822e-04 -1.256188e-04
Al -2.703047e-02 3.612318e+00 -2.675115e+00 1.184941e-05 5.654992e-05 1.711053e-04
Al 3.154021e+00 -1.869631e+00 2.421383e+00 -1.145249e-04 4.599155e-04 1.884576e-04
Ga 3.136235e+00 -1.878007e+00 7.524982e+00 -8.160516e-05 -6.574780e-06 7.314000e-05
Ga 3.138159e+00 -1.876751e+00 -2.713288e+00 -1.472610e-04 7.863909e-05 3.849477e-05
Al -4.792854e+00 8.789579e-01 2.394623e+00 -1.184905e-04 -2.034513e-04 -2.141467e-04
Al -4.785513e+00 8.856471e-01 7.525733e+00 -2.337631e-04 4.201791e-04 2.697877e-04
Ga -4.791358e+00 8.841773e-01 -2.681625e+00 9.578013e-05 1.114050e-05 -6.734983e-06
Al -6.379168e+00 3.601089e+00 2.408690e+00 6.560964e-04 1.025375e-05 1.080927e-04
Ga -6.366269e+00 3.607539e+00 7.523905e+00 -1.224904e-05 -1.494248e-05 1.173034e-04
Ga -6.368012e+00 3.615261e+00 -2.702406e+00 5.031403e-05 -1.583203e-05 -1.472907e-06
Ga -3.200741e+00 -1.879551e+00 2.415641e+00 -9.061054e-05 9.941756e-05 7.157783e-05
Al -3.180966e+00 -1.877070e+00 7.491537e+00 -1.233564e-05 -4.401570e-05 -5.543501e-05
Ga -3.195201e+00 -1.880829e+00 -2.667165e+00 -6.906127e-05 7.927695e-05 9.158864e-05
Al -1.596661e+00 8.877779e-01 2.422036e+00 6.672470e-05 9.308493e-05 -1.275326e-04
Ga -1.600281e+00 8.757834e-01 7.514771e+00 1.139478e-04 -3.376178e-05 -1.651692e-06
Ga -1.600137e+00 8.909331e-01 -2.698774e+00 2.094887e-04 -1.271069e-04 1.183339e-05
Ga -3.184917e+00 3.619145e+00 2.394314e+00 -2.217419e-04 -2.759522e-05 6.099741e-05
Al -3.181846e+00 3.623629e+00 7.537521e+00 1.810014e-05 -4.181113e-05 -2.805753e-06
Ga -3.191916e+00 3.629465e+00 -2.694216e+00 4.819727e-05 -1.269341e-04 3.508750e-05
Ga -1.442088e-02 -1.864368e+00 2.433643e+00 -1.217671e-05 -1.091417e-04 1.253947e-04
Al -1.155858e-02 -1.861562e+00 7.515837e+00 7.717475e-05 1.383946e-04 -1.664060e-04
Al -9.431490e-03 -1.870379e+00 -2.710675e+00 -1.026296e-05 2.009075e-05 6.769760e-05
Al -6.523721e-03 1.793574e+00 4.951686e+00 -1.355710e-05 4.359307e-05 -3.160384e-05
Ga -9.189357e-03 1.801171e+00 -5.272479e+00 -3.558821e-05 1.246259e-04 -2.965650e-05
Al -1.784961e-02 1.807918e+00 -1.292822e-01 -6.015347e-05 -4.787061e-05 8.041367e-05
Al 3.163409e+00 -3.701350e+00 4.961292e+00 5.026023e-05 -1.135697e-04 1.396657e-04
Al 3.137584e+00 -3.713380e+00 -5.275376e+00 1.142464e-04 5.551035e-05 -3.141298e-04
Al 3.165399e+00 -3.707278e+00 -1.304756e-01 -5.692594e-05 2.410325e-04 -1.371521e-04
Al 1.564346e+00 -9.394313e-01 4.961625e+00 -1.824158e-05 3.553549e-05 -1.699212e-05
Al 1.554850e+00 -9.489062e-01 -5.271164e+00 -1.455944e-04 -1.662976e-04 8.756096e-05
Ga 1.573189e+00 -9.503972e-01 -1.383306e-01 -7.250486e-05 5.576586e-05 3.162678e-04
Al 3.130106e+00 1.785033e+00 4.948849e+00 1.190473e-04 1.998393e-04 -1.028616e-04
Al 3.146059e+00 1.780429e+00 -5.274962e+00 1.306225e-05 -2.807309e-06 -2.035279e-04
Al 3.141539e+00 1.795638e+00 -1.202095e-01 2.457645e-04 2.576376e-04 -1.148218e-04
Al 6.312211e+00 -3.716042e+00 4.958813e+00 2.025529e-04 -8.590280e-06 -8.297476e-05
Ga 6.306596e+00 -3.706628e+00 -5.274115e+00 -9.465915e-05 1.356080e-05 1.408807e-04
Al 6.309194e+00 -3.721677e+00 -1.265627e-01 1.774860e-04 -1.862775e-04 8.715606e-05
Ga 4.726442e+00 -9.528373e-01 4.969555e+00 -1.223180e-04 -1.783743e-05 -7.435042e-05
Ga 4.727540e+00 -9.393689e-01 -5.293421e+00 -1.334972e-05 1.005444e-05 -7.714867e-06
Al 4.723757e+00 -9.542540e-01 -1.112440e-01 -9.763392e-05 8.498971e-05 -1.630665e-04
Ga -3.191001e+00 1.788907e+00 4.964821e+00 -8.568689e-05 3.981689e-05 1.150587e-04
Al -3.214808e+00 1.814461e+00 -5.289105e+00 5.961735e-05 -4.928397e-05 -2.796467e-05
Al -3.197591e+00 1.793510e+00 -1.142952e-01 -4.717419e-05 -5.212909e-04 7.018208e-05
Ga -2.555477e-02 -3.696804e+00 4.984030e+00 -6.928569e-05 -8.382789e-05 7.995648e-05
Al -2.430933e-03 -3.695397e+00 -5.289903e+00 4.189316e-05 -1.461641e-05 -1.015819e-04
Al -2.725279e-02 -3.711486e+00 -1.379476e-01 -3.295545e-04 8.949484e-05 2.370820e-04
Al -1.594203e+00 -9.506304e-01 4.974585e+00 -6.091489e-05 -2.234322e-04 1.016501e-04
Ga -1.595866e+00 -9.640072e-01 -5.270280e+00 -1.076217e-04 9.956580e-06 7.109059e-05
Ga -1.606546e+00 -9.521331e-01 -1.373428e-01 5.296884e-06 8.087040e-05 1.232678e-04
N 1.561836e+00 8.780869e-01 4.342082e+00 1.044233e-04 -3.191475e-05 -6.447211e-05
N 1.602595e+00 8.515009e-01 -5.923364e+00 2.219036e-05 2.043735e-04 -2.484743e-04
N 1.563195e+00 9.262289e-01 -7.711671e-01 -2.566567e-04 -9.478856e-05 -1.390555e-04
N -2.495471e-02 3.619053e+00 4.341054e+00 4.654300e-05 -2.475833e-05 -6.462426e-05
N -6.986391e-02 3.644148e+00 -5.950319e+00 -1.101505e-04 9.883035e-05 1.294125e-04
N -2.716033e-02 3.617546e+00 -7.507911e-01 -1.250082e-05 3.460558e-05 3.950679e-05
N 3.108000e+00 -1.895152e+00 4.344577e+00 7.136297e-05 -1.024608e-05 -2.490725e-04
N 3.097669e+00 -1.896366e+00 -5.844871e+00 -2.989347e-05 -1.448663e-04 1.102612e-04
N 3.189460e+00 -1.897420e+00 -7.324593e-01 -2.909238e-05 -1.961381e-04 -2.215996e-05
N -4.820580e+00 9.010107e-01 4.304516e+00 -5.265781e-05 -2.514261e-05 -8.773035e-05
N -4.787381e+00 9.324046e-01 -5.911638e+00 6.021548e-05 -5.102553e-05 -2.015454e-04
N -4.782734e+00 8.782027e-01 -6.904148e-01 2.493004e-04 7.166081e-05 3.465111e-05
N -6.403742e+00 3.595535e+00 4.335192e+00 -2.359802e-04 -8.796468e-05 1.619383e-04
N -6.327940e+00 3.594834e+00 -5.846625e+00 1.908250e-05 5.071396e-05 4.935533e-05
N -6.365597e+00 3.615434e+00 -7.115728e-01 3.682959e-05 -1.859387e-05 1.079244e-04
N -3.149488e+00 -1.895806e+00 4.392897e+00 -5.679534e-06 1.575789e-04 -3.982679e-05
N -3.188022e+00 -1.872337e+00 -5.952528e+00 4.201539e-05 -3.127287e-05 -1.262237e-04
N -3.238956e+00 -1.898945e+00 -6.905034e-01 8.318647e-05 4.922188e-05 -1.523711e-05
N -1.562789e+00 8.559431e-01 4.345895e+00 -5.044642e-05 -2.687376e-05 -1.870997e-05
N -1.648123e+00 9.024947e-01 -5.863238e+00 1.386685e-04 -5.640071e-05 -8.287899e-05
N -1.609541e+00 9.323554e-01 -7.196374e-01 1.858345e-04 2.397191e-05 -3.393737e-05
N -3.153739e+00 3.646951e+00 4.357850e+00 5.830356e-06 -1.219608e-05 -6.353040e-05
N -3.191278e+00 3.626767e+00 -5.889863e+00 3.411241e-05 2.125126e-05 1.251649e-05
N -3.192774e+00 3.619592e+00 -6.957753e-01 1.997285e-04 2.298045e-04 -9.553701e-05
N -1.724945e-02 -1.825279e+00 4.397500e+00 -9.957250e-05 2.516654e-06 5.576183e-05
N 2.221522e-02 -1.884781e+00 -5.915071e+00 7.017255e-05 3.613061e-05 1.528894e-04
N -1.525760e-02 -1.920213e+00 -7.946998e-01 8.372383e-05 -5.551381e-05 -8.825944e-05
N -1.928827e-02 1.791642e+00 1.803419e+00 3.061360e-05 3.712171e-05 -9.127143e-06
N 2.587632e-02 1.811178e+00 6.874143e+00 2.638806e-05 2.193167e-04 2.311586e-04
N 2.282957e-02 1.819962e+00 -3.290356e+00 1.846488e-06 1.840421e-04 -3.860319e-05
N 3.201318e+00 -3.672903e+00 1.783883e+00 1.898179e-04 -4.487168e-04 -1.459570e-04
N 3.149943e+00 -3.747962e+00 6.877462e+00 -5.950570e-05 1.048241e-05 -1.342138e-05
N 3.194681e+00 -3.734683e+00 -3.356369e+00 -9.247068e-06 4.405387e-05 4.781247e-05
N 1.605783e+00 -9.265469e-01 1.837813e+00 1.582901e-04 1.621385e-04 8.731432e-05
N 1.528427e+00 -9.278548e-01 6.877901e+00 -1.208171e-04 -1.577766e-04 1.487095e-04
N 1.518550e+00 -9.224808e-01 -3.338771e+00 -3.966983e-05 7.332083e-05 -1.865229e-05
N 3.139080e+00 1.789350e+00 1.798991e+00 -9.869775e-05 -4.758266e-06 -6.989076e-05
N 3.149073e+00 1.740619e+00 6.868092e+00 2.727828e-04 -7.130459e-05 1.230450e-04
N 3.102431e+00 1.761384e+00 -3.358320e+00 -1.497426e-04 -7.056870e-05 2.293557e-04
N 6.316519e+00 -3.756500e+00 1.789563e+00 -3.805858e-04 1.345799e-04 -1.790653e-04
N 6.283333e+00 -3.686261e+00 6.876450e+00 1.370843e-04 6.134009e-05 -4.096980e-05
N 6.270682e+00 -3.724404e+00 -3.299430e+00 -5.148589e-05 -5.969764e-05 -2.446327e-05
N 4.689518e+00 -9.335738e-01 1.801420e+00 -1.938844e-05 -1.712770e-05 1.310964e-04
N 4.769710e+00 -9.271497e-01 6.948287e+00 -1.158566e-05 -7.324453e-05 -5.223781e-05
N 4.738467e+00 -9.494471e-01 -3.325920e+00 -8.594701e-05 -1.030382e-04 -2.841405e-05
N -3.189826e+00 1.738948e+00 1.797883e+00 -3.514938e-05 -7.122045e-05 -9.319059e-05
N -3.234650e+00 1.815910e+00 6.940679e+00 4.848355e-05 -1.595511e-05 -5.449232e-05
N -3.204518e+00 1.795563e+00 -3.374572e+00 2.113989e-05 4.173298e-05 -1.520589e-05
N -6.816093e-02 -3.719340e+00 1.774196e+00 -1.191113e-04 -1.071847e-04 -1.969497e-04
N 2.279753e-02 -3.679867e+00 6.957208e+00 3.009443e-05 -7.842040e-05 -5.435528e-05
N -1.856147e-02 -3.652989e+00 -3.365904e+00 4.293935e-05 4.814621e-06 -1.321208e-06
N -1.603107e+00 -9.073536e-01 1.824888e+00 1.480035e-06 4.977637e-05 -5.254697e-05
N -1.598069e+00 -9.989841e-01 6.889635e+00 -3.547162e-05 1.939344e-05 -1.340458e-06
N -1.571170e+00 -9.792650e-01 -3.290737e+00 -1.306372e-04 -1.105541e-04 -5.003279e-05
