108
Energy=-2.176133e+06 Lattice="9.608821e+00 0.000000e+00 0.000000e+00 -4.805517e+00 8.321358e+00 0.000000e+00 -9.837829e-04 4.784239e-03 1.556659e+01" Stress="3.853910e-05 -3.663111e-05 -2.519055e-06 -3.678859e-05 8.137442e-05 2.309147e-04 -6.972733e-06 2.357158e-04 -1.425844e-04" Properties=species:S:1:pos:R:3:forces:R:3 Config_type=AlGaN_super3_38_2_8.xyz
Al 1.581102e+00 8.893399e-01 2.414286e+00 -9.431544e-05 -9.041107e-05 2.184745e-05
Al 1.569478e+00 8.984619e-01 7.648901e+00 5.229522e-05 -4.115323e-05 1.532181e-04
Al 1.580290e+00 8.778043e-01 -2.728812e+00 4.584859e-05 -2.297588e-04 1.602559e-04
Al -1.808020e-02 3.650723e+00 2.445409e+00 -1.336126e-05 -5.464978e-05 -8.710836e-05
Al -1.487697e-02 3.651590e+00 7.646661e+00 -4.276262e-05 -3.145299e-05 1.386816e-04
Ga -2.581509e-02 3.640006e+00 -2.751215e+00 3.223496e-06 -5.156435e-05 3.081019e-04
Ga 3.182087e+00 -1.875142e+00 2.428332e+00 1.330653e-04 -1.980892e-04 2.463868e-04
Ga 3.194883e+00 -1.883716e+00 7.629092e+00 2.088286e-04 -6.385100e-05 3.169442e-04
Ga 3.167231e+00 -1.878041e+00 -2.719911e+00 -2.854864e-05 -9.649164e-05 3.577546e-04
Ga -4.832692e+00 8.853429e-01 2.428850e+00 2.203036e-04 -9.969719e-05 5.326287e-04
Ga -4.828173e+00 8.767508e-01 7.616785e+00 2.667673e-04 -7.864767e-05 4.833419e-04
Al -4.834553e+00 8.914832e-01 -2.709730e+00 -9.367467e-06 -1.132785e-04 3.620534e-04
Ga -6.445263e+00 3.642479e+00 2.430123e+00 -3.546458e-05 -1.784903e-05 2.490714e-04
Ga -6.446261e+00 3.657137e+00 7.642320e+00 6.869734e-05 -3.648126e-05 3.441519e-04
Ga -6.418818e+00 3.643200e+00 -2.729652e+00 1.687751e-05 -1.046187e-04 2.268526e-04
Ga -3.241762e+00 -1.888935e+00 2.444132e+00 -2.005458e-06 -1.087243e-04 2.098310e-04
Al -3.239289e+00 -1.889457e+00 7.626575e+00 -2.166687e-06 3.157024e-05 7.252422e-06
Ga -3.224498e+00 -1.881955e+00 -2.725050e+00 8.513779e-05 -7.478777e-05 4.043048e-04
Ga -1.622813e+00 9.040920e-01 2.441277e+00 2.135955e-04 -1.192707e-04 2.699798e-04
Ga -1.617462e+00 8.968940e-01 7.641808e+00 1.332924e-04 -1.799028e-04 3.598047e-04
Ga -1.618105e+00 8.924103e-01 -2.743161e+00 1.559539e-04 -1.846123e-04 3.958198e-04
Ga -3.218373e+00 3.646972e+00 2.443034e+00 1.758992e-04 -2.196640e-04 7.493843e-05
Ga -3.219228e+00 3.652745e+00 7.631492e+00 7.814999e-05 -2.274470e-04 3.543273e-04
Al -3.233350e+00 3.653224e+00 -2.725054e+00 7.858003e-05 -5.251420e-05 -6.498875e-06
Ga -9.726879e-03 -1.871873e+00 2.436033e+00 5.328624e-05 -1.791299e-04 1.482748e-04
Ga -2.566328e-02 -1.878520e+00 7.640273e+00 -1.287150e-05 -2.053760e-04 3.859338e-04
Al -7.504099e-03 -1.884559e+00 -2.727377e+00 1.702404e-04 8.885714e-05 1.466378e-04
Ga -1.694590e-02 1.814047e+00 5.033358e+00 -1.225895e-04 1.313460e-04 3.858274e-04
Al -1.048912e-02 1.807315e+00 -5.340333e+00 -9.322373e-05 -1.685104e-04 -1.086368e-04
Ga -7.656368e-03 1.798625e+00 -1.395834e-01 -6.193767e-05 1.291410e-04 1.475339e-04
Ga 3.191226e+00 -3.741896e+00 5.035827e+00 1.477718e-05 -3.021739e-05 2.897036e-04
Ga 3.186891e+00 -3.752828e+00 -5.329932e+00 -1.574401e-04 2.655711e-05 1.929096e-04
Ga 3.174783e+00 -3.738384e+00 -1.492256e-01 3.259609e-05 2.471830e-04 7.082108e-04
Ga 1.591675e+00 -9.466037e-01 5.041269e+00 -1.974446e-04 9.680630e-05 3.506259e-04
Ga 1.573097e+00 -9.468419e-01 -5.317062e+00 -3.515633e-04 -4.310356e-05 3.441569e-04
Al 1.586569e+00 -9.476555e-01 -1.635972e-01 -2.647098e-06 5.645054e-05 -2.182534e-04
Ga 3.181221e+00 1.792916e+00 5.034022e+00 -1.852728e-04 -6.234617e-05 5.150620e-04
Ga 3.166517e+00 1.793548e+00 -5.317991e+00 -4.944402e-05 -6.210011e-05 3.964941e-04
Al 3.184085e+00 1.781472e+00 -1.634937e-01 -2.922217e-05 -1.780893e-04 -2.374312e-04
Ga 6.366083e+00 -3.730307e+00 5.052552e+00 -1.248034e-04 -1.117913e-04 3.111321e-04
Ga 6.373094e+00 -3.740917e+00 -5.352433e+00 3.945773e-05 -1.092375e-04 1.203052e-04
Ga 6.378362e+00 -3.740946e+00 -1.396799e-01 -8.907036e-05 7.744404e-07 2.730320e-04
Al 4.788611e+00 -9.553472e-01 5.042715e+00 1.536396e-04 -9.209946e-05 1.474251e-04
Ga 4.788488e+00 -9.621581e-01 -5.323167e+00 -1.618827e-04 3.591245e-05 3.287086e-04
Al 4.772084e+00 -9.414688e-01 -1.600272e-01 -8.507044e-05 7.792030e-05 -3.385435e-04
Al -3.232560e+00 1.801461e+00 5.038457e+00 1.740544e-04 -7.129393e-05 1.445562e-04
Ga -3.228022e+00 1.808008e+00 -5.307583e+00 -9.001064e-06 6.484614e-06 2.232422e-04
Al -3.245702e+00 1.805458e+00 -1.759374e-01 2.958184e-05 -1.923826e-04 -1.443838e-04
Ga -1.876763e-02 -3.744967e+00 5.034415e+00 -3.655719e-05 -8.150114e-05 1.924562e-04
Ga -1.586625e-02 -3.737596e+00 -5.300002e+00 8.913059e-06 1.734006e-05 1.272719e-04
Ga -1.138769e-02 -3.741976e+00 -1.688322e-01 -1.399208e-05 1.248533e-04 2.077871e-04
Ga -1.643106e+00 -9.538259e-01 5.048460e+00 -2.156972e-04 -4.487351e-05 2.193385e-04
Ga -1.625227e+00 -9.639798e-01 -5.328170e+00 -5.946761e-06 -9.396331e-05 9.640653e-05
Ga -1.622265e+00 -9.585145e-01 -1.573029e-01 -1.064267e-04 8.401057e-05 -2.003216e-04
N 1.579164e+00 8.861381e-01 4.331680e+00 2.725564e-04 -2.260552e-05 3.623364e-05
N 1.537828e+00 9.067197e-01 -5.997216e+00 2.542761e-04 7.749578e-06 -8.265858e-05
N 1.616208e+00 8.629262e-01 -8.023649e-01 -4.242243e-05 3.063572e-05 -1.004421e-04
N -2.103364e-02 3.657516e+00 4.355469e+00 9.437609e-05 2.250441e-06 2.324070e-04
N -2.580817e-02 3.604493e+00 -5.994509e+00 5.298160e-05 1.492029e-04 3.980056e-05
N -2.469789e-02 3.650682e+00 -7.858905e-01 1.355710e-04 1.320729e-05 5.857514e-05
N 3.223327e+00 -1.859698e+00 4.423342e+00 -1.081038e-04 -6.799115e-05 -4.545654e-04
N 3.180264e+00 -1.888553e+00 -5.952606e+00 1.387836e-04 8.848152e-05 -4.014111e-04
N 3.178673e+00 -1.842460e+00 -7.333038e-01 1.429425e-04 -1.422186e-04 -5.434351e-04
N -4.786811e+00 8.609521e-01 4.430965e+00 -9.438401e-05 8.256116e-05 -6.576488e-04
N -4.827220e+00 8.849414e-01 -5.972206e+00 9.442946e-05 -1.318473e-05 -3.373925e-04
N -4.830804e+00 8.852298e-01 -7.788126e-01 7.713115e-05 -5.613425e-05 -3.380287e-04
N -6.438029e+00 3.655072e+00 4.411599e+00 9.013484e-05 7.266143e-05 -2.317547e-04
N -6.422210e+00 3.652003e+00 -5.944042e+00 -8.689188e-05 1.777854e-06 -2.601514e-04
N -6.432450e+00 3.604605e+00 -7.499936e-01 4.950272e-05 2.657864e-04 -2.759115e-04
N -3.271366e+00 -1.864868e+00 4.423159e+00 2.157345e-04 9.235128e-05 -2.468224e-04
N -3.229465e+00 -1.885383e+00 -6.018801e+00 3.907841e-05 8.587621e-05 8.960242e-05
N -3.269577e+00 -1.866942e+00 -7.519655e-01 1.993407e-04 -1.103549e-05 -4.913661e-04
N -1.665563e+00 9.150244e-01 4.427461e+00 1.583191e-04 -3.925783e-05 -3.119395e-04
N -1.588143e+00 9.123201e-01 -5.932072e+00 1.038205e-04 2.513736e-06 -3.149326e-04
N -1.659550e+00 9.151728e-01 -7.634641e-01 1.421850e-04 -7.324113e-05 -3.020181e-04
N -3.224042e+00 3.606814e+00 4.424947e+00 -7.068283e-06 1.989211e-04 -2.101504e-04
N -3.230129e+00 3.652417e+00 -5.961092e+00 9.217649e-05 -5.776072e-05 -1.632331e-04
N -3.223089e+00 3.610590e+00 -8.118937e-01 5.877912e-05 1.691110e-04 1.521669e-04
N -2.076041e-02 -1.879850e+00 4.414331e+00 1.598724e-04 -5.545221e-05 -2.153338e-04
N -2.066517e-02 -1.892806e+00 -5.954128e+00 1.776161e-04 9.673480e-05 -2.031420e-04
N 2.255244e-02 -1.861212e+00 -8.070405e-01 -1.253786e-05 -1.514817e-04 -1.200564e-04
N 2.052536e-02 1.833893e+00 1.847764e+00 -1.379344e-04 -5.509485e-05 -1.987415e-04
N 2.280203e-02 1.836390e+00 7.029051e+00 -1.290426e-04 -3.912788e-05 -5.686642e-04
N 2.846256e-02 1.778635e+00 -3.413457e+00 -1.812500e-04 3.120807e-04 8.537209e-05
N 3.221536e+00 -3.761106e+00 1.838727e+00 -1.850794e-04 1.423643e-04 -6.883579e-04
N 3.229309e+00 -3.764245e+00 7.023419e+00 -2.358622e-04 2.957645e-04 -4.109549e-04
N 3.138328e+00 -3.761701e+00 -3.344471e+00 3.217619e-05 1.677184e-04 -3.011406e-04
N 1.579579e+00 -9.127057e-01 1.763204e+00 -1.461595e-04 1.791378e-04 2.931698e-04
N 1.581946e+00 -9.069939e-01 7.026492e+00 -1.440160e-04 5.237718e-05 -4.690571e-04
N 1.539387e+00 -9.365634e-01 -3.330452e+00 5.225993e-06 6.222526e-05 -3.134072e-04
N 3.141800e+00 1.779529e+00 1.763935e+00 3.768291e-05 6.850698e-05 3.827793e-04
N 3.132981e+00 1.783436e+00 7.019201e+00 -3.860636e-05 6.562616e-05 -4.730381e-04
N 3.178415e+00 1.751193e+00 -3.325688e+00 -6.456960e-05 2.326976e-04 -5.405132e-04
N 6.339214e+00 -3.758680e+00 1.836796e+00 1.275321e-04 -1.436289e-05 -2.583340e-04
N 6.335706e+00 -3.714309e+00 7.047504e+00 1.880819e-04 -8.961361e-05 -3.767066e-04
N 6.385467e+00 -3.736792e+00 -3.375643e+00 -2.455190e-05 6.806938e-05 -2.300878e-04
N 4.781776e+00 -9.573449e-01 1.750137e+00 -1.367409e-04 8.467618e-05 5.805557e-04
N 4.823143e+00 -9.863160e-01 6.962150e+00 -3.845630e-04 7.167639e-05 6.822636e-05
N 4.782650e+00 -9.136458e-01 -3.340269e+00 -1.138134e-04 -6.050309e-05 -4.524403e-04
N -3.231097e+00 1.809589e+00 1.742916e+00 -2.277228e-04 1.192867e-04 2.989460e-04
N -3.224306e+00 1.807542e+00 6.951726e+00 -1.901591e-04 2.210363e-04 4.474205e-05
N -3.274919e+00 1.830355e+00 -3.319448e+00 7.684425e-05 8.485503e-05 -5.152399e-04
N -1.992330e-02 -3.736076e+00 1.812966e+00 -1.881245e-04 5.245699e-06 -3.127940e-04
N -2.480166e-02 -3.737756e+00 7.006883e+00 -5.859346e-05 1.416479e-04 -3.272631e-04
N 2.077181e-02 -3.712734e+00 -3.310041e+00 -1.690021e-04 -6.989573e-05 -2.748603e-04
N -1.625710e+00 -9.607251e-01 1.818466e+00 -1.758215e-04 4.768147e-05 1.958266e-04
N -1.668852e+00 -9.824495e-01 7.031867e+00 1.333732e-04 1.770971e-04 -3.440450e-04
N -1.581540e+00 -9.916533e-01 -3.343243e+00 -3.404688e-04 1.050942e-04 -2.797670e-04
