108
Energy=-1306398.258324 Lattice="9.495866 0.000000 0.000000 -4.752235 8.220967 0.000000 -0.003340 0.002194 15.320862" Stress="-0.000009 -0.000001 -0.000001 -0.000001 -0.000010 0.000002 -0.000001 0.000002 -0.000004" Properties=species:S:1:pos:R:3:forces:R:3
Al 1.566618 0.872474 2.424370 0.000906 0.001939 0.001063
Al 1.566886 0.871302 7.524925 0.000299 0.000731 0.000618
Al 1.550040 0.872364 -2.736865 -0.000113 0.000347 -0.000537
Al -0.029427 3.618920 2.411195 0.002850 0.001684 0.000090
Al -0.024564 3.628474 7.483441 0.004204 -0.003834 0.005424
Ga -0.022590 3.600398 -2.688274 0.000027 0.000015 -0.000322
Al 3.155378 -1.880287 2.426753 -0.001000 0.000530 0.000096
Al 3.151780 -1.853181 7.504948 0.001110 -0.000480 0.000866
Ga 3.140743 -1.863063 -2.712445 0.000146 -0.000013 0.000100
Al -4.765542 0.876995 2.423822 -0.000520 -0.000606 -0.000186
Al -4.792280 0.857043 7.495637 0.002903 0.001601 -0.001711
Ga -4.775082 0.878526 -2.703196 0.000323 0.000229 0.000518
Al -6.340267 3.610395 2.434992 -0.005200 -0.003775 0.001320
Ga -6.359240 3.614407 7.497072 -0.000265 0.000434 0.000188
Al -6.342902 3.619112 -2.717682 -0.000330 -0.000241 -0.000408
Al -3.190158 -1.857250 2.432389 -0.000633 -0.002403 -0.000408
Al -3.212640 -1.866254 7.492658 0.001918 0.000790 -0.000721
Al -3.172161 -1.858725 -2.701203 -0.000174 -0.000053 0.000482
Al -1.622062 0.874748 2.396275 -0.000402 0.000708 0.000880
Ga -1.604859 0.879541 7.511011 -0.000120 -0.000206 0.000251
Al -1.602312 0.869361 -2.694532 0.000295 -0.000054 0.000412
Al -3.188344 3.609657 2.405353 -0.000248 -0.000700 0.000422
Ga -3.188590 3.628117 7.485645 -0.001112 -0.001040 0.000401
Al -3.203291 3.619475 -2.679289 -0.000305 -0.000299 0.000470
Ga -0.032927 -1.871384 2.398155 0.000001 -0.000514 -0.000255
Al -0.012448 -1.867306 7.521449 -0.000880 -0.000569 0.000712
Al -0.026495 -1.872881 -2.698127 0.000115 0.000713 -0.000616
Ga -0.019523 1.803418 4.943257 0.000135 -0.000372 0.000341
Al -0.006780 1.778293 -5.256545 0.000683 0.001685 -0.000257
Ga -0.037191 1.772545 -0.122807 -0.000351 0.000352 -0.002004
Al 3.148439 -3.691164 4.947251 0.000444 -0.000196 0.001630
Ga 3.143480 -3.689551 -5.268638 0.000914 0.000368 -0.000046
Al 3.123613 -3.703165 -0.121191 0.000032 0.000382 -0.000712
Ga 1.579816 -0.960075 4.977608 -0.000336 0.000754 0.000047
Al 1.564497 -0.947334 -5.273370 -0.000071 0.000091 -0.000445
Ga 1.555376 -0.961139 -0.141432 0.000283 -0.000038 -0.000778
Al 3.153046 1.789966 4.953082 -0.000090 0.000255 -0.000295
Al 3.135130 1.775705 -5.266286 -0.000117 -0.000001 -0.000597
Ga 3.141683 1.801053 -0.125888 0.000600 -0.000466 -0.001783
Al 6.305051 -3.688238 4.947555 0.000668 -0.000255 -0.000813
Ga 6.313969 -3.693456 -5.258855 -0.000845 -0.000544 -0.000119
Ga 6.325454 -3.683396 -0.128482 0.000877 0.000752 0.000781
Al 4.725235 -0.949037 4.952375 0.000069 -0.000132 -0.000146
Al 4.721530 -0.945764 -5.282284 -0.000661 -0.000956 0.000017
Ga 4.743201 -0.954205 -0.112205 -0.000600 -0.000486 0.000529
Al -3.211482 1.795702 4.934023 0.000800 -0.000456 0.000178
Ga -3.206195 1.792392 -5.246782 0.000556 -0.000193 0.000618
Al -3.183770 1.802421 -0.136858 0.000175 0.000023 -0.000731
Al -0.022198 -3.705781 4.946924 0.000198 0.000028 0.000252
Al -0.017184 -3.687507 -5.238075 -0.000170 0.000317 0.000026
Al -0.017981 -3.698999 -0.156690 0.000567 -0.001185 0.002694
Ga -1.619382 -0.956765 4.971875 -0.000399 -0.000355 0.000736
Ga -1.594740 -0.959603 -5.250427 -0.000372 -0.000452 0.000087
Al -1.609987 -0.947748 -0.156193 -0.000942 -0.000790 -0.001492
N 1.602765 0.891391 4.323255 -0.000046 0.000234 -0.000019
N 1.560003 0.873999 -5.871131 0.000672 0.000070 -0.000061
N 1.558571 0.875133 -0.825421 0.000117 0.000214 0.000924
N -0.025866 3.666095 4.322095 -0.000938 -0.000013 0.000183
N -0.020767 3.565303 -5.908052 0.000110 0.000437 -0.002052
N -0.064921 3.634023 -0.716974 0.000415 0.000045 0.000650
N 3.185671 -1.892005 4.338696 -0.000519 -0.000376 0.000499
N 3.147443 -1.819476 -5.894171 0.000019 0.000082 -0.000081
N 3.152008 -1.912279 -0.738543 -0.000099 -0.000137 -0.000108
N -4.775820 0.873721 4.344810 0.000734 0.000558 -0.000591
N -4.812148 0.850177 -5.902518 -0.000670 0.001430 0.000902
N -4.736570 0.897647 -0.732324 0.000364 -0.000083 -0.000135
N -6.353921 3.616114 4.361208 -0.000286 -0.000997 -0.000259
N -6.307858 3.591026 -5.842173 0.000209 0.000037 -0.000233
N -6.313727 3.635777 -0.804761 -0.000396 -0.000434 0.000270
N -3.226445 -1.884596 4.341231 0.000092 0.000655 -0.000242
N -3.226933 -1.842687 -5.918318 0.000439 -0.000145 0.000049
N -3.151587 -1.842478 -0.793921 -0.000229 0.000209 0.000640
N -1.651389 0.895760 4.310779 -0.000466 0.000204 -0.000506
N -1.570248 0.903129 -5.844911 -0.000723 -0.000666 -0.000723
N -1.650880 0.855909 -0.770240 0.000670 -0.000123 0.000016
N -3.190055 3.619815 4.337664 0.000646 -0.000131 -0.000013
N -3.235318 3.640296 -5.871529 -0.000431 -0.000566 -0.000305
N -3.191097 3.619363 -0.750002 -0.000584 -0.000146 0.000352
N -0.022381 -1.906604 4.360569 -0.000141 -0.000380 -0.000822
N 0.021704 -1.895265 -5.879712 -0.000419 -0.000570 -0.000190
N -0.062196 -1.893446 -0.767425 0.000125 0.000741 -0.000512
N -0.023534 1.778667 1.856161 0.000901 0.000489 0.001558
N 0.026598 1.806390 6.918543 -0.001573 0.002070 -0.000719
N -0.028560 1.740187 -3.338092 0.000257 0.000565 0.000589
N 3.138016 -3.697228 1.800807 0.000294 0.000291 0.001069
N 3.196611 -3.668062 6.885671 -0.004511 0.002841 -0.006240
N 3.102577 -3.723254 -3.303258 0.000372 0.000683 0.000042
N 1.603476 -0.931484 1.833828 -0.000169 -0.001389 0.000260
N 1.561506 -0.948903 6.961022 0.000324 -0.000841 -0.000660
N 1.519295 -0.933223 -3.347603 -0.000581 -0.001170 0.000847
N 3.142966 1.777260 1.847619 -0.000678 0.004546 0.003188
N 3.135034 1.739648 6.873097 0.000504 -0.000014 -0.000005
N 3.098986 1.810078 -3.347538 0.000692 -0.000224 0.000167
N 6.335423 -3.686158 1.864379 -0.005099 -0.002227 -0.001392
N 6.268778 -3.667932 6.867662 0.000644 0.000037 -0.000253
N 6.347699 -3.666383 -3.281839 0.000115 -0.000364 0.000296
N 4.721541 -0.956611 1.871127 0.002750 0.001006 -0.001169
N 4.719939 -0.948408 6.878786 -0.000036 -0.000353 -0.000432
N 4.772793 -0.974478 -3.366798 -0.000662 -0.000096 0.000018
N -3.190846 1.793054 1.790223 -0.000405 -0.000551 0.001578
N -3.231074 1.766828 6.847228 -0.002271 -0.000943 0.001131
N -3.150185 1.815787 -3.272205 -0.000420 0.000048 -0.000079
N -0.033117 -3.753225 1.782493 0.005293 0.002265 -0.004579
N -0.023318 -3.641346 6.849046 0.000238 -0.000237 -0.000931
N -0.015397 -3.690981 -3.312549 0.000394 0.000180 0.000661
N -1.654436 -0.932152 1.765705 0.000759 0.001388 0.000977
N -1.601755 -0.998212 6.944191 -0.001660 -0.000722 -0.000226
N -1.599491 -0.952774 -3.265025 0.000019 -0.000489 -0.000193
