108
Energy=-619766.065283 Lattice="9.418955 0.000000 0.000000 -4.730715 8.147329 0.000000 -0.005544 0.008521 15.099181" Stress="-0.000010 -0.000000 0.000001 -0.000000 -0.000008 0.000000 0.000001 0.000000 -0.000022" Properties=species:S:1:pos:R:3:forces:R:3
Al 1.530732 0.866742 2.363954 0.002103 -0.000833 -0.000090
Al 1.541505 0.873368 7.398094 0.000952 -0.000175 0.000705
Al 1.555372 0.866192 -2.664247 0.000608 0.001175 0.001078
Al -0.048512 3.573209 2.372514 0.002991 0.002315 -0.002303
Al -0.036188 3.580530 7.398051 0.000858 0.000643 0.000713
Al -0.030453 3.572434 -2.676933 0.001809 0.000786 0.001628
Al 3.121312 -1.850145 2.363475 0.001640 -0.001134 -0.000303
Al 3.128698 -1.846205 7.399015 0.000547 -0.001510 0.000542
Al 3.144515 -1.852805 -2.664693 0.001295 -0.002271 0.000459
Al -4.749482 0.869980 2.366792 0.001860 -0.000712 -0.001431
Al -4.742280 0.869756 7.400015 0.001429 -0.000798 -0.000704
Al -4.734373 0.864350 -2.667054 0.001092 -0.000446 -0.000711
Al -6.310940 3.577514 2.382944 -0.004099 0.003119 -0.005669
Al -6.319104 3.576262 7.398157 -0.000962 0.001163 0.000419
Al -6.301141 3.565885 -2.669790 -0.002093 0.001446 0.000958
Al -3.171399 -1.840973 2.357068 0.002256 0.000692 0.000082
Al -3.175253 -1.851563 7.407524 -0.000964 -0.000940 0.001405
Al -3.155122 -1.840999 -2.673462 0.001147 -0.002880 0.000967
Al -1.612975 0.886939 2.356901 0.001300 -0.003714 -0.000323
Al -1.604890 0.890061 7.410905 -0.001083 0.000069 -0.000226
Al -1.605352 0.876453 -2.669086 0.002743 -0.001285 0.000721
Al -3.183450 3.588402 2.369659 0.001371 -0.000849 -0.001487
Al -3.178492 3.582670 7.400383 0.001293 0.000078 -0.000402
Al -3.165771 3.576472 -2.665459 0.001606 -0.000113 -0.000064
Al -0.019791 -1.843117 2.364299 -0.000637 -0.000651 -0.003194
Ga -0.034272 -1.834306 7.427679 0.002859 -0.000925 -0.000664
Ga -0.017531 -1.843827 -2.647259 0.001651 -0.000967 -0.001469
Al -0.032150 1.774398 4.878925 -0.000665 -0.000479 0.001162
Al -0.019413 1.760792 -5.182388 -0.001255 0.001394 0.000476
Al -0.024912 1.757030 -0.164701 -0.000028 0.002843 0.003342
Al 3.124495 -3.663021 4.886622 -0.001398 0.001517 -0.000848
Al 3.135610 -3.668491 -5.184577 -0.000568 0.000586 -0.000281
Al 3.130332 -3.665770 -0.145032 0.000672 0.000661 -0.003336
Al 1.567331 -0.945405 4.878780 -0.003302 0.001227 -0.000352
Al 1.577548 -0.943005 -5.169336 -0.006034 -0.001062 -0.001556
Al 1.581199 -0.941375 -0.134365 -0.006831 -0.001493 -0.003861
Al 3.103272 1.769844 4.882720 -0.000366 -0.000485 0.000216
Al 3.114155 1.762942 -5.186059 0.000323 0.000923 0.000504
Al 3.126963 1.760718 -0.142757 -0.001890 0.001971 -0.003114
Al 6.254786 -3.666917 4.877327 0.000921 0.001350 0.001541
Al 6.273481 -3.665910 -5.179552 0.000470 0.000747 -0.000239
Ga 6.279485 -3.659171 -0.141674 -0.000525 -0.000325 -0.012641
Al 4.681157 -0.945531 4.881826 -0.000140 0.001383 0.000461
Al 4.700165 -0.951437 -5.182727 -0.000224 0.000803 -0.000128
Al 4.705143 -0.937476 -0.146947 -0.001489 -0.000734 -0.004024
Al -3.180771 1.786184 4.880245 -0.001546 -0.000819 0.001305
Al -3.165190 1.769807 -5.185048 -0.001576 -0.000127 0.000988
Al -3.163385 1.771427 -0.150831 -0.001499 0.000507 -0.002385
Al -0.012959 -3.663775 4.881215 -0.001117 0.001920 0.000326
Al -0.005001 -3.682259 -5.176409 -0.003186 0.006861 -0.000427
Al 0.008410 -3.674906 -0.136174 -0.004767 0.004671 -0.002171
Ga -1.597216 -0.936579 4.879487 -0.001357 0.001576 -0.000450
Al -1.588360 -0.935095 -5.179648 -0.008857 0.003159 0.002128
Al -1.574463 -0.929945 -0.141613 -0.009606 0.002548 0.002507
N 1.532274 0.867220 4.281632 0.001354 0.000145 0.000292
N 1.546420 0.862156 -5.782140 0.000652 -0.000738 -0.000950
N 1.553452 0.865849 -0.743161 0.000287 -0.001157 -0.000802
N -0.043014 3.579028 4.290773 0.001094 0.000620 -0.001732
N -0.026159 3.574742 -5.780415 0.000184 -0.000296 -0.000222
N -0.056604 3.560963 -0.759101 -0.004052 -0.002753 -0.004291
N 3.121475 -1.849787 4.279103 0.000838 -0.001912 0.000499
N 3.131967 -1.854550 -5.782879 -0.001262 -0.001312 -0.000228
N 3.138673 -1.851093 -0.748503 -0.001316 -0.001201 0.001230
N -4.748559 0.869036 4.282048 0.001468 -0.000261 0.001138
N -4.736347 0.861133 -5.782517 0.001272 -0.000017 0.000093
N -4.732210 0.864692 -0.751308 0.001199 0.000505 0.000166
N -6.314723 3.580247 4.290725 -0.001709 0.000880 -0.000253
N -6.307874 3.574159 -5.783086 -0.000239 -0.000122 -0.000381
N -6.267442 3.558028 -0.757676 0.003826 -0.002440 -0.002501
N -3.197875 -1.864579 4.267003 -0.003548 -0.003672 -0.001733
N -3.152783 -1.853481 -5.778706 -0.001209 -0.001112 0.000535
N -3.143572 -1.807026 -0.762529 -0.000930 0.004007 -0.001905
N -1.615315 0.920906 4.266432 0.002349 0.002240 -0.001377
N -1.599781 0.876017 -5.776905 0.001807 -0.000107 -0.000533
N -1.598683 0.871391 -0.749748 0.001024 0.000095 -0.000599
N -3.182384 3.591019 4.282948 0.001838 -0.000638 0.000227
N -3.170498 3.578799 -5.783377 0.001123 0.001122 -0.000644
N -3.165318 3.583053 -0.750401 0.000591 0.000256 0.000395
N 0.007559 -1.857896 4.273847 0.005009 -0.003671 -0.000528
N -0.049963 -1.825562 -5.708490 0.018170 -0.010995 0.000824
N -0.044462 -1.832512 -0.679600 0.017719 -0.007503 0.000173
N -0.032369 1.766745 1.768375 -0.000036 0.001607 -0.002396
N -0.028388 1.770352 6.801070 -0.000846 -0.000120 -0.000461
N -0.018760 1.758505 -3.264391 -0.000585 0.000501 -0.000178
N 3.122486 -3.665606 1.763421 -0.000794 0.001139 0.003975
N 3.125461 -3.662559 6.802670 -0.000809 0.001089 0.000410
N 3.135742 -3.668719 -3.269117 -0.001331 0.001795 0.000103
N 1.558890 -0.948908 1.770019 -0.000842 0.002071 0.002686
N 1.587135 -0.926201 6.792412 0.000095 0.001849 -0.001651
N 1.608257 -0.929843 -3.263321 -0.000352 0.001284 -0.001178
N 3.103835 1.770915 1.764481 -0.000449 0.000805 0.004185
N 3.107607 1.771366 6.799990 0.000243 0.000176 -0.000431
N 3.118380 1.764712 -3.269203 -0.000124 -0.000507 -0.000690
N 6.249386 -3.645220 1.767152 0.004067 -0.007024 0.026726
N 6.261927 -3.659209 6.799294 0.000461 -0.000318 -0.000296
N 6.276328 -3.664306 -3.261514 0.000015 0.000096 0.000324
N 4.685537 -0.938392 1.755239 -0.001140 0.000438 0.004391
N 4.691556 -0.944054 6.800166 -0.001995 0.001195 -0.000633
N 4.703738 -0.947212 -3.268269 -0.002171 0.001258 -0.000550
N -3.182339 1.778514 1.756860 -0.000451 0.000697 0.003417
N -3.172528 1.777510 6.799917 -0.001440 0.000688 -0.000189
N -3.164820 1.771681 -3.266736 -0.001551 0.000377 0.000011
N -0.018330 -3.660610 1.770544 -0.000212 -0.000370 0.003728
N -0.019224 -3.685555 6.794781 -0.000103 -0.003895 -0.001759
N -0.004540 -3.700548 -3.270861 0.000617 -0.002878 -0.001216
N -1.593338 -0.934511 1.772562 -0.001108 0.000731 0.003405
N -1.643773 -0.912829 6.836576 0.000757 0.001775 0.001713
N -1.611456 -0.921204 -3.277151 -0.005185 0.003172 -0.000120
