108
Energy=-1626825.303538 Lattice="9.489086 0.000000 0.000000 -4.752075 8.213939 0.000000 0.000021 0.000319 15.318657" Stress="-0.000134 0.000022 -0.000002 0.000022 -0.000123 0.000001 -0.000002 0.000001 -0.000119" Properties=species:S:1:pos:R:3:forces:R:3
Al 1.559110 0.877924 2.428200 -0.002362 -0.002835 0.001750
Al 1.557508 0.885788 7.515920 0.001831 -0.008949 -0.002749
Al 1.556512 0.872442 -2.746064 0.002256 -0.001440 0.006318
Al -0.056789 3.601100 2.432276 0.048107 -0.017050 0.019403
Al -0.003378 3.612929 7.535031 -0.003111 0.001292 -0.021474
Al -0.009688 3.606489 -2.746422 -0.000767 -0.002171 0.010542
Al 3.170203 -1.878751 2.450792 -0.003673 -0.002565 -0.000008
Al 3.206813 -1.904277 7.590368 -0.016120 0.010443 -0.051122
Ga 3.157176 -1.868367 -2.734133 -0.000266 -0.001018 0.007823
Al -4.795712 0.879552 2.442057 0.002267 -0.005391 0.000825
Ga -4.799967 0.876783 7.508022 -0.000278 -0.006059 -0.003619
Al -4.789315 0.880166 -2.744239 -0.000785 -0.001346 0.007860
Ga -6.355446 3.601341 2.433108 -0.007996 0.004105 0.001602
Al -6.373001 3.617429 7.507868 0.001768 -0.000136 -0.000515
Ga -6.366924 3.610930 -2.746971 0.000898 -0.003330 0.006664
Ga -3.202967 -1.865439 2.431759 0.000525 -0.004901 0.001460
Al -3.179149 -1.881650 7.512387 0.001273 -0.000581 -0.000484
Ga -3.174524 -1.874853 -2.749119 0.001621 0.001048 0.008027
Al -1.634978 0.900104 2.433109 0.007244 -0.001135 -0.001547
Ga -1.622147 0.879013 7.528587 0.006792 -0.002075 -0.003714
Ga -1.628134 0.885853 -2.735407 0.006637 -0.003471 0.004387
Al -3.262299 3.585995 2.453644 0.030817 0.008380 -0.000811
Ga -3.201414 3.634444 7.503162 0.005254 0.004410 -0.004191
Ga -3.206011 3.620375 -2.731699 0.005245 0.001116 0.003715
Ga -0.012929 -1.860924 2.424574 0.004473 0.004174 0.002402
Al -0.035247 -1.860226 7.515054 0.010185 0.000638 -0.003195
Al -0.021353 -1.854607 -2.746140 0.002571 0.001235 0.007801
Ga -0.008051 1.796280 4.984879 -0.003621 0.001424 -0.000607
Ga -0.002867 1.790740 -5.283054 -0.005894 -0.001732 0.002946
Ga -0.014562 1.785192 -0.141439 -0.003432 0.001262 0.000923
Al 3.161190 -3.691737 4.983171 -0.000862 0.000642 -0.004404
Ga 3.176498 -3.695825 -5.296219 -0.003911 -0.004519 0.006896
Ga 3.153704 -3.699286 -0.131514 0.003788 -0.001513 0.006359
Ga 1.598396 -0.971228 4.994775 -0.002019 0.003268 0.003445
Ga 1.583097 -0.960193 -5.295257 -0.008893 0.003889 0.001715
Al 1.584394 -0.964481 -0.187837 -0.005915 0.003740 0.011347
Al 3.121388 1.797350 4.990405 0.002506 -0.000893 -0.000462
Al 3.125000 1.789426 -5.286027 -0.001097 0.003426 0.004614
Ga 3.136168 1.789635 -0.137562 -0.001324 -0.000839 -0.005939
Al 6.310974 -3.687042 4.995381 -0.005940 -0.005434 0.000378
Al 6.317773 -3.690232 -5.280363 -0.000441 -0.000126 -0.006996
Al 6.311958 -3.692777 -0.182365 -0.003730 -0.002086 0.015374
Al 4.732312 -0.970806 4.990369 -0.004980 0.003720 0.000333
Ga 4.739356 -0.958071 -5.290028 0.004144 0.003296 0.004176
Ga 4.739629 -0.955694 -0.126904 -0.002669 0.003924 -0.004095
Ga -3.218336 1.799970 4.972664 -0.000565 -0.001297 -0.000796
Ga -3.215151 1.790866 -5.275155 0.001950 0.000103 0.001488
Al -3.214311 1.799191 -0.174856 -0.000007 -0.001434 0.010814
Al -0.033107 -3.686617 4.995152 -0.000873 -0.001112 0.001994
Ga -0.040577 -3.678156 -5.288592 -0.002274 0.000125 0.001262
Al -0.024096 -3.684779 -0.181719 -0.001479 0.001733 0.007186
Ga -1.609901 -0.971377 4.998256 -0.001457 0.006048 -0.000814
Al -1.594823 -0.961180 -5.289304 -0.003013 0.002831 0.003160
Ga -1.591562 -0.964920 -0.126520 -0.000928 0.004848 -0.011603
N 1.590201 0.890948 4.359473 0.003158 -0.001616 -0.010562
N 1.583741 0.892421 -5.900819 0.008027 -0.000852 -0.003982
N 1.557918 0.848965 -0.811440 0.000713 -0.010332 -0.003976
N -0.022656 3.644168 4.371213 0.002493 0.003676 -0.004054
N 0.015694 3.622136 -5.936419 0.005068 0.005458 0.011041
N 0.006348 3.624245 -0.809585 0.004949 0.001989 -0.008946
N 3.190642 -1.892538 4.382666 0.002554 -0.001529 -0.011624
N 3.160307 -1.872263 -5.939554 0.001126 -0.000987 0.024450
N 3.137977 -1.860086 -0.769655 -0.006647 0.002438 0.002444
N -4.819431 0.863303 4.379829 -0.004042 -0.007353 -0.007399
N -4.815583 0.894988 -5.871745 -0.005114 -0.000552 0.002133
N -4.761812 0.895348 -0.808439 0.008639 -0.000317 -0.004329
N -6.358930 3.615320 4.418089 0.002087 0.000369 0.001488
N -6.385370 3.596446 -5.891023 -0.004190 -0.004966 -0.003105
N -6.360020 3.639975 -0.770392 0.002844 0.006901 0.004209
N -3.214013 -1.894926 4.409223 -0.002433 0.001406 -0.002088
N -3.147886 -1.883646 -5.890741 0.003516 -0.003512 -0.001832
N -3.175091 -1.899387 -0.773707 -0.000021 -0.004778 0.000395
N -1.631059 0.885674 4.359171 0.005812 -0.004843 -0.012186
N -1.628439 0.856087 -5.854119 0.005536 -0.007612 0.006180
N -1.655167 0.899467 -0.768805 -0.001500 0.000889 0.005604
N -3.211149 3.653062 4.383722 0.002673 0.008284 -0.009403
N -3.200093 3.625322 -5.878400 0.004561 0.000965 0.000940
N -3.228071 3.606366 -0.768080 -0.000698 -0.002690 0.010874
N -0.024681 -1.893538 4.398329 0.003641 -0.005407 -0.005081
N -0.052318 -1.844287 -5.905742 0.000348 0.004014 -0.003321
N -0.000177 -1.873702 -0.802085 0.010106 -0.003781 -0.001063
N -0.021522 1.804773 1.850307 -0.002972 -0.012347 0.002440
N 0.009630 1.801870 6.948285 -0.000905 0.002854 0.002054
N 0.008928 1.802029 -3.324975 0.001495 0.001599 0.004024
N 3.331370 -3.703015 1.871221 -0.086016 0.023761 -0.016238
N 3.185959 -3.669283 6.879789 0.004687 -0.004127 0.008251
N 3.188445 -3.714228 -3.337234 0.000890 -0.002979 0.000208
N 1.611049 -0.936489 1.810065 0.002672 -0.001854 -0.011356
N 1.571077 -0.954216 6.956301 0.004483 -0.002890 0.010998
N 1.558416 -0.952216 -3.332376 -0.009974 0.005732 0.002733
N 3.130384 1.756946 1.811652 0.001263 -0.005853 0.008559
N 3.101324 1.806957 6.902277 -0.005659 0.005088 -0.004811
N 3.131141 1.760604 -3.361008 -0.000737 -0.007244 -0.003277
N 6.271535 -3.711201 1.798046 0.002518 -0.003839 -0.013871
N 6.307142 -3.691959 6.920554 0.000435 0.000803 -0.003153
N 6.277598 -3.710353 -3.392289 -0.005519 -0.001757 -0.001347
N 4.681736 -0.940029 1.829207 0.001897 0.012565 0.006096
N 4.740428 -0.997398 6.902220 -0.000226 -0.001185 0.002068
N 4.737267 -0.927490 -3.336999 -0.002162 0.009065 0.000680
N -3.214384 1.795372 1.835730 -0.002227 -0.002003 -0.011235
N -3.206858 1.795521 6.915646 0.001130 -0.000960 -0.001698
N -3.235138 1.781289 -3.334933 -0.005194 -0.003311 0.004011
N 0.003968 -3.704398 1.795124 0.003850 -0.000819 -0.016800
N -0.056132 -3.670152 6.910095 -0.007890 0.003054 -0.003468
N -0.030047 -3.653100 -3.339813 0.000113 0.007561 0.003724
N -1.605250 -0.918674 1.801679 -0.001204 0.008725 0.013213
N -1.601693 -0.987574 6.951523 -0.004056 -0.001507 0.000804
N -1.570878 -0.972031 -3.369611 0.004634 0.000923 -0.005258
