108
Energy=-1809928.794276 Lattice="9.561323 0.000000 0.000000 -4.781615 8.279555 0.000000 -0.002121 0.000109 15.470357" Stress="0.000000 -0.000000 0.000000 -0.000000 0.000000 0.000000 -0.000000 0.000000 -0.000000" Properties=species:S:1:pos:R:3:forces:R:3
Al 1.579026 0.894751 2.443349 0.000009 0.000002 0.000043
Al 1.581576 0.885566 7.581734 0.000041 -0.000011 0.000009
Ga 1.569087 0.875866 -2.728410 0.000028 -0.000006 0.000008
Al -0.026318 3.643124 2.442310 -0.000001 0.000015 0.000026
Al -0.010471 3.651307 7.572204 -0.000001 0.000006 0.000020
Ga -0.016354 3.642225 -2.722229 0.000017 -0.000001 0.000047
Al 3.178427 -1.880871 2.435241 0.000004 0.000016 0.000098
Ga 3.172087 -1.877447 7.579475 0.000014 -0.000008 0.000025
Al 3.165760 -1.876380 -2.720531 0.000019 -0.000005 0.000068
Al -4.821246 0.875664 2.430166 0.000035 0.000027 0.000035
Al -4.812338 0.879020 7.584680 0.000027 -0.000008 0.000026
Ga -4.798648 0.876966 -2.722640 0.000046 -0.000009 0.000027
Al -6.413521 3.618927 2.473305 0.000009 0.000021 0.000056
Ga -6.423324 3.630667 7.577326 -0.000008 -0.000023 0.000026
Al -6.400733 3.647041 -2.755816 0.000019 -0.000001 0.000011
Ga -3.219038 -1.876536 2.441599 0.000009 -0.000003 0.000072
Al -3.208859 -1.888772 7.579026 -0.000005 0.000005 0.000017
Ga -3.211729 -1.883961 -2.731897 0.000014 0.000001 0.000037
Al -1.610962 0.883026 2.463034 0.000034 -0.000008 0.000062
Ga -1.624254 0.872164 7.588231 0.000072 -0.000023 0.000036
Al -1.622554 0.879173 -2.758132 0.000046 -0.000022 0.000015
Ga -3.192220 3.641719 2.430991 0.000028 0.000019 0.000037
Ga -3.202355 3.631237 7.597269 0.000072 -0.000024 0.000029
Ga -3.212244 3.635403 -2.729317 0.000026 -0.000030 0.000043
Ga -0.024927 -1.866683 2.445330 0.000008 -0.000021 0.000050
Ga -0.031947 -1.864910 7.611388 0.000049 -0.000037 0.000037
Ga -0.020367 -1.878519 -2.758092 0.000026 -0.000029 -0.000002
Ga -0.013793 1.813747 5.005854 0.000029 0.000048 0.000030
Ga -0.023282 1.797061 -5.330205 0.000012 0.000051 0.000029
Ga -0.041327 1.803318 -0.116997 0.000002 0.000046 0.000026
Al 3.184852 -3.718239 5.006398 0.000014 0.000026 -0.000004
Ga 3.165001 -3.717835 -5.302416 -0.000000 0.000049 0.000062
Al 3.175926 -3.699737 -0.141536 -0.000002 0.000042 0.000031
Ga 1.575891 -0.953214 4.997694 -0.000038 0.000077 0.000021
Al 1.566958 -0.961708 -5.307473 0.000006 0.000029 0.000030
Ga 1.596579 -0.971447 -0.125903 -0.000053 0.000072 0.000013
Al 3.159413 1.798767 5.004091 -0.000205 -0.000028 0.000045
Ga 3.169997 1.805781 -5.316441 0.000014 0.000007 0.000032
Ga 3.167835 1.808304 -0.127015 0.000021 0.000048 0.000026
Al 6.343269 -3.721069 5.004178 -0.000115 -0.000051 -0.000045
Al 6.363672 -3.709814 -5.324065 0.000019 0.000010 0.000022
Ga 6.349763 -3.722942 -0.124208 0.000042 0.000025 0.000060
Ga 4.763618 -0.961155 5.016110 -0.000013 -0.000005 0.000023
Ga 4.770872 -0.960890 -5.327152 -0.000015 0.000006 0.000035
Al 4.742437 -0.970139 -0.132001 -0.000001 0.000030 0.000052
Ga -3.218405 1.793016 4.997108 0.000056 0.000003 0.000034
Al -3.213377 1.794412 -5.309857 0.000009 -0.000001 0.000013
Ga -3.200794 1.789390 -0.125820 0.000001 0.000023 0.000039
Ga -0.035250 -3.720982 5.009401 0.000047 0.000040 0.000043
Al -0.029825 -3.716038 -5.306197 0.000017 0.000001 0.000017
Ga -0.030636 -3.726789 -0.138440 0.000024 0.000049 0.000047
Al -1.625781 -0.964592 5.021806 0.000009 0.000022 0.000050
Al -1.619907 -0.967574 -5.311149 -0.000007 0.000004 0.000016
Ga -1.625332 -0.945040 -0.150387 -0.000002 0.000041 0.000031
N 1.610864 0.908409 4.353622 0.000035 -0.000045 0.000002
N 1.576760 0.832270 -5.969863 0.000005 -0.000017 -0.000031
N 1.565553 0.880974 -0.753761 0.000036 -0.000034 -0.000015
N -0.025551 3.690972 4.364701 0.000057 0.000020 0.000035
N 0.020974 3.671285 -5.975684 -0.000009 -0.000035 -0.000043
N -0.060360 3.661525 -0.744362 -0.000004 -0.000008 -0.000030
N 3.171453 -1.928366 4.355918 0.000020 -0.000018 -0.000099
N 3.123342 -1.858448 -5.926341 0.000004 -0.000031 -0.000062
N 3.206563 -1.900684 -0.790965 0.000004 -0.000033 -0.000008
N -4.851919 0.898644 4.346111 0.000117 -0.000054 -0.000050
N -4.764138 0.906619 -5.970512 0.000012 -0.000011 -0.000016
N -4.803122 0.832643 -0.740862 0.000019 -0.000030 -0.000050
N -6.445287 3.611632 4.394424 0.000025 0.000079 -0.000049
N -6.399186 3.686780 -5.914347 -0.000023 -0.000011 -0.000026
N -6.403031 3.642289 -0.838270 -0.000028 -0.000036 -0.000045
N -3.170096 -1.902667 4.420937 -0.000026 -0.000020 -0.000021
N -3.162025 -1.906681 -5.961370 -0.000000 -0.000009 -0.000015
N -3.254134 -1.860352 -0.746108 -0.000016 -0.000028 -0.000056
N -1.612683 0.831097 4.376040 0.000012 -0.000059 -0.000064
N -1.660310 0.852206 -5.905037 0.000027 -0.000027 -0.000030
N -1.617579 0.885816 -0.842594 0.000024 -0.000043 -0.000013
N -3.163542 3.669040 4.405637 -0.000029 -0.000071 -0.000024
N -3.248514 3.616313 -5.888259 0.000005 -0.000036 -0.000036
N -3.168329 3.661541 -0.738504 0.000024 -0.000041 -0.000056
N -0.066830 -1.852638 4.412188 0.000007 -0.000077 -0.000029
N -0.022808 -1.876395 -5.865662 0.000001 -0.000026 -0.000020
N -0.018362 -1.877430 -0.775603 -0.000001 -0.000071 -0.000034
N -0.029268 1.801235 1.881000 -0.000040 0.000005 -0.000061
N 0.017921 1.825232 6.999273 -0.000046 0.000031 -0.000029
N -0.060024 1.780785 -3.351701 -0.000042 0.000031 -0.000019
N 3.212560 -3.688403 1.783509 -0.000022 -0.000009 -0.000032
N 3.206855 -3.745331 6.927220 -0.000038 0.000032 -0.000035
N 3.168398 -3.672218 -3.330543 -0.000025 0.000027 -0.000060
N 1.618703 -0.935224 1.859002 -0.000049 0.000007 -0.000044
N 1.568273 -0.912660 6.971492 -0.000082 0.000037 -0.000037
N 1.620070 -0.980874 -3.387855 -0.000049 0.000030 -0.000017
N 3.163120 1.808831 1.859493 -0.000018 -0.000025 -0.000027
N 3.164162 1.749281 6.936936 0.000009 0.000009 0.000055
N 3.165649 1.842553 -3.341341 -0.000024 0.000004 -0.000017
N 6.356889 -3.771256 1.857482 0.000006 0.000002 -0.000060
N 6.307372 -3.695033 6.928726 0.000017 -0.000003 0.000009
N 6.387557 -3.740641 -3.401423 -0.000018 0.000004 -0.000023
N 4.714248 -0.937675 1.796295 -0.000022 -0.000003 -0.000063
N 4.801900 -0.934591 7.000978 -0.000016 0.000007 -0.000031
N 4.718326 -0.983809 -3.349396 -0.000046 -0.000001 -0.000053
N -3.206159 1.747143 1.859904 -0.000044 -0.000009 -0.000045
N -3.254909 1.774372 6.968716 -0.000038 0.000010 -0.000014
N -3.176211 1.776285 -3.390860 -0.000048 0.000024 -0.000025
N -0.074657 -3.748018 1.844511 -0.000016 -0.000036 -0.000062
N -0.025036 -3.717999 6.976067 -0.000028 0.000020 -0.000029
N -0.060636 -3.746531 -3.389387 -0.000019 0.000015 -0.000026
N -1.619185 -0.904244 1.820292 -0.000020 0.000014 -0.000069
N -1.657607 -0.984907 6.935277 -0.000043 0.000014 -0.000020
N -1.623545 -0.916889 -3.393542 -0.000043 0.000023 -0.000011
