108
Energy=-2.267677e+06 Lattice="9.476278e+00 0.000000e+00 0.000000e+00 -4.738139e+00 8.206697e+00 0.000000e+00 9.377101e-16 1.624162e-15 1.531397e+01" Stress="-7.557802e-02 6.824673e-03 -1.576227e-04 6.819380e-03 -6.789828e-02 -2.688987e-04 -1.584907e-04 -2.839893e-04 -6.927687e-02" Properties=species:S:1:pos:R:3:forces:R:3 Config_type=AlGaN_super3_40_2_0.xyz
Al 1.564294e+00 9.031460e-01 2.504900e+00 -1.562320e-03 -1.428626e-02 -1.243346e-02
Al 1.564294e+00 9.031460e-01 7.521855e+00 -1.055538e-03 -1.494533e-02 -5.122081e-03
Ga 1.564294e+00 9.031460e-01 -2.775158e+00 -2.263028e-03 -1.886265e-02 -6.958457e-03
Al 2.938992e-08 3.612582e+00 2.504900e+00 -2.590774e-03 -1.114757e-03 -1.106439e-02
Ga 2.938992e-08 3.612582e+00 7.521855e+00 -3.300864e-03 -1.552128e-03 -3.176506e-03
Ga 2.938992e-08 3.612582e+00 -2.775158e+00 -3.683707e-03 -1.443059e-03 -2.805140e-03
Ga 3.173845e+00 -1.884678e+00 2.504900e+00 -2.889736e-03 1.247710e-03 -1.278350e-02
Ga 3.173845e+00 -1.884678e+00 7.521855e+00 -3.453353e-03 2.114941e-03 -5.394012e-03
Al 3.173845e+00 -1.884678e+00 -2.775158e+00 -3.333766e-03 1.825114e-03 -4.436961e-03
Ga -4.783396e+00 9.031460e-01 2.504900e+00 6.880499e-04 -1.700338e-02 -1.365697e-02
Al -4.783396e+00 9.031460e-01 7.521855e+00 1.159422e-03 -1.341729e-02 -4.399912e-03
Ga -4.783396e+00 9.031460e-01 -2.775158e+00 4.289230e-04 -1.776755e-02 -4.892416e-03
Ga -6.347690e+00 3.612582e+00 2.504900e+00 -7.685254e-04 2.743019e-04 -1.109114e-02
Ga -6.347690e+00 3.612582e+00 7.521855e+00 -3.882248e-04 -8.342920e-04 -1.314729e-03
Ga -6.347690e+00 3.612582e+00 -2.775158e+00 8.337089e-05 1.822782e-05 -1.678061e-03
Al -3.173845e+00 -1.884678e+00 2.504900e+00 -4.044584e-04 2.264773e-03 -1.095706e-02
Ga -3.173845e+00 -1.884678e+00 7.521855e+00 -7.282688e-04 3.649198e-03 -3.269425e-03
Ga -3.173845e+00 -1.884678e+00 -2.775158e+00 -8.045003e-04 3.850390e-03 -2.551372e-03
Ga -1.654808e+00 9.031460e-01 2.504900e+00 1.660728e-02 -8.966033e-03 -1.641731e-02
Ga -1.654808e+00 9.031460e-01 7.521855e+00 1.618826e-02 -9.287116e-03 -8.281558e-03
Ga -1.654808e+00 9.031460e-01 -2.775158e+00 1.669908e-02 -9.611695e-03 -8.494604e-03
Al -3.219102e+00 3.612582e+00 2.504900e+00 1.252960e-02 5.256001e-03 -1.113030e-02
Ga -3.219102e+00 3.612582e+00 7.521855e+00 1.567511e-02 7.518136e-03 -5.062762e-03
Ga -3.219102e+00 3.612582e+00 -2.775158e+00 1.556846e-02 8.571769e-03 -5.173847e-03
Ga -4.525702e-02 -1.884678e+00 2.504900e+00 1.482028e-02 1.075680e-02 -1.517667e-02
Ga -4.525702e-02 -1.884678e+00 7.521855e+00 1.534746e-02 1.169083e-02 -5.903924e-03
Ga -4.525702e-02 -1.884678e+00 -2.775158e+00 1.544017e-02 1.125682e-02 -6.743745e-03
Ga 1.469567e-08 1.806291e+00 5.013378e+00 -1.519347e-02 -1.085973e-02 -7.326451e-03
Al 1.469567e-08 1.806291e+00 -5.283635e+00 -1.197319e-02 -8.846381e-03 -5.542548e-03
Ga 1.469567e-08 1.806291e+00 -2.666800e-01 -1.506841e-02 -1.102494e-02 4.541266e-02
Al 3.173845e+00 -3.690969e+00 5.013378e+00 -1.215867e-02 -5.021776e-03 -5.228758e-03
Ga 3.173845e+00 -3.690969e+00 -5.283635e+00 -1.547950e-02 -8.510083e-03 -4.808216e-03
Ga 3.173845e+00 -3.690969e+00 -2.666800e-01 -1.517677e-02 -8.225371e-03 4.598599e-02
Al 1.609551e+00 -9.815320e-01 5.013378e+00 -1.344806e-02 7.680466e-03 -6.282319e-03
Ga 1.609551e+00 -9.815320e-01 -5.283635e+00 -1.681964e-02 9.514925e-03 -8.919340e-03
Ga 1.609551e+00 -9.815320e-01 -2.666800e-01 -1.643387e-02 9.533825e-03 4.214511e-02
Ga 3.128588e+00 1.806291e+00 5.013378e+00 3.470467e-04 -3.572847e-03 -3.153590e-03
Ga 3.128588e+00 1.806291e+00 -5.283635e+00 1.387879e-04 -3.440702e-03 -3.605734e-03
Ga 3.128588e+00 1.806291e+00 -2.666800e-01 4.948020e-04 -3.414049e-03 4.899532e-02
Ga 6.302433e+00 -3.690969e+00 5.013378e+00 -5.179415e-04 1.983118e-04 -3.317194e-03
Ga 6.302433e+00 -3.690969e+00 -5.283635e+00 1.928744e-04 -4.091633e-04 -1.813769e-03
Al 6.302433e+00 -3.690969e+00 -2.666800e-01 -2.085127e-05 -3.159858e-05 3.928020e-02
Al 4.738139e+00 -9.815320e-01 5.013378e+00 -1.823802e-03 1.281299e-02 -4.595996e-03
Ga 4.738139e+00 -9.815320e-01 -5.283635e+00 -6.455970e-04 1.743963e-02 -5.323703e-03
Ga 4.738139e+00 -9.815320e-01 -2.666800e-01 -5.412700e-04 1.715091e-02 4.608134e-02
Ga -3.219102e+00 1.806291e+00 5.013378e+00 3.295275e-03 -1.505146e-03 -4.386800e-03
Ga -3.219102e+00 1.806291e+00 -5.283635e+00 3.333815e-03 -1.902801e-03 -4.697173e-03
Al -3.219102e+00 1.806291e+00 -2.666800e-01 3.368311e-03 -1.732722e-03 3.707827e-02
Ga -4.525703e-02 -3.690969e+00 5.013378e+00 3.527869e-03 1.325862e-03 -3.913748e-03
Al -4.525703e-02 -3.690969e+00 -5.283635e+00 3.160942e-03 1.349761e-03 -2.902816e-03
Ga -4.525703e-02 -3.690969e+00 -2.666800e-01 3.274861e-03 1.128985e-03 4.895646e-02
Ga -1.609551e+00 -9.815320e-01 5.013378e+00 1.867195e-03 1.860853e-02 -6.775956e-03
Ga -1.609551e+00 -9.815320e-01 -5.283635e+00 2.438764e-03 1.873338e-02 -6.342468e-03
Ga -1.609551e+00 -9.815320e-01 -2.666800e-01 1.925699e-03 1.863238e-02 4.537225e-02
N 1.564294e+00 9.031460e-01 4.418497e+00 -9.977678e-04 -3.549693e-02 -1.023842e-02
N 1.564294e+00 9.031460e-01 -5.878516e+00 -1.978842e-02 -7.164706e-03 -9.385512e-03
N 1.564294e+00 9.031460e-01 -8.615610e-01 -1.324320e-03 -1.773265e-02 9.358572e-03
N 2.938992e-08 3.612582e+00 4.418497e+00 -2.116170e-02 1.039908e-02 -1.308953e-02
N 2.938992e-08 3.612582e+00 -5.878516e+00 -2.319253e-03 -2.117924e-02 9.999848e-03
N 2.938992e-08 3.612582e+00 -8.615610e-01 1.651537e-02 1.089064e-02 1.286984e-02
N 3.173845e+00 -1.884678e+00 4.418497e+00 -2.657187e-03 1.733821e-03 2.572118e-02
N 3.173845e+00 -1.884678e+00 -5.878516e+00 -2.928374e-03 1.605482e-03 1.923950e-03
N 3.173845e+00 -1.884678e+00 -8.615610e-01 -2.862017e-03 1.599539e-03 -1.739387e-02
N -4.783396e+00 9.031460e-01 4.418497e+00 9.524107e-04 -3.555177e-02 1.358723e-02
N -4.783396e+00 9.031460e-01 -5.878516e+00 3.911791e-04 -1.772942e-02 -1.687065e-02
N -4.783396e+00 9.031460e-01 -8.615610e-01 1.885675e-02 -6.788565e-03 1.706296e-02
N -6.347690e+00 3.612582e+00 4.418497e+00 -4.405692e-04 1.444053e-04 3.558961e-03
N -6.347690e+00 3.612582e+00 -5.878516e+00 1.851871e-02 1.167455e-02 1.002912e-02
N -6.347690e+00 3.612582e+00 -8.615610e-01 -1.941693e-02 1.127777e-02 1.340921e-02
N -3.173845e+00 -1.884678e+00 4.418497e+00 -1.970039e-02 1.329853e-02 -1.341466e-02
N -3.173845e+00 -1.884678e+00 -5.878516e+00 -1.282635e-03 2.086060e-03 2.058328e-03
N -3.173845e+00 -1.884678e+00 -8.615610e-01 -1.086086e-03 -1.976064e-02 1.256570e-02
N -1.654808e+00 9.031460e-01 4.418497e+00 1.687743e-02 -9.811258e-03 1.073779e-02
N -1.654808e+00 9.031460e-01 -5.878516e+00 3.184918e-02 -1.122635e-03 1.647017e-02
N -1.654808e+00 9.031460e-01 -8.615610e-01 -1.627710e-03 9.691678e-04 2.048987e-02
N -3.219102e+00 3.612582e+00 4.418497e+00 3.072969e-02 1.673830e-02 -1.064305e-02
N -3.219102e+00 3.612582e+00 -5.878516e+00 -3.243628e-03 1.976469e-02 1.397267e-02
N -3.219102e+00 3.612582e+00 -8.615610e-01 1.532772e-02 -1.289827e-02 1.656592e-02
N -4.525702e-02 -1.884678e+00 4.418497e+00 3.021758e-02 1.883482e-02 1.250596e-02
N -4.525702e-02 -1.884678e+00 -5.878516e+00 1.482259e-02 -1.181746e-02 1.349695e-02
N -4.525702e-02 -1.884678e+00 -8.615610e-01 1.467387e-02 9.986497e-03 9.681145e-03
N 1.469567e-08 1.806291e+00 1.910020e+00 3.843989e-03 6.064186e-04 -2.473161e-02
N 1.469567e-08 1.806291e+00 6.926975e+00 3.747338e-03 -2.107954e-02 1.418784e-02
N 1.469567e-08 1.806291e+00 -3.370038e+00 -1.459973e-02 -9.899777e-03 -1.715783e-02
N 3.173845e+00 -3.690969e+00 1.910020e+00 -1.264677e-02 -2.817704e-02 -2.513449e-02
N 3.173845e+00 -3.690969e+00 6.926975e+00 -1.538147e-02 -8.528544e-03 -1.662746e-02
N 3.173845e+00 -3.690969e+00 -3.370038e+00 -1.531061e-02 1.333402e-02 1.410793e-02
N 1.609551e+00 -9.815320e-01 1.910020e+00 -1.710856e-02 2.776781e-02 -2.851606e-02
N 1.609551e+00 -9.815320e-01 6.926975e+00 -1.715399e-02 2.706083e-02 -6.902560e-03
N 1.609551e+00 -9.815320e-01 -3.370038e+00 2.233531e-03 -1.141594e-03 1.797709e-02
N 3.128588e+00 1.806291e+00 1.910020e+00 -1.764523e-02 -1.336359e-02 -3.646105e-02
N 3.128588e+00 1.806291e+00 6.926975e+00 8.886553e-04 -2.307453e-02 1.769412e-02
N 3.128588e+00 1.806291e+00 -3.370038e+00 1.272911e-03 -1.929602e-03 2.064639e-03
N 6.302433e+00 -3.690969e+00 1.910020e+00 -1.869546e-02 1.098989e-02 -3.976436e-02
N 6.302433e+00 -3.690969e+00 6.926975e+00 9.917305e-04 -1.873139e-04 2.570925e-03
N 6.302433e+00 -3.690969e+00 -3.370038e+00 7.799457e-04 -4.066403e-04 2.754449e-03
N 4.738139e+00 -9.815320e-01 1.910020e+00 1.848065e-02 7.355602e-03 -3.130198e-02
N 4.738139e+00 -9.815320e-01 6.926975e+00 -3.699555e-04 3.508750e-02 -1.103653e-02
N 4.738139e+00 -9.815320e-01 -3.370038e+00 -1.917866e-02 6.703449e-03 1.390597e-02
N -3.219102e+00 1.806291e+00 1.910020e+00 2.739582e-03 2.000773e-02 -4.867972e-02
N -3.219102e+00 1.806291e+00 6.926975e+00 -1.565207e-02 -1.244149e-02 9.755339e-03
N -3.219102e+00 1.806291e+00 -3.370038e+00 2.843802e-03 -1.771003e-03 2.043798e-03
N -4.525703e-02 -3.690969e+00 1.910020e+00 2.150433e-02 -1.090285e-02 -3.643399e-02
N -4.525703e-02 -3.690969e+00 6.926975e+00 2.106518e-03 3.507678e-04 2.253665e-03
N -4.525703e-02 -3.690969e+00 -3.370038e+00 2.091735e-03 -1.794364e-04 -2.145239e-02
N -1.609551e+00 -9.815320e-01 1.910020e+00 -1.755206e-02 7.424720e-03 -3.234385e-02
N -1.609551e+00 -9.815320e-01 6.926975e+00 1.509166e-03 1.778656e-02 5.926031e-03
N -1.609551e+00 -9.815320e-01 -3.370038e+00 1.291610e-03 1.784172e-02 6.271661e-03
