108
Energy=-1077517.730626 Lattice="9.476070 0.000000 0.000000 -4.738770 8.204263 0.000000 -0.000700 0.000886 15.302022" Stress="-0.000039 0.000027 -0.000001 0.000027 -0.000013 0.000001 -0.000001 0.000001 0.000024" Properties=species:S:1:pos:R:3:forces:R:3
Al 1.560486 0.895543 2.474620 -0.001725 -0.012001 -0.010824
Al 1.560501 0.896965 7.511807 -0.001944 -0.013105 -0.002687
Al 1.560945 0.895274 -2.755233 -0.000390 -0.012528 -0.000760
Al -0.002967 3.608814 2.486034 -0.002702 -0.003066 -0.010989
Al -0.005587 3.612218 7.513145 -0.002107 -0.001888 -0.002165
Al -0.005439 3.605520 -2.759829 -0.002070 -0.000346 -0.001568
Al 3.165012 -1.876278 2.477308 -0.001700 -0.000582 -0.008377
Al 3.168379 -1.879740 7.513465 -0.002507 0.001920 -0.002876
Al 3.167949 -1.881023 -2.763349 -0.002796 0.001059 -0.002602
Al -4.783643 0.895639 2.475544 0.001415 -0.012888 -0.008314
Al -4.786056 0.898526 7.515888 0.004224 -0.012332 -0.001784
Al -4.787478 0.898474 -2.758984 0.002649 -0.010527 -0.001356
Al -6.348919 3.605208 2.459750 0.000544 0.001460 -0.001426
Ga -6.347685 3.610059 7.524039 -0.000271 0.000294 -0.000128
Ga -6.347769 3.609590 -2.763943 0.001375 0.000137 0.002048
Ga -3.173294 -1.883192 2.483010 -0.001769 0.001909 -0.007697
Al -3.175921 -1.876135 7.512796 -0.000057 0.002895 -0.002143
Ga -3.174530 -1.879344 -2.762459 0.000532 0.002483 -0.001400
Ga -1.640167 0.896726 2.466835 0.013575 -0.007140 -0.012022
Al -1.648984 0.901914 7.515347 0.012972 -0.008020 -0.003425
Al -1.646502 0.899809 -2.756532 0.012233 -0.007344 -0.002863
Ga -3.217792 3.613108 2.470241 0.014621 0.007172 -0.009245
Al -3.212512 3.614173 7.517246 0.010957 0.004396 -0.002096
Al -3.212915 3.612570 -2.773155 0.009416 0.005081 0.003139
Al -0.043171 -1.872800 2.482243 0.012041 0.003994 -0.011633
Al -0.042631 -1.874431 7.512660 0.010545 0.007057 -0.002590
Al -0.037892 -1.881169 -2.758492 0.009871 0.006596 -0.001476
Al -0.010274 1.799144 4.998870 -0.006128 -0.004897 -0.001703
Ga -0.002326 1.797292 -5.275525 -0.012209 -0.007703 -0.003487
Al -0.007004 1.800781 -0.219776 -0.007789 -0.006436 0.021480
Ga 3.169991 -3.686927 4.999739 -0.012455 -0.005197 -0.004457
Al 3.171483 -3.688266 -5.277533 -0.010382 -0.004295 -0.002377
Al 3.172567 -3.687642 -0.247662 -0.010925 -0.005697 0.028215
Al 1.601655 -0.974555 4.998500 -0.011431 0.006339 -0.004510
Al 1.605627 -0.978723 -5.276229 -0.012607 0.006709 -0.003803
Al 1.606775 -0.980253 -0.225435 -0.013322 0.007800 0.022536
Ga 3.126197 1.796205 5.001625 0.000611 -0.000868 -0.002348
Al 3.127072 1.796442 -5.276274 0.000061 -0.000955 -0.000068
Al 3.125392 1.789237 -0.212582 -0.000230 0.002556 0.021530
Al 6.302304 -3.685792 5.004960 -0.000935 0.000904 -0.002625
Al 6.302768 -3.686132 -5.283872 -0.001167 0.000629 0.001602
Al 6.298450 -3.692624 -0.245005 0.001031 -0.001180 0.029533
Al 4.734642 -0.966608 5.000616 -0.001343 0.006796 -0.003452
Al 4.733915 -0.976884 -5.277303 -0.000859 0.010755 -0.002769
Al 4.734745 -0.979005 -0.246307 -0.001284 0.012014 0.028814
Ga -3.206904 1.796175 4.999618 0.002029 -0.001022 -0.002261
Ga -3.215643 1.799411 -5.274256 0.002028 -0.000635 -0.001544
Ga -3.212954 1.806247 -0.227690 0.001922 -0.001633 0.031700
Ga -0.045400 -3.683391 5.002809 0.001116 0.000957 -0.000993
Al -0.039056 -3.682611 -5.278835 0.001158 0.000981 -0.000561
Al -0.034169 -3.679648 -0.191595 -0.000990 -0.002522 0.015905
Al -1.608772 -0.963700 5.001361 0.001061 0.008404 -0.002656
Al -1.605957 -0.967761 -5.277690 0.000736 0.007268 -0.002235
Ga -1.603448 -0.975679 -0.224421 0.001469 0.014577 0.030044
N 1.554186 0.894120 4.399728 -0.017323 -0.020507 -0.006018
N 1.566421 0.892989 -5.873507 0.015955 -0.021676 -0.004052
N 1.558793 0.894459 -0.827620 0.000645 -0.012012 0.004070
N 0.000878 3.608656 4.404240 0.014436 -0.011645 -0.006006
N -0.003609 3.613981 -5.874616 -0.002122 0.018139 -0.005810
N -0.005538 3.607357 -0.840075 -0.001333 0.000699 0.003268
N 3.167915 -1.871571 4.400070 -0.002785 0.020199 -0.005478
N 3.169702 -1.881322 -5.872101 -0.002121 0.001227 0.000732
N 3.169948 -1.880961 -0.841782 -0.002024 0.001307 0.003684
N -4.779236 0.885346 4.397593 0.001174 -0.026185 -0.010274
N -4.787901 0.894415 -5.871819 -0.014998 -0.021155 -0.003388
N -4.786172 0.896178 -0.835508 -0.015009 -0.021711 -0.000528
N -6.357402 3.614202 4.409862 -0.013461 0.008253 -0.019302
N -6.350303 3.611805 -5.852749 0.001732 -0.000917 0.018578
N -6.349899 3.611553 -0.838435 0.002755 -0.001046 0.029926
N -3.173452 -1.874406 4.410357 -0.000085 0.002067 0.022298
N -3.174012 -1.876395 -5.872855 -0.000679 0.001505 0.000751
N -3.176356 -1.882745 -0.835514 -0.017234 -0.007580 0.018597
N -1.623814 0.896016 4.400004 0.022752 -0.014676 0.016958
N -1.649353 0.879847 -5.868100 0.014398 -0.018827 -0.008419
N -1.638493 0.905237 -0.836028 0.025275 -0.001681 -0.003947
N -3.218244 3.612204 4.399655 0.012978 0.006002 0.003683
N -3.212432 3.616963 -5.872011 0.010909 0.023194 -0.002377
N -3.213987 3.619583 -0.836428 0.010312 0.024400 -0.001594
N -0.043568 -1.868325 4.402917 0.009964 0.024009 -0.005738
N -0.040994 -1.874778 -5.872833 0.010160 0.006048 0.003002
N -0.034708 -1.882770 -0.828807 0.026495 -0.002982 -0.003072
N 0.002896 1.799788 1.823850 0.003908 0.003138 -0.017195
N -0.004917 1.802262 6.917554 -0.009942 -0.005934 0.002625
N -0.002935 1.798881 -3.351170 -0.010197 -0.006307 0.023380
N 3.179398 -3.689527 1.886943 0.001441 0.003790 -0.030724
N 3.169072 -3.688314 6.923367 -0.011295 -0.004984 0.023563
N 3.170954 -3.690375 -3.360679 -0.010337 -0.005021 0.004403
N 1.600305 -0.976871 1.868225 -0.011654 0.006535 -0.018242
N 1.603226 -0.976488 6.916929 -0.012091 0.006587 0.004928
N 1.604398 -0.978994 -3.356437 -0.012071 0.007420 0.005604
N 3.127014 1.796933 1.866490 0.001957 -0.001351 -0.022997
N 3.129509 1.792590 6.927456 0.000016 -0.018502 0.012643
N 3.126122 1.795698 -3.358303 0.000396 -0.021560 -0.006338
N 6.298317 -3.700161 1.892668 0.001422 -0.017996 -0.035282
N 6.297294 -3.685490 6.920165 -0.016003 0.009305 -0.005060
N 6.295615 -3.692172 -3.364389 -0.017158 -0.009778 -0.011756
N 4.730642 -0.976874 1.887857 -0.016936 0.022318 -0.032749
N 4.733794 -0.974057 6.918389 -0.001097 0.011739 0.003334
N 4.730869 -0.973753 -3.360129 -0.018058 0.021507 -0.002798
N -3.218210 1.797289 1.870722 -0.013839 -0.011010 -0.025258
N -3.210928 1.804061 6.926697 0.000113 -0.001036 0.019573
N -3.212841 1.801451 -3.348882 0.001065 -0.001729 0.020540
N -0.041703 -3.684695 1.832921 -0.016908 0.010356 -0.021625
N -0.037183 -3.685531 6.927216 0.017985 0.009867 0.014127
N -0.037226 -3.685461 -3.362616 0.018389 0.009773 -0.006100
N -1.602976 -0.984325 1.862346 0.016685 0.006967 -0.019556
N -1.608197 -0.971610 6.918253 0.000375 0.011600 0.002661
N -1.601278 -0.973134 -3.358081 0.016967 0.021524 -0.003495
