108
Energy=-1764153.183986 Lattice="9.558766 0.000000 0.000000 -4.785655 8.274700 0.000000 -0.002832 -0.002556 15.460207" Stress="0.000003 -0.000002 -0.000000 -0.000002 0.000001 -0.000001 -0.000000 -0.000001 0.000004" Properties=species:S:1:pos:R:3:forces:R:3
Al 1.576608 0.878258 2.433279 0.000026 0.000124 0.000106
Al 1.577669 0.888796 7.567331 -0.000217 -0.000037 0.000085
Al 1.564974 0.885990 -2.728812 0.000245 0.000034 0.000490
Al -0.025698 3.631127 2.449723 0.000014 0.000199 0.000142
Al -0.007292 3.632636 7.576231 -0.000015 0.000305 0.000115
Al -0.022523 3.622896 -2.748950 -0.000033 -0.000002 0.000538
Al 3.145500 -1.881622 2.429227 0.000059 -0.000055 0.000276
Al 3.160440 -1.874617 7.582992 -0.000030 -0.000095 0.000335
Ga 3.154963 -1.886450 -2.723942 0.000067 -0.000010 0.000317
Ga -4.819311 0.901090 2.450507 0.000263 -0.000128 0.000018
Ga -4.830453 0.888446 7.570562 0.000479 -0.000040 0.000194
Ga -4.826478 0.887123 -2.729697 0.000178 -0.000092 0.000258
Al -6.408253 3.621664 2.449710 0.000065 0.000129 0.000047
Al -6.418182 3.627056 7.566650 0.000003 0.000048 -0.000244
Ga -6.406050 3.626454 -2.737305 -0.000030 -0.000029 0.000231
Ga -3.211628 -1.896836 2.456029 0.000125 0.000009 -0.000027
Ga -3.221939 -1.907051 7.587439 -0.000002 -0.000065 -0.000038
Ga -3.209363 -1.893747 -2.744289 -0.000112 0.000020 0.000095
Al -1.610740 0.900315 2.444421 0.000104 -0.000090 -0.000076
Ga -1.605436 0.900313 7.588776 0.000208 -0.000168 0.000343
Ga -1.595467 0.896828 -2.733265 0.000451 -0.000240 -0.000204
Al -3.206887 3.637048 2.461552 -0.000028 0.000045 0.000033
Ga -3.217259 3.645230 7.553264 0.000040 -0.000000 0.000267
Al -3.206954 3.650420 -2.722683 0.000056 -0.000168 0.000197
Ga 0.004933 -1.875894 2.449579 0.000240 -0.000013 0.000242
Ga -0.001616 -1.884116 7.551179 0.000025 -0.000197 0.000169
Al -0.004427 -1.875900 -2.707445 0.000072 -0.000108 0.000262
Ga -0.007325 1.797661 4.989809 -0.000195 0.000241 0.000502
Al 0.009098 1.813277 -5.312959 -0.000221 0.000156 0.000127
Ga -0.000014 1.794471 -0.124943 -0.000007 0.000166 0.000183
Ga 3.163554 -3.710941 4.999088 -0.000052 0.000104 0.000154
Ga 3.193329 -3.721565 -5.314252 -0.000110 0.000293 0.000238
Ga 3.165988 -3.723143 -0.127398 -0.000018 0.000259 -0.000137
Al 1.587598 -0.950245 5.007917 0.000103 0.000053 -0.000003
Ga 1.585703 -0.933361 -5.304089 -0.000449 0.000103 0.000483
Al 1.577406 -0.943762 -0.149621 -0.000410 0.000318 0.000258
Al 3.151685 1.815645 5.006369 -0.000255 -0.000250 -0.000315
Al 3.139820 1.801845 -5.327434 0.000257 0.000012 0.000088
Al 3.142570 1.791149 -0.131659 -0.000081 0.000001 0.000780
Al 6.364033 -3.740077 5.012381 0.000335 -0.000086 -0.000045
Al 6.347319 -3.736868 -5.321479 0.000093 0.000084 0.000039
Ga 6.350161 -3.738075 -0.133521 0.000318 -0.000004 0.000399
Ga 4.738912 -0.954897 5.007824 -0.000092 0.000003 -0.000021
Al 4.751687 -0.959496 -5.319124 -0.000104 0.000103 0.000018
Ga 4.743363 -0.953638 -0.122158 -0.000220 0.000001 -0.000058
Al -3.220320 1.809985 4.990990 -0.000000 0.000071 0.000082
Ga -3.221517 1.799034 -5.293208 -0.000242 -0.000150 0.000271
Ga -3.219762 1.810609 -0.129667 0.000015 -0.000128 -0.000236
Al -0.036306 -3.734484 4.989670 0.000221 -0.000558 0.000047
Ga -0.036136 -3.722017 -5.296386 -0.000019 -0.000099 0.000286
Ga -0.016993 -3.721269 -0.133622 -0.000156 0.000080 -0.000025
Ga -1.610163 -0.956852 5.005366 -0.000410 0.000318 0.000034
Ga -1.613788 -0.961284 -5.296655 -0.000438 0.000009 -0.000048
Ga -1.599209 -0.958959 -0.133549 -0.000224 -0.000069 -0.000090
N 1.617482 0.851576 4.357523 0.000143 0.000131 0.000108
N 1.570742 0.926408 -5.970093 -0.000067 -0.000018 -0.000161
N 1.609419 0.860250 -0.791939 0.000474 -0.000088 -0.000687
N 0.015605 3.663616 4.357516 -0.000141 -0.000095 -0.000266
N 0.020531 3.612409 -5.961262 0.000031 -0.000144 -0.000078
N -0.026540 3.630543 -0.826720 -0.000140 -0.000044 0.000050
N 3.117424 -1.854490 4.340378 -0.000256 0.000005 -0.000160
N 3.200256 -1.855510 -5.958982 -0.000018 0.000014 -0.000297
N 3.125892 -1.861258 -0.746345 -0.000082 -0.000013 -0.000148
N -4.814913 0.934444 4.429937 0.000109 0.000010 -0.000035
N -4.850699 0.863240 -5.901552 0.000408 -0.000111 -0.000257
N -4.852854 0.904973 -0.742273 0.000180 0.000230 -0.000223
N -6.405936 3.634242 4.378323 0.000135 -0.000234 -0.000447
N -6.437424 3.616048 -5.958249 -0.000019 0.000046 0.000024
N -6.399112 3.585022 -0.756562 0.000116 -0.000115 -0.000459
N -3.211193 -1.931525 4.424599 0.000086 -0.000130 -0.000092
N -3.246579 -1.907808 -5.887585 -0.000107 -0.000022 0.000005
N -3.210291 -1.883363 -0.763934 -0.000053 0.000155 0.000169
N -1.657927 0.908873 4.355873 0.000219 -0.000066 -0.000242
N -1.573469 0.913818 -5.892731 0.000512 -0.000145 -0.000018
N -1.612844 0.888302 -0.761888 0.000318 -0.000061 0.000225
N -3.254057 3.619944 4.380381 0.000104 -0.000121 -0.000230
N -3.215225 3.643297 -5.939009 0.000136 -0.000158 -0.000256
N -3.210667 3.642696 -0.813871 0.000088 -0.000107 0.000151
N 0.030822 -1.900187 4.434319 -0.000043 0.000140 -0.000231
N -0.010813 -1.877416 -5.940478 0.000293 -0.000200 -0.000309
N 0.024485 -1.856288 -0.783486 0.000386 -0.000223 0.000026
N -0.016071 1.798482 1.871911 -0.000257 0.000118 -0.000163
N 0.020949 1.821256 6.973735 -0.000198 0.000034 -0.000181
N 0.029508 1.821391 -3.381825 -0.000037 0.000190 -0.000321
N 3.166316 -3.724924 1.871624 -0.000117 0.000021 0.000083
N 3.214330 -3.692210 6.988733 0.000025 0.000032 -0.000264
N 3.171904 -3.767600 -3.327011 0.000029 0.000101 -0.000256
N 1.611828 -0.929246 1.777551 -0.000109 0.000065 -0.000315
N 1.623568 -0.928565 6.934366 -0.000028 0.000033 0.000057
N 1.534232 -0.930657 -3.318350 -0.000413 0.000288 -0.000376
N 3.113357 1.824783 1.794429 -0.000118 -0.000201 -0.000431
N 3.112078 1.827286 6.927972 0.000078 0.000150 0.000212
N 3.111273 1.773820 -3.408107 -0.000114 0.000080 0.000008
N 6.350790 -3.772484 1.846119 -0.000027 -0.000169 -0.000417
N 6.352292 -3.772137 6.934003 0.000001 -0.000098 0.000157
N 6.312157 -3.749574 -3.401342 -0.000022 -0.000100 -0.000306
N 4.717632 -0.979527 1.851213 -0.000228 0.000143 -0.000050
N 4.714526 -0.983161 6.978036 -0.000291 -0.000071 -0.000178
N 4.752970 -0.959134 -3.404466 -0.000272 0.000022 -0.000194
N -3.172018 1.827849 1.851842 0.000035 0.000229 0.000141
N -3.211680 1.795464 6.902654 -0.000012 -0.000028 -0.000353
N -3.216930 1.847754 -3.322070 0.000014 0.000090 0.000125
N -0.020780 -3.768440 1.857771 -0.000075 -0.000029 -0.000001
N -0.073508 -3.749223 6.908349 -0.000158 -0.000040 -0.000119
N 0.016620 -3.691431 -3.308829 0.000154 0.000145 -0.000128
N -1.609395 -0.914195 1.848138 -0.000153 0.000105 -0.000025
N -1.619757 -0.954248 6.971238 -0.000242 -0.000051 -0.000135
N -1.566452 -0.984150 -3.321580 -0.000166 -0.000098 0.000083
