108
Energy=-1626826.672004 Lattice="9.551483 0.000000 0.000000 -4.795992 8.264216 0.000000 -0.084363 0.008272 15.397524" Stress="0.000008 -0.000007 -0.000020 -0.000007 0.000003 0.000002 -0.000020 0.000002 0.000000" Properties=species:S:1:pos:R:3:forces:R:3
Al 1.558098 0.868553 2.433023 -0.000207 0.001360 0.000624
Al 1.517525 0.879776 7.537091 -0.001103 0.000377 0.000683
Al 1.590340 0.862824 -2.724008 0.001067 0.001116 0.001472
Al -0.038650 3.652945 2.421597 -0.000081 -0.000299 0.001492
Al -0.058094 3.631039 7.504244 0.000436 0.000123 0.001168
Ga -0.002517 3.624331 -2.684286 0.000558 -0.000510 0.000883
Al 3.160027 -1.857878 2.400296 0.001574 -0.002392 0.001446
Ga 3.124647 -1.870443 7.535390 -0.000141 -0.000484 0.001777
Ga 3.198713 -1.858991 -2.702208 0.000171 0.000170 0.001943
Al -4.824439 0.866556 2.395851 0.001040 0.000396 0.000859
Ga -4.867091 0.876496 7.567583 0.000988 -0.000119 0.001294
Al -4.783437 0.859949 -2.713388 -0.000367 0.000783 0.000771
Ga -6.443575 3.644116 2.438116 0.000816 -0.000561 0.000114
Al -6.460253 3.643823 7.530114 0.000238 0.000674 0.000021
Ga -6.393748 3.618922 -2.709311 0.000063 -0.000790 0.000148
Al -3.226879 -1.872472 2.387020 -0.001517 -0.000845 0.002682
Al -3.243677 -1.887570 7.541542 0.000441 -0.000681 0.000946
Al -3.185216 -1.861987 -2.696356 -0.000261 -0.000257 0.001852
Ga -1.638938 0.880263 2.406713 0.001342 0.000333 0.001672
Ga -1.646687 0.881101 7.536151 0.001717 -0.000103 -0.000085
Al -1.608171 0.867393 -2.684694 0.001123 0.000446 0.000235
Ga -3.219785 3.640289 2.422904 0.000954 -0.000573 0.000958
Ga -3.264784 3.650454 7.528078 0.000864 0.000393 0.000387
Ga -3.190516 3.618081 -2.679824 0.000199 -0.000318 0.000063
Ga -0.021934 -1.853377 2.417605 0.000301 0.000229 0.001831
Al -0.059986 -1.867015 7.534582 0.000986 -0.000821 0.000475
Ga 0.000964 -1.845903 -2.698107 0.001176 -0.000522 0.000731
Al -0.046117 1.804294 4.964467 0.000453 0.002182 0.000685
Ga 0.025953 1.780359 -5.278030 -0.000151 0.001096 0.001306
Ga -0.017364 1.785924 -0.135221 -0.000484 0.000566 -0.000281
Al 3.145903 -3.705693 4.960918 0.001459 0.000247 0.000059
Ga 3.214417 -3.708971 -5.288965 0.000160 0.000311 0.000994
Al 3.190992 -3.704785 -0.117642 -0.001141 0.000449 0.000324
Al 1.541336 -0.958855 4.974606 0.000856 0.000440 0.001381
Al 1.619358 -0.951735 -5.298307 -0.001099 0.000068 0.001140
Al 1.594752 -0.955762 -0.134876 -0.000630 0.000191 0.000384
Ga 3.104020 1.802218 4.978523 0.000696 -0.000359 0.000963
Al 3.178391 1.773708 -5.288041 -0.000321 0.001150 0.000724
Ga 3.161264 1.774203 -0.138052 0.000213 0.000320 0.000688
Al 6.310222 -3.707112 4.983976 -0.000972 -0.000262 0.001281
Ga 6.381520 -3.712191 -5.307687 0.000468 -0.000157 0.001818
Al 6.345798 -3.690770 -0.134651 0.000350 -0.000136 0.000765
Ga 4.725504 -0.973598 4.948371 -0.000512 0.000252 0.001893
Al 4.786427 -0.958545 -5.270975 0.000087 -0.000978 0.001521
Al 4.773353 -0.963671 -0.139202 -0.000914 0.000375 -0.000013
Ga -3.246207 1.809105 4.971246 -0.000503 -0.000299 0.001192
Ga -3.195335 1.783513 -5.255147 -0.000222 0.000241 0.000819
Al -3.209572 1.780320 -0.152942 -0.000657 0.000360 0.000122
Al -0.045668 -3.693336 4.999832 -0.000239 -0.000604 -0.000273
Ga 0.013562 -3.709058 -5.295502 -0.001051 0.000244 0.001129
Ga -0.004627 -3.701911 -0.142479 -0.000126 -0.000522 0.001056
Ga -1.634052 -0.976087 4.987829 -0.001680 0.000776 0.000743
Ga -1.581926 -0.964413 -5.283082 -0.000665 -0.001106 0.001606
Al -1.620482 -0.956447 -0.152904 -0.000720 -0.000242 -0.000227
N 1.493830 0.850294 4.349191 -0.000044 -0.000562 -0.000861
N 1.634950 0.847545 -5.929025 0.000815 0.000193 -0.001497
N 1.574947 0.825918 -0.803888 0.000221 -0.000427 -0.001524
N -0.060700 3.640165 4.357987 0.000813 -0.000515 0.000125
N 0.001052 3.618787 -5.968380 -0.000150 -0.000383 -0.002322
N -0.023890 3.674227 -0.710100 -0.000021 0.000715 -0.000658
N 3.093599 -1.892840 4.335950 -0.001067 -0.000361 -0.002095
N 3.203395 -1.834816 -5.870112 0.000407 0.000873 -0.000930
N 3.177410 -1.874794 -0.702283 0.000240 -0.000258 -0.000829
N -4.839657 0.880834 4.306761 0.000144 0.000561 -0.001787
N -4.813857 0.847270 -5.850264 -0.000147 0.000328 -0.000270
N -4.763859 0.848386 -0.780064 0.000980 -0.000385 -0.001523
N -6.437923 3.692772 4.418090 0.000795 -0.000467 -0.000546
N -6.369707 3.581757 -5.938008 -0.000003 -0.001263 -0.000995
N -6.438611 3.648953 -0.734445 -0.001376 0.000817 -0.000038
N -3.227494 -1.923171 4.309468 0.000642 -0.000218 -0.001112
N -3.211260 -1.854646 -5.937796 -0.000924 0.000906 -0.001288
N -3.198485 -1.875037 -0.758822 -0.000056 -0.000316 -0.001253
N -1.614170 0.899376 4.384341 0.001298 -0.000439 -0.000685
N -1.588249 0.882100 -5.895367 0.000718 -0.000040 -0.000826
N -1.651477 0.857208 -0.761028 0.000606 -0.000523 -0.000941
N -3.250190 3.687467 4.404103 -0.000403 0.000833 -0.000115
N -3.183900 3.629315 -5.899846 0.000334 -0.000774 -0.001335
N -3.163696 3.612577 -0.704115 0.000982 -0.000370 -0.000090
N -0.006238 -1.889107 4.397914 0.000854 -0.001065 -0.001005
N 0.056655 -1.849345 -5.935706 0.000932 0.000046 -0.001389
N -0.004090 -1.818589 -0.717467 -0.000361 0.000566 -0.000397
N 0.009310 1.822822 1.848867 -0.000204 -0.000018 -0.001075
N -0.020487 1.819065 6.891746 -0.000020 -0.000139 0.000202
N -0.004853 1.743368 -3.283953 -0.000736 -0.000001 -0.000079
N 3.204037 -3.687265 1.802037 -0.000116 0.001800 0.000336
N 3.174458 -3.730099 6.882875 0.000161 0.000237 -0.001479
N 3.200823 -3.718117 -3.318710 -0.000691 0.000947 -0.001348
N 1.608443 -0.924188 1.784805 -0.000530 -0.000165 -0.000130
N 1.498964 -0.933109 6.903414 -0.000935 0.000705 -0.000717
N 1.603230 -0.919397 -3.373978 -0.001062 0.000011 -0.002120
N 3.137785 1.757159 1.848445 -0.000356 -0.000344 -0.000774
N 3.068324 1.818271 6.960920 0.000774 0.000641 -0.000974
N 3.174982 1.745782 -3.349274 0.000317 -0.000670 -0.000875
N 6.296744 -3.680789 1.784124 0.000612 -0.000281 -0.000816
N 6.309804 -3.703983 6.920579 0.000325 0.000404 -0.000980
N 6.372932 -3.664281 -3.321647 -0.000095 0.001066 -0.001446
N 4.749596 -0.950741 1.793891 -0.000661 -0.000866 -0.000308
N 4.758682 -0.976109 6.928334 0.000144 -0.000258 -0.001805
N 4.826074 -0.941785 -3.338365 -0.000161 -0.000194 -0.001559
N -3.265422 1.778615 1.767139 -0.001180 -0.000291 -0.000853
N -3.263625 1.793962 6.933531 -0.000668 -0.000103 -0.000826
N -3.189777 1.747514 -3.275279 -0.000687 -0.000473 0.000012
N -0.029369 -3.706216 1.820863 -0.001095 -0.000440 -0.001404
N -0.097446 -3.681665 6.920618 -0.001487 0.000304 -0.000221
N 0.009160 -3.707966 -3.316540 -0.000282 0.000050 -0.000514
N -1.661981 -0.978246 1.765830 -0.000120 -0.000238 -0.001166
N -1.654517 -1.004744 6.965839 -0.000873 -0.000703 -0.000158
N -1.629301 -0.937053 -3.290460 -0.001630 -0.000184 -0.000975
