108
Energy=-1.489500e+06 Lattice="9.521595e+00 0.000000e+00 0.000000e+00 -4.762430e+00 8.244882e+00 0.000000e+00 -1.340471e-02 2.321967e-03 1.537420e+01" Stress="7.476002e-05 -1.251775e-04 -4.033334e-04 -1.206637e-04 -9.654256e-05 1.280228e-04 -4.086715e-04 1.328926e-04 -4.715835e-04" Properties=species:S:1:pos:R:3:forces:R:3 Config_type=AlGaN_super3_23_0_30.xyz
Al 1.567302e+00 8.815556e-01 2.415997e+00 -1.516615e-04 -1.927030e-04 7.371280e-05
Al 1.555310e+00 8.888489e-01 7.512986e+00 1.604619e-04 -1.282936e-04 4.634061e-05
Al 1.561696e+00 8.955049e-01 -2.693077e+00 1.576222e-04 -6.070163e-05 8.255288e-06
Al -1.297689e-02 3.618880e+00 2.417377e+00 1.787350e-04 1.757238e-04 -8.520525e-05
Al -1.800013e-02 3.620846e+00 7.528126e+00 -1.033800e-04 -2.547188e-06 6.507955e-05
Al 1.141200e-02 3.611947e+00 -2.710378e+00 -1.339322e-07 2.661860e-05 1.583642e-04
Al 3.141545e+00 -1.863482e+00 2.423189e+00 1.179114e-04 -3.504327e-05 -2.875450e-06
Al 3.145832e+00 -1.869778e+00 7.527847e+00 -2.014873e-05 -7.610162e-06 1.192418e-05
Ga 3.170422e+00 -1.857247e+00 -2.701345e+00 -1.601729e-05 2.705355e-05 6.506764e-05
Al -4.792805e+00 8.897995e-01 2.431868e+00 3.899913e-04 -2.044366e-04 -1.615905e-04
Ga -4.798381e+00 8.844689e-01 7.532070e+00 4.582829e-05 2.817526e-06 6.753382e-05
Al -4.778193e+00 8.736471e-01 -2.721055e+00 -9.075315e-05 8.413668e-05 -2.885743e-05
Al -6.399922e+00 3.606158e+00 2.423336e+00 -2.326287e-05 1.746124e-04 1.576260e-05
Al -6.407418e+00 3.612236e+00 7.527636e+00 7.045978e-05 1.091432e-04 1.710885e-04
Al -6.393935e+00 3.620872e+00 -2.704934e+00 -7.965431e-06 -1.950597e-05 2.793285e-05
Ga -3.194543e+00 -1.883942e+00 2.420537e+00 -5.637359e-05 -4.875237e-06 7.205522e-05
Ga -3.207590e+00 -1.887909e+00 7.531487e+00 3.925646e-06 2.072346e-05 5.525143e-05
Al -3.203280e+00 -1.889064e+00 -2.707844e+00 -3.773920e-06 -4.933472e-05 3.678126e-05
Al -1.613684e+00 8.801983e-01 2.396005e+00 8.221072e-05 -7.894724e-05 1.423235e-04
Al -1.607558e+00 8.900286e-01 7.538893e+00 -1.080642e-04 -1.652995e-05 1.674348e-04
Ga -1.600926e+00 8.923630e-01 -2.693138e+00 3.753541e-05 -2.975278e-05 3.954159e-06
Ga -3.185988e+00 3.606296e+00 2.434852e+00 -3.086960e-05 4.301747e-05 4.397448e-05
Ga -3.186154e+00 3.617626e+00 7.517536e+00 1.212864e-05 -1.454088e-05 -1.405367e-06
Ga -3.198357e+00 3.604998e+00 -2.698001e+00 6.600777e-06 -5.960930e-05 5.032160e-05
Ga -2.036359e-02 -1.845682e+00 2.425507e+00 -1.051728e-04 1.714398e-05 8.837934e-05
Ga -2.375397e-02 -1.852239e+00 7.511567e+00 2.058850e-05 -5.002794e-05 2.992910e-05
Ga -2.327806e-02 -1.865857e+00 -2.680828e+00 4.927850e-05 -8.757789e-05 1.911240e-05
Ga -3.281059e-02 1.791464e+00 4.962933e+00 -7.911277e-05 -1.290801e-05 -6.009844e-05
Al -1.578290e-02 1.803457e+00 -5.294842e+00 3.283206e-05 -1.223460e-04 -1.755644e-04
Al -2.064288e-02 1.789133e+00 -1.256240e-01 -1.042881e-04 2.728161e-04 4.028976e-05
Al 3.162332e+00 -3.695740e+00 4.973534e+00 -1.965412e-04 8.192800e-05 -1.222632e-04
Ga 3.183231e+00 -3.711876e+00 -5.279661e+00 -4.694083e-05 3.909787e-05 3.975767e-05
Ga 3.172764e+00 -3.715822e+00 -1.354546e-01 -1.197528e-05 2.719362e-05 4.411860e-06
Al 1.572696e+00 -9.467077e-01 4.974277e+00 -2.382869e-05 -3.270365e-05 -2.371157e-05
Ga 1.579768e+00 -9.357739e-01 -5.283152e+00 -5.209037e-05 3.229492e-05 -2.160044e-05
Al 1.556190e+00 -9.354794e-01 -1.270897e-01 -4.487280e-05 -1.731238e-05 7.276831e-05
Al 3.139264e+00 1.797141e+00 4.961101e+00 6.743141e-05 1.006360e-04 2.187964e-04
Ga 3.145383e+00 1.794120e+00 -5.260310e+00 5.559167e-06 -3.520679e-06 3.894000e-06
Ga 3.144500e+00 1.790880e+00 -1.486537e-01 2.077990e-05 2.959363e-05 -5.432464e-05
Al 6.318211e+00 -3.717730e+00 4.975411e+00 2.269948e-04 1.259411e-04 -1.292419e-04
Al 6.319765e+00 -3.712270e+00 -5.267414e+00 2.398318e-05 1.134178e-05 2.452237e-05
Al 6.324248e+00 -3.711795e+00 -1.547421e-01 -2.203244e-05 -1.154541e-04 4.916651e-05
Ga 4.724444e+00 -9.528248e-01 4.958017e+00 -4.121848e-05 -8.798571e-05 -6.753737e-06
Al 4.751502e+00 -9.581204e-01 -5.267914e+00 -2.946034e-05 9.780395e-06 2.853781e-05
Ga 4.752645e+00 -9.482214e-01 -1.284658e-01 -7.116543e-05 -6.678689e-06 6.108733e-05
Al -3.194326e+00 1.778907e+00 4.965377e+00 2.385793e-04 3.324992e-04 7.338562e-05
Al -3.183786e+00 1.778807e+00 -5.274696e+00 1.775162e-06 -9.946457e-07 2.386369e-05
Al -3.190613e+00 1.773395e+00 -1.274329e-01 -2.369994e-05 4.331687e-05 6.594700e-05
Ga -4.241590e-02 -3.710871e+00 4.968347e+00 6.060414e-05 -2.423943e-05 9.553083e-06
Ga -3.229246e-02 -3.716283e+00 -5.276316e+00 -9.914267e-06 -6.326869e-06 2.023894e-05
Ga -3.703583e-02 -3.702653e+00 -1.244785e-01 -4.216262e-05 -3.794993e-06 -7.275811e-06
Al -1.617851e+00 -9.368578e-01 4.977645e+00 -1.142677e-05 -5.714163e-06 -2.217380e-05
Ga -1.624477e+00 -9.403046e-01 -5.265078e+00 3.226604e-06 2.577380e-05 4.768818e-05
Al -1.614091e+00 -9.472006e-01 -1.493490e-01 -4.404617e-05 -3.682379e-06 6.643560e-05
N 1.598143e+00 8.535263e-01 4.336188e+00 -9.604269e-05 -5.091076e-05 -7.504130e-06
N 1.531546e+00 9.055994e-01 -5.946841e+00 -8.648108e-05 6.200720e-05 9.361825e-05
N 1.515475e+00 8.578433e-01 -7.710930e-01 1.174720e-04 -1.026811e-04 1.130021e-06
N -2.498610e-02 3.671345e+00 4.335476e+00 9.770831e-06 -1.721192e-04 -6.210905e-05
N 2.936637e-02 3.602576e+00 -5.923508e+00 -2.171837e-05 -3.347621e-05 -1.340316e-04
N 2.490544e-02 3.589097e+00 -7.847041e-01 3.139740e-05 -1.977431e-05 -1.920712e-06
N 3.098391e+00 -1.895881e+00 4.336490e+00 6.379040e-05 -3.266469e-06 -1.175240e-04
N 3.198944e+00 -1.848676e+00 -5.926180e+00 4.748151e-05 -7.871483e-06 -4.177350e-05
N 3.113026e+00 -1.844341e+00 -7.326100e-01 1.950278e-05 1.226456e-05 -6.970227e-05
N -4.789012e+00 9.335370e-01 4.347368e+00 -2.513979e-04 -1.137681e-04 4.735382e-05
N -4.742941e+00 8.553264e-01 -5.858046e+00 4.797327e-05 -3.985798e-05 -3.810322e-05
N -4.738802e+00 8.990768e-01 -8.034254e-01 3.899552e-06 5.232600e-06 -6.827426e-06
N -6.429186e+00 3.599247e+00 4.333922e+00 -4.694221e-05 -5.439857e-05 6.391282e-06
N -6.418565e+00 3.642810e+00 -5.929395e+00 1.158789e-05 -1.407224e-05 -9.642113e-05
N -6.414526e+00 3.646861e+00 -7.974153e-01 5.051452e-06 -3.064214e-05 -2.832048e-05
N -3.154364e+00 -1.901701e+00 4.398734e+00 2.771028e-05 5.651319e-06 -3.924413e-05
N -3.232577e+00 -1.903613e+00 -5.859933e+00 3.271238e-06 -1.925989e-05 -6.018824e-05
N -3.159878e+00 -1.901769e+00 -7.766701e-01 -2.350918e-05 6.205572e-05 -5.494364e-05
N -1.654645e+00 8.536776e-01 4.314651e+00 3.866794e-05 -6.503869e-05 -5.370377e-05
N -1.603036e+00 9.267456e-01 -5.911248e+00 1.118441e-04 6.725473e-05 -3.011611e-05
N -1.604588e+00 8.857359e-01 -7.053624e-01 -4.596601e-06 -5.344285e-06 -4.480767e-05
N -3.155049e+00 3.599311e+00 4.411608e+00 6.771561e-05 -5.506104e-05 -1.322120e-05
N -3.187660e+00 3.576578e+00 -5.878167e+00 2.881222e-05 -6.205922e-05 -7.300139e-05
N -3.197117e+00 3.572289e+00 -7.229480e-01 2.629195e-05 -1.979021e-05 -5.468002e-06
N -2.653592e-02 -1.814322e+00 4.406640e+00 5.504854e-05 -5.666155e-06 -3.221070e-05
N -2.047706e-02 -1.865136e+00 -5.894895e+00 9.564771e-06 -6.085999e-05 -4.109554e-05
N -1.917783e-02 -1.823459e+00 -7.041790e-01 2.361494e-05 1.720334e-05 -4.063933e-05
N -2.134990e-02 1.794416e+00 1.809086e+00 9.752889e-06 4.348865e-05 6.290620e-05
N -3.340847e-02 1.794295e+00 6.951364e+00 -1.332169e-06 2.021992e-04 -2.918947e-05
N 2.417183e-02 1.814932e+00 -3.361627e+00 -1.331303e-04 4.002243e-05 -1.276686e-04
N 3.197901e+00 -3.681553e+00 1.839894e+00 2.722690e-05 6.949063e-05 2.223372e-05
N 3.197952e+00 -3.675573e+00 6.900556e+00 1.216986e-04 -7.104028e-05 1.992665e-04
N 3.204580e+00 -3.730723e+00 -3.299047e+00 -2.995886e-05 2.011874e-05 -4.615246e-05
N 1.605177e+00 -9.241124e-01 1.786621e+00 -8.258154e-06 1.154604e-04 -8.780350e-06
N 1.609335e+00 -9.250106e-01 6.894143e+00 -3.221674e-05 7.565837e-05 1.934991e-05
N 1.569138e+00 -9.011064e-01 -3.311571e+00 -6.946790e-05 4.417357e-05 -1.867899e-05
N 3.149158e+00 1.790355e+00 1.839836e+00 -5.307469e-05 1.331959e-04 -4.193468e-05
N 3.103361e+00 1.817758e+00 6.887001e+00 -1.810016e-05 -1.079763e-04 -2.211193e-04
N 3.149083e+00 1.791024e+00 -3.267189e+00 8.209043e-05 -3.898894e-06 1.418120e-05
N 6.322581e+00 -3.754577e+00 1.765242e+00 -2.471842e-04 -9.887997e-05 4.514796e-05
N 6.316470e+00 -3.755111e+00 6.887501e+00 -7.309361e-05 -3.618495e-05 6.307685e-05
N 6.327368e+00 -3.707020e+00 -3.336784e+00 -3.279339e-06 1.684366e-05 -1.502184e-05
N 4.699064e+00 -9.271868e-01 1.854497e+00 -3.376415e-05 -1.245104e-05 4.150845e-05
N 4.691456e+00 -9.744207e-01 6.923755e+00 5.898063e-06 -6.567132e-06 -5.197641e-05
N 4.785661e+00 -9.349513e-01 -3.342660e+00 4.501622e-06 -2.110952e-05 -1.714247e-05
N -3.205764e+00 1.740711e+00 1.786063e+00 -2.005107e-04 3.698058e-05 -9.963247e-06
N -3.159844e+00 1.760226e+00 6.874819e+00 -2.487727e-05 -4.638893e-05 -3.944375e-05
N -3.227215e+00 1.764252e+00 -3.367653e+00 -1.250925e-05 -9.268262e-06 -3.151400e-05
N -6.924199e-02 -3.729019e+00 1.851128e+00 6.448838e-05 -2.264543e-05 -1.232672e-05
N -7.687472e-02 -3.732258e+00 6.939267e+00 -1.643931e-05 -3.238931e-06 -1.407095e-05
N -6.427786e-02 -3.728051e+00 -3.298475e+00 -1.082732e-05 1.552684e-05 -2.914784e-05
N -1.617135e+00 -9.112182e-01 1.759215e+00 2.996359e-05 -1.338265e-05 -9.935285e-05
N -1.623970e+00 -8.967133e-01 6.890723e+00 2.887923e-05 -1.960262e-05 -5.090963e-05
N -1.649681e+00 -9.726154e-01 -3.293003e+00 -6.894657e-05 3.621961e-05 -2.687501e-05
