108
Energy=-7.570926e+05 Lattice="9.432772e+00 0.000000e+00 0.000000e+00 -4.718194e+00 8.165808e+00 0.000000e+00 -1.494892e-04 3.282880e-04 1.515947e+01" Stress="-3.677610e-04 -7.645560e-05 2.484260e-05 -7.243547e-05 -6.817683e-04 6.137601e-05 1.822192e-05 6.089448e-05 1.589868e-04" Properties=species:S:1:pos:R:3:forces:R:3 Config_type=AlGaN_super3_7_2_17.xyz
Al 1.549699e+00 8.783494e-01 2.390456e+00 -1.833913e-04 -1.301872e-03 -3.698947e-04
Al 1.548889e+00 8.674764e-01 7.429968e+00 1.412751e-04 -2.392686e-04 1.018028e-04
Al 1.548945e+00 8.733098e-01 -2.694198e+00 8.576155e-05 3.321963e-04 4.094531e-04
Al -2.187374e-02 3.587827e+00 2.385336e+00 1.410671e-05 9.862854e-05 -6.793293e-05
Al -2.138717e-02 3.590230e+00 7.423379e+00 -3.771232e-05 -6.297430e-05 -6.586413e-05
Al -2.063216e-02 3.581495e+00 -2.679477e+00 1.223143e-05 -1.317115e-04 1.246682e-04
Al 3.129310e+00 -1.855795e+00 2.399325e+00 -1.126663e-04 8.057826e-05 -4.986512e-04
Al 3.116568e+00 -1.856033e+00 7.412605e+00 -7.103977e-05 4.171029e-05 -1.264656e-04
Al 3.118284e+00 -1.855622e+00 -2.677392e+00 1.993572e-04 2.035377e-06 6.071323e-04
Al -4.748599e+00 8.660473e-01 2.397237e+00 1.851917e-04 -5.792953e-04 -2.282535e-04
Al -4.739852e+00 8.761561e-01 7.412057e+00 1.544477e-04 -4.287637e-05 -7.446569e-05
Al -4.754164e+00 8.731903e-01 -2.676033e+00 -3.429978e-05 -4.367135e-05 1.616492e-05
Al -6.316187e+00 3.587262e+00 2.374868e+00 -1.896806e-04 2.555588e-05 -1.866022e-04
Al -6.320938e+00 3.586223e+00 7.437593e+00 -9.131338e-05 -1.515222e-05 -7.705436e-05
Al -6.316279e+00 3.580635e+00 -2.679703e+00 1.422174e-04 3.843848e-05 6.888269e-05
Al -3.170375e+00 -1.856502e+00 2.367070e+00 5.282862e-05 2.175553e-04 -1.194641e-04
Al -3.167085e+00 -1.861831e+00 7.432628e+00 -2.379375e-05 -2.477730e-05 -1.132039e-04
Ga -3.158766e+00 -1.856164e+00 -2.663220e+00 2.069783e-05 -6.677201e-05 1.471126e-05
Al -1.585365e+00 8.719147e-01 2.388979e+00 -4.425499e-04 -3.895471e-04 -4.678422e-04
Al -1.597235e+00 8.787437e-01 7.436001e+00 3.487325e-04 -1.414108e-04 -9.628765e-05
Al -1.582998e+00 8.654093e-01 -2.691061e+00 5.592134e-04 9.754499e-05 4.845273e-04
Al -3.164469e+00 3.597938e+00 2.382202e+00 9.761433e-05 -1.334239e-03 -8.076411e-04
Al -3.160848e+00 3.585709e+00 7.443078e+00 1.602985e-04 -6.463708e-05 -7.779703e-05
Ga -3.168970e+00 3.597822e+00 -2.687305e+00 1.854653e-04 -1.119967e-04 1.053124e-04
Al -2.220305e-02 -1.854696e+00 2.376611e+00 -1.639674e-04 2.383210e-04 8.558282e-04
Al -1.329549e-02 -1.846936e+00 7.450668e+00 2.487059e-04 1.568872e-05 -3.761312e-04
Al -2.421489e-02 -1.849843e+00 -2.691210e+00 7.345458e-05 -1.875501e-04 8.171859e-04
Al -1.636995e-02 1.784140e+00 4.912798e+00 -8.004054e-05 5.242494e-05 -9.534237e-05
Al -2.364805e-02 1.777992e+00 -5.213225e+00 -1.637186e-04 8.600453e-05 2.976755e-05
Al -1.853840e-02 1.784321e+00 -1.474280e-01 -4.742383e-05 -2.382371e-04 -1.089809e-03
Al 3.132623e+00 -3.670627e+00 4.907425e+00 -3.402674e-05 1.383993e-05 -9.480640e-05
Al 3.126714e+00 -3.673708e+00 -5.220626e+00 -6.509421e-05 1.160773e-04 -2.551214e-04
Al 3.139793e+00 -3.665651e+00 -1.327761e-01 -3.385284e-04 1.318969e-04 -9.542188e-05
Al 1.563311e+00 -9.356023e-01 4.903876e+00 -3.498063e-04 -1.951511e-04 6.333570e-05
Al 1.545808e+00 -9.473599e-01 -5.202356e+00 -3.331396e-04 1.617119e-04 -8.857001e-05
Ga 1.552463e+00 -9.441969e-01 -1.483873e-01 -3.484836e-04 -1.020491e-04 1.589382e-05
Al 3.113703e+00 1.771397e+00 4.908821e+00 1.049131e-05 -7.582439e-05 -1.397825e-04
Al 3.116728e+00 1.783017e+00 -5.211765e+00 5.556028e-05 -2.466030e-05 1.424673e-04
Al 3.116520e+00 1.782522e+00 -1.441445e-01 -5.146731e-04 -1.908344e-04 -8.770779e-04
Al 6.254627e+00 -3.675468e+00 4.901988e+00 7.432162e-05 7.074147e-05 -1.862985e-04
Al 6.268274e+00 -3.683149e+00 -5.209235e+00 5.128219e-05 4.889773e-06 4.559279e-05
Al 6.265486e+00 -3.678343e+00 -1.395894e-01 2.986994e-04 -1.479311e-04 -1.025794e-04
Al 4.689587e+00 -9.480068e-01 4.909459e+00 -5.590933e-05 1.931606e-04 -1.019776e-04
Ga 4.689490e+00 -9.438025e-01 -5.216736e+00 -2.072091e-04 1.117793e-04 -9.735888e-05
Al 4.690454e+00 -9.493655e-01 -1.357240e-01 -1.461329e-04 5.274304e-06 1.202203e-04
Al -3.165906e+00 1.779249e+00 4.901791e+00 6.874428e-05 -1.889956e-05 -1.405928e-04
Al -3.165803e+00 1.777214e+00 -5.210275e+00 3.175177e-05 -4.754058e-05 -2.339835e-04
Ga -3.168046e+00 1.765710e+00 -1.360393e-01 1.819707e-04 -1.368092e-04 1.049237e-05
Ga -1.879212e-02 -3.677058e+00 4.919223e+00 1.286878e-04 1.144501e-04 3.166039e-05
Al -2.878920e-02 -3.667498e+00 -5.222163e+00 -2.615584e-05 8.800782e-05 -3.997279e-04
Al -3.752948e-02 -3.668000e+00 -1.372026e-01 -2.478780e-04 8.346398e-04 -3.055908e-04
Ga -1.598256e+00 -9.399330e-01 4.914272e+00 -2.258602e-04 1.608836e-04 2.024016e-05
Al -1.583507e+00 -9.425012e-01 -5.219618e+00 -1.168157e-04 1.442683e-04 -5.715133e-04
Al -1.590376e+00 -9.486261e-01 -1.335008e-01 4.824204e-05 1.290809e-04 -1.381358e-04
N 1.547725e+00 8.745937e-01 4.308131e+00 7.389336e-05 -1.849420e-04 -3.818768e-05
N 1.548610e+00 8.666594e-01 -5.805491e+00 1.746495e-04 -1.660732e-04 -1.426270e-04
N 1.546929e+00 9.195140e-01 -7.763979e-01 9.984622e-04 -2.156898e-04 -2.876323e-04
N -2.318017e-02 3.588352e+00 4.303592e+00 -8.138138e-05 -7.326843e-05 2.166181e-04
N -2.139328e-02 3.588779e+00 -5.820097e+00 -6.145229e-05 -5.585260e-05 -3.465269e-05
N -2.431375e-02 3.590314e+00 -7.544932e-01 -7.640750e-05 2.710323e-05 6.846423e-05
N 3.125931e+00 -1.855417e+00 4.316374e+00 2.536660e-08 3.215712e-05 1.893872e-04
N 3.077094e+00 -1.876566e+00 -5.838036e+00 1.702736e-05 -1.248420e-04 6.385059e-05
N 3.162320e+00 -1.880580e+00 -7.652989e-01 1.898111e-04 -1.291412e-04 -3.145174e-04
N -4.743982e+00 8.681278e-01 4.317031e+00 1.456697e-04 1.627931e-05 1.842258e-04
N -4.741630e+00 9.201193e-01 -5.838327e+00 9.085735e-05 -7.870155e-06 6.004618e-05
N -4.783576e+00 8.458327e-01 -7.640733e-01 -2.341795e-04 1.403069e-04 1.282114e-04
N -6.352765e+00 3.566705e+00 4.286658e+00 -5.213016e-05 -2.296460e-05 1.180370e-04
N -6.317953e+00 3.586706e+00 -5.811884e+00 -4.606591e-05 -1.447434e-05 1.142889e-04
N -6.312272e+00 3.588559e+00 -7.528179e-01 -1.435765e-04 3.155519e-05 -4.630821e-05
N -3.207053e+00 -1.877277e+00 4.283913e+00 -4.322642e-05 -8.828079e-05 -3.804594e-05
N -3.127453e+00 -1.882576e+00 -5.817866e+00 4.162625e-05 -1.062661e-04 1.698416e-04
N -3.163497e+00 -1.855074e+00 -6.834348e-01 -1.385659e-04 5.508583e-05 1.181080e-04
N -1.588976e+00 9.177690e-01 4.295456e+00 1.986309e-04 -7.463862e-05 2.483949e-05
N -1.597056e+00 8.754778e-01 -5.809881e+00 3.568539e-04 -1.291605e-04 2.503033e-04
N -1.551434e+00 8.438807e-01 -7.710297e-01 -2.005636e-04 -7.876716e-05 -2.877227e-04
N -3.126189e+00 3.573414e+00 4.290133e+00 2.019075e-05 -2.302799e-04 6.425844e-06
N -3.165593e+00 3.587914e+00 -5.798338e+00 1.846410e-04 -5.604696e-05 1.953694e-04
N -3.167535e+00 3.639465e+00 -7.116138e-01 4.668489e-04 4.288453e-06 1.002659e-04
N 1.755397e-02 -1.832322e+00 4.280759e+00 9.280562e-05 5.186387e-05 -1.320535e-03
N -1.615107e-02 -1.849195e+00 -5.801855e+00 3.108621e-04 -1.250143e-04 3.247443e-04
N -6.428549e-02 -1.877873e+00 -7.698759e-01 -8.679334e-06 -3.178464e-04 -8.393710e-04
N -1.948025e-02 1.776966e+00 1.772435e+00 -2.318850e-04 1.016671e-04 6.378762e-04
N -2.116601e-02 1.774868e+00 6.830830e+00 -2.130019e-04 1.255089e-04 1.007084e-04
N -2.323239e-02 1.777633e+00 -3.292982e+00 -7.029765e-05 1.241331e-04 -1.613977e-04
N 3.129426e+00 -3.664837e+00 1.787107e+00 6.637691e-06 -2.361839e-04 -1.024269e-04
N 3.122933e+00 -3.673231e+00 6.824726e+00 -1.207933e-04 7.839428e-05 2.153270e-04
N 3.169052e+00 -3.646201e+00 -3.309507e+00 -1.994155e-05 1.505151e-04 1.098165e-04
N 1.555050e+00 -9.469487e-01 1.828572e+00 3.698961e-04 1.502903e-03 7.808446e-04
N 1.548373e+00 -9.436071e-01 6.821166e+00 -1.823594e-04 2.716315e-04 1.445604e-04
N 1.552436e+00 -9.490589e-01 -3.277258e+00 -1.141279e-04 3.375865e-04 1.370822e-04
N 3.121073e+00 1.774497e+00 1.775759e+00 2.412962e-05 -2.850589e-04 5.134183e-04
N 3.116040e+00 1.777687e+00 6.823781e+00 -2.065669e-05 1.094586e-06 5.987439e-05
N 3.121861e+00 1.776683e+00 -3.291963e+00 -2.001192e-04 1.378880e-05 -3.984711e-05
N 6.264994e+00 -3.675135e+00 1.777084e+00 -1.098775e-04 -2.680831e-05 -2.246984e-05
N 6.267005e+00 -3.669874e+00 6.819918e+00 1.095346e-04 1.829012e-06 3.891629e-05
N 6.265841e+00 -3.716676e+00 -3.294889e+00 3.910962e-05 -1.746786e-04 9.408876e-05
N 4.688704e+00 -9.424768e-01 1.785603e+00 -4.002714e-04 8.981047e-05 9.942203e-06
N 4.697330e+00 -9.475541e-01 6.830130e+00 -1.287634e-04 8.438087e-05 1.206442e-04
N 4.656551e+00 -9.240777e-01 -3.250178e+00 -2.182492e-04 -2.030247e-05 -1.320012e-04
N -3.171160e+00 1.766591e+00 1.835788e+00 5.749648e-04 1.872240e-03 1.246114e-03
N -3.164779e+00 1.779575e+00 6.820988e+00 -9.864670e-05 9.223681e-06 3.612581e-05
N -3.169432e+00 1.726271e+00 -3.293613e+00 -1.126820e-04 -2.041300e-05 2.205240e-04
N -2.636976e-02 -3.668562e+00 1.782014e+00 2.156054e-04 -2.838009e-04 2.618850e-04
N -2.164699e-02 -3.668698e+00 6.894805e+00 -8.926350e-06 1.313088e-05 3.347108e-04
N -6.826425e-02 -3.646496e+00 -3.309168e+00 -1.789734e-04 -4.572989e-05 1.529511e-04
N -1.591284e+00 -9.425478e-01 1.786282e+00 1.083907e-04 1.807578e-04 2.316173e-04
N -1.592375e+00 -9.450790e-01 6.887407e+00 -1.496069e-04 1.447082e-04 3.275240e-04
N -1.555923e+00 -9.238847e-01 -3.310343e+00 -1.257564e-04 1.407548e-04 3.820664e-04
