108
Energy=-2.679663e+06 Lattice="9.674826e+00 0.000000e+00 0.000000e+00 -4.838005e+00 8.377572e+00 0.000000e+00 -3.471224e-04 2.462967e-04 1.570983e+01" Stress="5.369403e-06 7.548633e-06 1.699998e-06 -1.072461e-08 1.066137e-06 -6.066348e-06 7.514301e-06 5.066285e-06 6.661459e-05" Properties=species:S:1:pos:R:3:forces:R:3 Config_type=AlGaN_super3_49_2_12.xyz
Al 1.588700e+00 8.910699e-01 2.461256e+00 8.973207e-06 1.043723e-05 -4.061236e-06
Ga 1.588405e+00 8.920852e-01 7.707018e+00 2.154338e-06 1.339578e-05 -1.954226e-05
Ga 1.588126e+00 8.910989e-01 -2.756922e+00 -2.519693e-05 2.913484e-05 -3.141143e-05
Al -2.457769e-02 3.681687e+00 2.464839e+00 5.712654e-05 4.929861e-07 2.233295e-05
Ga -2.421910e-02 3.681156e+00 7.703787e+00 -2.716832e-09 -7.025933e-06 -1.277287e-05
Ga -2.904760e-02 3.674517e+00 -2.754966e+00 -3.410765e-05 1.440588e-05 2.555037e-06
Al 3.202058e+00 -1.900960e+00 2.464986e+00 2.044010e-05 1.120621e-05 7.683859e-06
Ga 3.202663e+00 -1.901496e+00 7.702001e+00 -5.004990e-06 1.146358e-05 -5.297905e-07
Ga 3.205796e+00 -1.894284e+00 -2.755379e+00 -2.797448e-05 7.355725e-06 -1.581970e-05
Ga -4.874299e+00 8.832351e-01 2.466496e+00 1.106403e-05 -2.480591e-05 2.079073e-05
Ga -4.861384e+00 8.903074e-01 7.706512e+00 5.498227e-06 1.797818e-05 2.376141e-06
Al -4.852065e+00 8.899554e-01 -2.759299e+00 3.593522e-06 1.248769e-05 -1.443398e-05
Ga -6.487774e+00 3.673850e+00 2.468053e+00 4.779084e-06 -2.863021e-05 3.211270e-05
Ga -6.475442e+00 3.680539e+00 7.705763e+00 1.044937e-05 -3.705149e-06 7.239014e-06
Ga -6.469494e+00 3.674706e+00 -2.757005e+00 -1.543197e-05 4.660903e-06 3.961963e-06
Ga -3.262936e+00 -1.907486e+00 2.463651e+00 3.069351e-05 -3.005291e-05 1.727505e-05
Ga -3.250001e+00 -1.901410e+00 7.708896e+00 4.685146e-06 6.582798e-06 2.258365e-06
Ga -3.248706e+00 -1.886418e+00 -2.759097e+00 -2.270325e-05 1.510474e-05 1.258558e-05
Ga -1.624215e+00 8.988482e-01 2.467464e+00 2.487358e-05 -2.030089e-05 1.916909e-05
Ga -1.634365e+00 8.929790e-01 7.706563e+00 -4.466461e-07 8.468179e-06 -5.861083e-06
Al -1.642206e+00 8.920626e-01 -2.758359e+00 -2.367080e-05 1.618474e-05 3.382022e-05
Ga -3.235156e+00 3.687476e+00 2.464756e+00 -5.464490e-06 6.474368e-06 5.076843e-06
Ga -3.245553e+00 3.681421e+00 7.708770e+00 -1.373253e-05 -6.218218e-06 7.467574e-06
Ga -3.244987e+00 3.669337e+00 -2.756893e+00 -3.661666e-05 -8.519991e-06 1.405644e-05
Ga -1.090151e-02 -1.892810e+00 2.468718e+00 -4.868751e-06 8.223609e-06 1.322894e-05
Ga -2.160699e-02 -1.899417e+00 7.703935e+00 -7.880874e-06 -3.344709e-06 1.029973e-05
Ga -2.408799e-02 -1.891858e+00 -2.755938e+00 -3.408522e-05 6.154239e-06 1.273723e-05
Ga -1.570082e-02 1.825401e+00 5.061940e+00 6.635521e-06 -3.155127e-06 -2.005948e-05
Ga -2.771823e-02 1.819583e+00 -5.367673e+00 2.089685e-05 4.468695e-06 -2.185432e-05
Ga -2.588957e-02 1.820546e+00 -1.337931e-01 4.488297e-05 -5.574511e-06 -1.146563e-05
Ga 3.209133e+00 -3.759824e+00 5.061583e+00 -3.189052e-05 2.269396e-05 9.962958e-07
Ga 3.202986e+00 -3.763102e+00 -5.378949e+00 7.665986e-06 5.074259e-06 -5.759407e-06
Ga 3.207078e+00 -3.760145e+00 -1.218548e-01 3.788388e-06 7.920661e-07 8.268384e-06
Ga 1.597181e+00 -9.651814e-01 5.061610e+00 -2.732512e-05 1.481585e-05 -1.555860e-06
Ga 1.590172e+00 -9.708005e-01 -5.379117e+00 -8.040001e-08 2.188318e-06 7.970599e-06
Ga 1.594503e+00 -9.677888e-01 -1.222621e-01 -7.628383e-06 -2.493217e-05 3.556985e-05
Ga 3.194090e+00 1.817458e+00 5.074413e+00 -2.338957e-05 -3.947738e-06 -1.189414e-05
Ga 3.206049e+00 1.818701e+00 -5.367971e+00 -1.347147e-06 -3.272749e-06 1.194969e-05
Ga 3.204715e+00 1.815298e+00 -1.442479e-01 2.378312e-05 1.337806e-05 1.871968e-05
Ga 6.419501e+00 -3.766442e+00 5.074289e+00 -1.439601e-05 2.002026e-05 -3.879957e-07
Ga 6.426320e+00 -3.764647e+00 -5.378919e+00 2.040076e-07 -2.760509e-06 5.210822e-06
Ga 6.422698e+00 -3.765621e+00 -1.324364e-01 -4.320806e-07 -5.237195e-06 1.411074e-05
Ga 4.808051e+00 -9.741134e-01 5.073899e+00 -1.251288e-05 1.077201e-06 6.047615e-06
Ga 4.813324e+00 -9.661917e-01 -5.367957e+00 -7.589605e-06 -1.337804e-05 1.951847e-06
Ga 4.809775e+00 -9.649791e-01 -1.440699e-01 2.026512e-05 -2.692210e-05 2.496965e-05
Ga -3.248629e+00 1.821788e+00 5.086268e+00 -1.744434e-05 5.388964e-06 -8.707631e-07
Ga -3.247807e+00 1.815117e+00 -5.357245e+00 -7.343527e-07 -1.155314e-05 -6.755769e-06
Ga -3.247859e+00 1.813226e+00 -1.666808e-01 2.639360e-05 -2.715496e-05 -1.137986e-05
Ga -2.242096e-02 -3.764084e+00 5.086191e+00 -2.866981e-05 1.822670e-05 2.899569e-06
Ga -2.249726e-02 -3.763203e+00 -5.378770e+00 -7.463304e-06 -3.887820e-06 8.537579e-07
Ga -2.257218e-02 -3.762673e+00 -1.424664e-01 1.515228e-06 2.999117e-06 2.015832e-05
Ga -1.636886e+00 -9.705304e-01 5.085970e+00 -1.912009e-05 -2.385179e-06 5.859633e-06
Ga -1.634575e+00 -9.654788e-01 -5.367636e+00 -4.308558e-06 -1.826689e-05 -4.960398e-06
Ga -1.634873e+00 -9.621926e-01 -1.546487e-01 1.483807e-05 -1.327686e-05 1.630744e-05
N 1.589439e+00 8.919506e-01 4.383025e+00 2.214254e-05 -8.222775e-07 -1.427526e-05
N 1.588685e+00 8.942175e-01 -6.015864e+00 1.217475e-05 -1.043113e-05 -5.769245e-06
N 1.586634e+00 8.897717e-01 -7.768567e-01 -2.489384e-05 8.981047e-06 -4.682567e-05
N -2.328087e-02 3.682808e+00 4.385934e+00 3.965790e-05 -1.301103e-05 3.008306e-05
N -2.380206e-02 3.679959e+00 -6.021361e+00 6.741449e-06 -9.959416e-06 2.285806e-05
N -2.619640e-02 3.682090e+00 -7.757565e-01 -1.829211e-05 9.931036e-06 8.780184e-06
N 3.202764e+00 -1.900999e+00 4.386087e+00 2.846648e-05 -1.966107e-05 1.047465e-05
N 3.204148e+00 -1.900645e+00 -6.022957e+00 2.112897e-05 -5.537512e-06 3.050218e-06
N 3.199309e+00 -1.902866e+00 -7.760690e-01 -1.604680e-05 7.004416e-08 -1.637279e-05
N -4.860876e+00 8.916784e-01 4.444730e+00 2.172411e-05 -1.508617e-05 -2.066525e-06
N -4.858622e+00 8.919026e-01 -6.020189e+00 1.624391e-05 4.514432e-08 -8.908043e-06
N -4.863082e+00 8.893001e-01 -8.357599e-01 -2.220652e-05 3.416556e-05 -1.489498e-05
N -6.473904e+00 3.683255e+00 4.446996e+00 1.930325e-05 -1.370323e-05 1.427083e-06
N -6.473758e+00 3.680082e+00 -6.018692e+00 2.136629e-05 -4.641895e-06 -1.519119e-06
N -6.475321e+00 3.682541e+00 -7.753149e-01 6.228015e-06 5.672313e-06 -1.169357e-05
N -3.248563e+00 -1.900804e+00 4.443373e+00 2.635083e-05 -1.765062e-05 9.652946e-06
N -3.248303e+00 -1.899299e+00 -6.013362e+00 1.839967e-05 2.267994e-06 -4.891181e-06
N -3.250024e+00 -1.902299e+00 -7.764945e-01 -2.511725e-05 1.787362e-05 -2.879994e-05
N -1.636450e+00 8.915099e-01 4.445355e+00 3.073853e-05 -2.933176e-05 1.133109e-06
N -1.637056e+00 8.929062e-01 -6.020250e+00 1.523034e-06 -5.146614e-06 5.751532e-06
N -1.629709e+00 8.940926e-01 -8.345984e-01 -5.770432e-05 2.107282e-05 -1.165631e-05
N -3.248401e+00 3.682401e+00 4.444080e+00 3.701093e-05 -2.128834e-05 6.660953e-06
N -3.247061e+00 3.677404e+00 -6.013578e+00 1.243920e-05 -2.903246e-06 -7.120581e-07
N -3.242902e+00 3.686650e+00 -7.745582e-01 3.360195e-06 8.575427e-06 -2.835217e-05
N -2.343909e-02 -1.900856e+00 4.447487e+00 3.059689e-05 -1.694993e-05 -1.374768e-05
N -2.441544e-02 -1.899590e+00 -6.020505e+00 1.800542e-05 -6.857544e-06 8.699849e-07
N -1.728593e-02 -1.897936e+00 -7.741415e-01 -7.867578e-06 3.708900e-06 -2.392323e-05
N 1.775779e-02 1.845459e+00 1.863007e+00 -5.873935e-05 5.580484e-06 3.402061e-06
N -2.041150e-02 1.822068e+00 7.050167e+00 -8.974878e-06 1.508664e-05 1.929446e-05
N -6.666476e-02 1.795855e+00 -3.379595e+00 1.864210e-05 -1.812842e-06 1.240799e-05
N 3.246316e+00 -3.737978e+00 1.871600e+00 -3.238272e-06 -1.117238e-05 -2.019155e-05
N 3.204273e+00 -3.762853e+00 7.051426e+00 -4.819608e-07 8.266104e-06 7.041151e-06
N 3.202344e+00 -3.761944e+00 -3.399338e+00 2.254139e-05 2.492128e-06 1.746645e-05
N 1.633525e+00 -9.455026e-01 1.871021e+00 8.783654e-06 -2.422252e-05 6.976794e-06
N 1.592555e+00 -9.678751e-01 7.051310e+00 1.163316e-06 -9.435738e-07 5.759446e-06
N 1.590920e+00 -9.701352e-01 -3.401433e+00 2.164579e-05 -1.241269e-05 -4.748280e-06
N 3.160563e+00 1.794904e+00 1.841168e+00 -9.034567e-07 1.741551e-05 -1.136038e-05
N 3.198994e+00 1.818867e+00 7.059082e+00 -2.192412e-05 5.662956e-06 8.497583e-06
N 3.245354e+00 1.794804e+00 -3.378268e+00 -2.574021e-05 3.155626e-06 -3.297118e-06
N 6.382850e+00 -3.788848e+00 1.849963e+00 -1.096683e-05 1.516435e-05 -8.159527e-06
N 6.424198e+00 -3.764277e+00 7.060671e+00 -2.130902e-05 3.905422e-06 2.228645e-07
N 6.426235e+00 -3.763166e+00 -3.395954e+00 5.959649e-06 -2.794996e-06 -1.228588e-06
N 4.769808e+00 -9.927067e-01 1.841146e+00 -4.336744e-06 1.414316e-05 -3.091311e-05
N 4.812876e+00 -9.719106e-01 7.058558e+00 -1.920564e-05 -9.017527e-06 -6.281375e-06
N 4.813436e+00 -9.211654e-01 -3.380260e+00 1.437043e-05 -2.719053e-05 4.804461e-06
N -3.249946e+00 1.816448e+00 1.817338e+00 -1.189415e-05 2.149414e-05 -3.330609e-05
N -3.248274e+00 1.821064e+00 7.066474e+00 -1.850429e-05 1.438238e-05 -3.152591e-06
N -3.247546e+00 1.770704e+00 -3.357791e+00 3.083527e-06 2.043301e-05 4.687229e-06
N -2.457033e-02 -3.764469e+00 1.835092e+00 -3.751711e-06 8.024314e-06 -2.931782e-05
N -2.202562e-02 -3.764652e+00 7.069552e+00 -1.364633e-05 8.461083e-06 -1.223884e-05
N -2.082342e-02 -3.762334e+00 -3.396037e+00 1.201851e-05 4.809373e-06 -5.443585e-06
N -1.636968e+00 -9.686634e-01 1.826033e+00 -3.537791e-06 1.189199e-05 6.753995e-06
N -1.636723e+00 -9.704467e-01 7.067750e+00 -1.745246e-05 2.120498e-06 -1.396227e-05
N -1.634237e+00 -9.203709e-01 -3.378258e+00 2.124547e-05 -2.533048e-05 -7.542723e-06
