108
Energy=-2267678.218585 Lattice="9.485083 0.000000 0.000000 -4.744159 8.211362 0.000000 0.000458 -0.000994 15.285577" Stress="-0.000387 0.000035 -0.000001 0.000035 -0.000350 -0.000002 -0.000001 -0.000002 -0.000372" Properties=species:S:1:pos:R:3:forces:R:3
Al 1.564980 0.901193 2.468813 -0.001419 -0.013217 -0.008243
Al 1.564906 0.900631 7.502751 -0.000800 -0.014219 -0.003453
Ga 1.564479 0.901760 -2.749188 -0.002155 -0.017672 -0.004311
Al -0.002709 3.613060 2.475178 -0.001870 -0.000837 -0.007815
Ga -0.001571 3.612816 7.502841 -0.003292 -0.001262 -0.001698
Ga -0.003059 3.614258 -2.752289 -0.003514 -0.001560 -0.001387
Ga 3.176353 -1.885824 2.468195 -0.002628 0.001045 -0.007756
Ga 3.175634 -1.884291 7.501209 -0.003177 0.001781 -0.003553
Al 3.175114 -1.884085 -2.749333 -0.003055 0.001681 -0.002107
Ga -4.788156 0.900447 2.474882 0.001102 -0.015553 -0.010320
Al -4.787762 0.901074 7.502795 0.001225 -0.012749 -0.003002
Ga -4.788750 0.902005 -2.751619 0.000570 -0.016749 -0.003321
Ga -6.353141 3.612982 2.474671 -0.000985 0.000586 -0.007711
Ga -6.353421 3.613506 7.503558 -0.000416 -0.000849 -0.000183
Ga -6.353478 3.614599 -2.752006 0.000242 0.000025 -0.000270
Al -3.176923 -1.884147 2.474995 -0.000163 0.001557 -0.007633
Ga -3.176501 -1.884204 7.502941 -0.000845 0.003382 -0.001795
Ga -3.177233 -1.883017 -2.751479 -0.000710 0.003729 -0.001200
Ga -1.653202 0.901888 2.475042 0.015399 -0.008292 -0.013082
Ga -1.653901 0.901959 7.504131 0.015266 -0.008656 -0.006684
Ga -1.654153 0.902858 -2.752260 0.015965 -0.009038 -0.006690
Al -3.219883 3.615043 2.475403 0.011780 0.004426 -0.008212
Ga -3.221466 3.614576 7.503371 0.015114 0.007024 -0.003486
Ga -3.221559 3.616679 -2.752147 0.014733 0.008017 -0.003553
Ga -0.043157 -1.884384 2.468004 0.013669 0.009871 -0.010305
Ga -0.042975 -1.884101 7.503355 0.014678 0.010981 -0.004102
Ga -0.043346 -1.883465 -2.748711 0.014611 0.010469 -0.004102
Ga -0.000824 1.803996 4.987848 -0.014124 -0.009882 -0.005400
Al -0.001620 1.805587 -5.267966 -0.011287 -0.008271 -0.003854
Ga -0.002355 1.807217 -0.229031 -0.014077 -0.010449 0.036166
Al 3.175813 -3.693144 4.987178 -0.011527 -0.004713 -0.003557
Ga 3.175363 -3.692464 -5.266742 -0.014450 -0.008031 -0.003259
Ga 3.176467 -3.693602 -0.229635 -0.014439 -0.007593 0.036735
Al 1.609920 -0.981231 4.986032 -0.012813 0.007282 -0.004463
Ga 1.609178 -0.980880 -5.266144 -0.015965 0.009192 -0.006779
Ga 1.609502 -0.980722 -0.224999 -0.015484 0.008982 0.031882
Ga 3.131079 1.803288 4.988747 0.000098 -0.003031 -0.001497
Ga 3.130556 1.806282 -5.267998 -0.000002 -0.003362 -0.001987
Ga 3.131455 1.807569 -0.229362 0.000450 -0.003434 0.039386
Ga 6.308065 -3.692931 4.987827 -0.000425 0.000112 -0.002338
Ga 6.308691 -3.692716 -5.267071 0.000048 -0.000440 -0.000594
Al 6.308044 -3.692348 -0.247287 0.000051 -0.000084 0.035329
Al 4.741561 -0.980878 4.987841 -0.001800 0.011955 -0.002977
Ga 4.741273 -0.980326 -5.267101 -0.000627 0.016479 -0.003536
Ga 4.742894 -0.980420 -0.229129 -0.000779 0.016095 0.036638
Ga -3.220548 1.805499 4.988905 0.002876 -0.001121 -0.003275
Ga -3.221131 1.807226 -5.267953 0.002944 -0.001903 -0.003211
Al -3.220939 1.807305 -0.248284 0.003036 -0.001655 0.033353
Ga -0.041758 -3.692086 4.987700 0.003064 0.001180 -0.002319
Al -0.043388 -3.691554 -5.267144 0.002837 0.001200 -0.001392
Ga -0.044247 -3.693050 -0.229263 0.003221 0.001008 0.039361
Ga -1.609094 -0.980418 4.988163 0.001576 0.017115 -0.004959
Ga -1.609353 -0.979874 -5.266523 0.002072 0.017574 -0.004707
Ga -1.611476 -0.979702 -0.228870 0.001807 0.017433 0.035873
N 1.565000 0.898837 4.388137 -0.000847 -0.033734 -0.011725
N 1.562753 0.902574 -5.865497 -0.018728 -0.006594 -0.010249
N 1.564311 0.902570 -0.827189 -0.001170 -0.016697 0.006090
N -0.004165 3.613711 4.391045 -0.020181 0.009853 -0.013587
N -0.002311 3.612796 -5.863588 -0.002194 -0.020174 0.008312
N -0.001570 3.614892 -0.833305 0.015765 0.010349 0.010721
N 3.175613 -1.884966 4.390486 -0.002449 0.001630 0.022453
N 3.175159 -1.884181 -5.864943 -0.002749 0.001459 0.000261
N 3.175560 -1.884375 -0.828703 -0.002684 0.001523 -0.019256
N -4.787989 0.898825 4.393031 0.001177 -0.033851 0.011630
N -4.787938 0.902262 -5.866170 0.000583 -0.016567 -0.017327
N -4.787249 0.903127 -0.832891 0.018021 -0.006217 0.014853
N -6.352777 3.613081 4.392443 -0.000386 0.000102 0.002365
N -6.352595 3.615926 -5.863373 0.017806 0.011193 0.008347
N -6.354979 3.615499 -0.832958 -0.018477 0.010762 0.011218
N -3.177898 -1.882667 4.391102 -0.018718 0.012747 -0.013921
N -3.176870 -1.883741 -5.863864 -0.001078 0.002019 0.000689
N -3.176940 -1.884664 -0.832748 -0.000917 -0.018773 0.010383
N -1.653421 0.901420 4.392762 0.015971 -0.009228 0.008762
N -1.652960 0.903962 -5.863249 0.030374 -0.000849 0.014496
N -1.655417 0.903696 -0.833540 -0.001615 0.000952 0.018277
N -3.219075 3.616020 4.391276 0.029418 0.015757 -0.011336
N -3.222968 3.616810 -5.863396 -0.003259 0.018646 0.011999
N -3.221644 3.615067 -0.833399 0.014455 -0.012383 0.014363
N -0.041517 -1.883149 4.389348 0.028840 0.017917 0.009876
N -0.043505 -1.885153 -5.863103 0.014010 -0.011482 0.011380
N -0.044156 -1.883690 -0.826837 0.013847 0.009427 0.006412
N 0.000453 1.806565 1.873998 0.003625 0.000587 -0.017848
N 0.000615 1.803653 6.906618 0.003748 -0.019941 0.012110
N -0.001491 1.805471 -3.350542 -0.013647 -0.009180 -0.017678
N 3.176425 -3.697168 1.873624 -0.012187 -0.026204 -0.018219
N 3.176067 -3.693791 6.904021 -0.014435 -0.007963 -0.017068
N 3.175394 -3.690549 -3.347742 -0.014359 0.012964 0.012120
N 1.609968 -0.979251 1.867616 -0.015925 0.026199 -0.020475
N 1.609504 -0.979453 6.904078 -0.016341 0.025925 -0.008111
N 1.610817 -0.981443 -3.346120 0.002203 -0.001186 0.015482
N 3.130096 1.804363 1.873111 -0.016584 -0.012720 -0.028994
N 3.131124 1.803159 6.907896 0.000775 -0.021870 0.015590
N 3.130655 1.805878 -3.348620 0.001015 -0.001726 0.000527
N 6.306970 -3.692288 1.889645 -0.017776 0.010372 -0.037623
N 6.308876 -3.693381 6.906496 0.001035 -0.000198 0.001141
N 6.308446 -3.692413 -3.348678 0.000720 -0.000381 0.001709
N 4.745228 -0.982472 1.872079 0.017009 0.006908 -0.024093
N 4.742278 -0.979201 6.904677 -0.000363 0.033373 -0.011760
N 4.739782 -0.980897 -3.347701 -0.018385 0.006001 0.011843
N -3.220502 1.807956 1.888836 0.002346 0.019047 -0.046011
N -3.222078 1.805015 6.907648 -0.015054 -0.011954 0.008012
N -3.221333 1.806859 -3.349281 0.002558 -0.001654 0.001026
N -0.040976 -3.695188 1.873023 0.020321 -0.010244 -0.028771
N -0.042875 -3.692664 6.906131 0.001718 0.000338 0.000785
N -0.043428 -3.691489 -3.349952 0.001748 -0.000074 -0.021779
N -1.612397 -0.981871 1.872349 -0.016567 0.006942 -0.024910
N -1.609325 -0.980697 6.906794 0.001294 0.016696 0.004204
N -1.609652 -0.979672 -3.347909 0.001091 0.016598 0.004658
