108
Energy=-2.130354e+06 Lattice="9.507003e+00 0.000000e+00 0.000000e+00 -4.760693e+00 8.223849e+00 0.000000e+00 -2.573658e-03 1.002719e-02 1.540532e+01" Stress="-4.875688e-02 4.866138e-03 -3.434940e-05 4.846109e-03 -4.459889e-02 4.676868e-04 -3.577635e-05 4.492411e-04 -3.441496e-02" Properties=species:S:1:pos:R:3:forces:R:3 Config_type=AlGaN_super3_37_1_2.xyz
Al 1.577513e+00 9.158797e-01 2.463258e+00 -7.626571e-03 -1.704043e-02 2.402962e-03
Al 1.565274e+00 9.043158e-01 7.561311e+00 -8.528255e-04 -1.136410e-02 -2.393190e-03
Ga 1.564430e+00 8.936491e-01 -2.771407e+00 9.920189e-04 -1.330277e-02 -2.083344e-03
Al -8.431205e-03 3.618201e+00 2.480451e+00 -2.323054e-03 -1.662080e-03 -5.051575e-03
Al -8.326257e-03 3.621141e+00 7.562781e+00 -2.349457e-03 -1.362840e-03 -5.796978e-04
Ga -4.994396e-03 3.614101e+00 -2.765953e+00 -1.284577e-03 1.563616e-04 1.288715e-03
Ga 3.175863e+00 -1.876014e+00 2.479151e+00 -4.072700e-03 6.873243e-04 -6.088535e-03
Ga 3.179849e+00 -1.877555e+00 7.565703e+00 -3.678405e-03 1.371424e-04 -8.131660e-04
Ga 3.180365e+00 -1.888515e+00 -2.768732e+00 -7.132500e-04 2.243764e-03 3.242937e-04
Al -4.802142e+00 9.043263e-01 2.494160e+00 1.424168e-03 -1.062809e-02 -5.620131e-03
Ga -4.801981e+00 9.026426e-01 7.563600e+00 1.015220e-03 -1.155879e-02 -1.405950e-03
Ga -4.795301e+00 8.949067e-01 -2.770202e+00 -4.163105e-04 -1.320067e-02 -1.286789e-03
Al -6.377413e+00 3.614104e+00 2.491612e+00 7.124377e-05 1.363345e-03 -4.747958e-03
Ga -6.373643e+00 3.620942e+00 7.564721e+00 -4.185078e-04 -4.933692e-05 6.414023e-04
Al -6.367942e+00 3.619217e+00 -2.775168e+00 1.557027e-04 -6.817903e-04 1.157927e-04
Ga -3.184466e+00 -1.878298e+00 2.482923e+00 -1.290175e-03 3.676672e-04 -5.168746e-03
Ga -3.186065e+00 -1.876930e+00 7.563412e+00 1.224990e-03 1.587737e-03 1.479686e-04
Al -3.177940e+00 -1.887252e+00 -2.770658e+00 -1.177848e-03 2.519335e-03 1.904858e-05
Ga -1.654797e+00 9.023493e-01 2.488220e+00 1.412683e-02 -5.663793e-03 -8.645864e-03
Ga -1.651714e+00 9.064393e-01 7.560024e+00 1.296543e-02 -6.903569e-03 -5.158824e-03
Ga -1.649734e+00 8.945168e-01 -2.764650e+00 1.201701e-02 -7.887043e-03 -3.203181e-03
Ga -3.230374e+00 3.619462e+00 2.485293e+00 1.171430e-02 7.200231e-03 -6.613408e-03
Ga -3.226394e+00 3.626316e+00 7.563454e+00 1.214989e-02 5.551561e-03 -1.813343e-03
Ga -3.226738e+00 3.619485e+00 -2.766921e+00 1.077957e-02 6.226121e-03 -6.611165e-04
Ga -4.540750e-02 -1.875899e+00 2.481733e+00 1.415155e-02 7.308978e-03 -6.632030e-03
Ga -3.981638e-02 -1.873953e+00 7.562619e+00 1.160073e-02 8.278032e-03 -2.674929e-03
Al -3.919234e-02 -1.886042e+00 -2.772878e+00 9.380225e-03 5.393163e-03 -1.494323e-03
Ga -5.790186e-03 1.806647e+00 5.027134e+00 -1.087515e-02 -8.978234e-03 -4.173268e-03
Ga -3.204563e-03 1.798122e+00 -5.311846e+00 -1.094986e-02 -8.176087e-03 -2.738897e-03
Al -5.736952e-03 1.799060e+00 -2.328559e-01 -9.405733e-03 -5.770860e-03 2.833044e-02
Ga 3.179748e+00 -3.698153e+00 5.026078e+00 -1.202214e-02 -5.268691e-03 -2.108210e-03
Ga 3.181840e+00 -3.702777e+00 -5.306224e+00 -1.156652e-02 -6.059342e-03 -1.707787e-03
Ga 3.180080e+00 -3.702523e+00 -2.092999e-01 -1.048822e-02 -5.035651e-03 2.947121e-02
Ga 1.605399e+00 -9.691795e-01 5.029886e+00 -1.324875e-02 7.512576e-03 -6.442483e-03
Ga 1.610072e+00 -9.828454e-01 -5.306433e+00 -1.259133e-02 7.953741e-03 -4.759213e-03
Al 1.603827e+00 -9.775826e-01 -2.405659e-01 -1.092950e-02 6.326778e-03 2.731551e-02
Al 3.137494e+00 1.808122e+00 5.025620e+00 -1.483268e-04 -2.730438e-03 -1.827081e-03
Al 3.140547e+00 1.799570e+00 -5.308727e+00 -1.715144e-04 -2.379945e-03 -2.457413e-04
Ga 3.135974e+00 1.800386e+00 -2.199108e-01 2.100847e-04 -1.982465e-03 3.246511e-02
Ga 6.323193e+00 -3.694976e+00 5.025779e+00 3.677499e-04 2.211295e-04 9.016609e-05
Ga 6.328180e+00 -3.701709e+00 -5.304724e+00 3.062961e-04 -4.993889e-04 9.591144e-04
Ga 6.328190e+00 -3.702922e+00 -2.215849e-01 -4.641094e-04 1.328235e-04 3.353098e-02
Ga 4.752294e+00 -9.681041e-01 5.026458e+00 -9.836688e-04 1.270129e-02 -3.135644e-03
Al 4.753142e+00 -9.796609e-01 -5.304268e+00 -1.474400e-03 1.083481e-02 -5.180420e-04
Ga 4.752192e+00 -9.796193e-01 -2.156467e-01 -7.836248e-04 1.254599e-02 3.032327e-02
Al -3.226937e+00 1.808116e+00 5.025296e+00 2.298605e-03 -1.638586e-03 -1.948032e-03
Ga -3.226446e+00 1.801364e+00 -5.306145e+00 1.757956e-03 -1.292655e-03 -1.018940e-03
Ga -3.220683e+00 1.803155e+00 -2.133024e-01 1.630908e-03 -1.959041e-03 3.189675e-02
Ga -4.045184e-02 -3.693367e+00 5.024590e+00 2.167474e-03 1.745965e-03 -1.924374e-03
Al -3.664085e-02 -3.701371e+00 -5.306003e+00 1.705473e-03 7.055765e-04 4.632855e-04
Ga -3.495622e-02 -3.695845e+00 -2.221260e-01 9.906117e-04 9.561119e-04 3.328801e-02
Al -1.612627e+00 -9.678640e-01 5.026277e+00 9.034237e-04 1.144312e-02 -2.317859e-03
Ga -1.609528e+00 -9.815611e-01 -5.302905e+00 1.158049e-03 1.392612e-02 -1.800503e-03
Ga -1.602874e+00 -9.770711e-01 -2.202115e-01 -9.224925e-05 1.348288e-02 2.921030e-02
N 1.573783e+00 9.065576e-01 4.423969e+00 1.402459e-02 -3.878909e-03 -1.455543e-02
N 1.574417e+00 8.969113e-01 -5.917598e+00 1.451451e-02 -4.757524e-03 -9.536791e-03
N 1.558611e+00 8.906886e-01 -8.322136e-01 -1.431082e-02 -1.857933e-02 1.632936e-02
N -1.007654e-02 3.621481e+00 4.410849e+00 -1.641884e-03 4.731359e-04 -1.973054e-02
N -6.239290e-03 3.613743e+00 -5.918740e+00 -1.495203e-03 7.377776e-04 -1.863111e-02
N -7.832129e-03 3.607601e+00 -8.270487e-01 -1.839604e-03 -1.695286e-02 7.830768e-03
N 3.176634e+00 -1.878826e+00 4.420388e+00 -1.494145e-03 5.030643e-04 -1.313653e-03
N 3.188559e+00 -1.884028e+00 -5.905001e+00 1.322790e-02 9.831058e-03 5.269828e-03
N 3.173213e+00 -1.883298e+00 -8.277388e-01 -1.655143e-02 9.501148e-03 7.510471e-03
N -4.798308e+00 9.112070e-01 4.422570e+00 8.358308e-04 4.784595e-03 -4.332000e-03
N -4.803478e+00 8.888640e-01 -5.903968e+00 -1.357096e-02 -1.955592e-02 1.329415e-02
N -4.795684e+00 8.948849e-01 -8.301070e-01 5.917708e-04 -1.209009e-02 4.945282e-03
N -6.373176e+00 3.614205e+00 4.419516e+00 -2.283680e-04 -1.687705e-02 -1.308821e-02
N -6.360939e+00 3.610441e+00 -5.904482e+00 1.468648e-02 -8.098850e-03 1.283651e-02
N -6.367345e+00 3.616225e+00 -8.435694e-01 6.943774e-05 -4.766849e-04 -1.536354e-02
N -3.176408e+00 -1.872949e+00 4.423646e+00 1.405747e-02 9.390253e-03 4.816423e-03
N -3.188565e+00 -1.882021e+00 -5.906528e+00 -1.612404e-02 1.005521e-02 5.733976e-03
N -3.180552e+00 -1.885154e+00 -8.393258e-01 -7.663686e-04 1.682350e-03 -1.529908e-02
N -1.660389e+00 8.984957e-01 4.429116e+00 -1.984081e-03 -1.271289e-02 1.602352e-02
N -1.651391e+00 8.948619e-01 -5.911386e+00 1.253415e-02 -7.473127e-03 5.760136e-03
N -1.642866e+00 9.020521e-01 -8.264100e-01 2.527534e-02 3.435570e-04 1.236255e-02
N -3.226943e+00 3.616099e+00 4.424303e+00 1.183604e-02 -1.103653e-02 8.106155e-03
N -3.232015e+00 3.621413e+00 -5.906688e+00 -2.859219e-03 1.477402e-02 8.805679e-03
N -3.224096e+00 3.618988e+00 -8.275374e-01 1.170683e-02 5.557196e-03 4.715214e-03
N -4.851240e-02 -1.869644e+00 4.423300e+00 -3.360262e-03 1.481970e-02 8.119421e-03
N -3.798844e-02 -1.893709e+00 -5.907807e+00 1.138517e-02 -9.980519e-03 9.268333e-03
N -2.982385e-02 -1.879741e+00 -8.427580e-01 2.378031e-02 1.356518e-02 -8.537305e-03
N 5.311666e-05 1.809941e+00 1.882660e+00 2.822462e-03 1.017907e-03 -2.998638e-02
N 5.698897e-04 1.812288e+00 6.964747e+00 3.313579e-03 1.590551e-03 1.456070e-02
N -5.737866e-03 1.798520e+00 -3.376091e+00 -1.221697e-02 -6.913461e-03 2.457133e-03
N 3.185270e+00 -3.701418e+00 1.872116e+00 2.565796e-03 -1.418677e-02 -1.908953e-02
N 3.187026e+00 -3.699299e+00 6.963207e+00 3.153337e-03 -1.403414e-02 8.715319e-03
N 3.181815e+00 -3.704550e+00 -3.372181e+00 -1.184371e-02 -6.731108e-03 2.682207e-03
N 1.600395e+00 -9.619102e-01 1.874516e+00 -1.207048e-02 2.129391e-02 -3.378225e-02
N 1.606507e+00 -9.632929e-01 6.965092e+00 -1.270883e-02 2.153571e-02 1.116239e-02
N 1.600271e+00 -9.865769e-01 -3.372477e+00 -2.603805e-02 4.993740e-05 1.235099e-02
N 3.133081e+00 1.802123e+00 1.897321e+00 5.618333e-03 2.032455e-03 -1.697946e-02
N 3.129279e+00 1.804532e+00 6.953270e+00 -1.364720e-02 -9.750312e-03 -1.281841e-02
N 3.138563e+00 1.808216e+00 -3.381858e+00 4.429196e-04 1.592507e-02 -1.167762e-02
N 6.322214e+00 -3.706125e+00 1.883824e+00 1.320622e-03 -1.598000e-02 -1.878835e-02
N 6.315443e+00 -3.697842e+00 6.963577e+00 -1.438667e-02 -8.382975e-03 5.490937e-03
N 6.333314e+00 -3.697640e+00 -3.368030e+00 1.475913e-02 8.290153e-03 1.248393e-02
N 4.749432e+00 -9.586440e-01 1.879253e+00 6.080225e-05 2.672399e-02 -2.216724e-02
N 4.750325e+00 -9.701476e-01 6.959591e+00 -6.489877e-04 1.329505e-02 2.266062e-03
N 4.760996e+00 -9.847620e-01 -3.379137e+00 1.427359e-02 3.965204e-03 -8.568540e-03
N -3.236839e+00 1.802056e+00 1.879554e+00 -1.203751e-02 -1.048298e-02 -2.471615e-02
N -3.226756e+00 1.810547e+00 6.951480e+00 1.406242e-03 -1.464606e-03 -1.910027e-02
N -3.222018e+00 1.802237e+00 -3.372340e+00 3.022799e-03 -8.741608e-04 -4.564516e-04
N -5.151161e-02 -3.701422e+00 1.880547e+00 -1.302018e-02 -8.038833e-03 -2.470867e-02
N -3.904893e-02 -3.691462e+00 6.958231e+00 1.147127e-03 -1.261413e-04 -5.176363e-05
N -4.228708e-02 -3.695594e+00 -3.377924e+00 -1.306121e-02 8.567256e-03 -6.063997e-03
N -1.613501e+00 -9.709314e-01 1.865565e+00 1.159265e-04 1.344327e-02 -2.732081e-02
N -1.611531e+00 -9.696873e-01 6.950951e+00 -6.933530e-05 1.275009e-02 -1.578489e-02
N -1.607701e+00 -9.870784e-01 -3.366712e+00 5.602908e-04 -3.496049e-03 1.506888e-02
