108
Energy=-757092.642265 Lattice="9.432772 0.000000 0.000000 -4.718194 8.165808 0.000000 -0.000149 0.000328 15.159469" Stress="-0.000002 -0.000000 0.000000 -0.000000 -0.000004 0.000000 0.000000 0.000000 0.000001" Properties=species:S:1:pos:R:3:forces:R:3
Al 1.549699 0.878349 2.390456 -0.000183 -0.001302 -0.000370
Al 1.548889 0.867476 7.429968 0.000141 -0.000239 0.000102
Al 1.548945 0.873310 -2.694198 0.000086 0.000332 0.000409
Al -0.021874 3.587827 2.385336 0.000014 0.000099 -0.000068
Al -0.021387 3.590230 7.423379 -0.000038 -0.000063 -0.000066
Al -0.020632 3.581495 -2.679477 0.000012 -0.000132 0.000125
Al 3.129310 -1.855795 2.399325 -0.000113 0.000081 -0.000499
Al 3.116568 -1.856033 7.412605 -0.000071 0.000042 -0.000126
Al 3.118284 -1.855622 -2.677392 0.000199 0.000002 0.000607
Al -4.748599 0.866047 2.397237 0.000185 -0.000579 -0.000228
Al -4.739852 0.876156 7.412057 0.000154 -0.000043 -0.000074
Al -4.754164 0.873190 -2.676033 -0.000034 -0.000044 0.000016
Al -6.316187 3.587262 2.374868 -0.000190 0.000026 -0.000187
Al -6.320938 3.586223 7.437593 -0.000091 -0.000015 -0.000077
Al -6.316279 3.580635 -2.679703 0.000142 0.000038 0.000069
Al -3.170375 -1.856502 2.367070 0.000053 0.000218 -0.000119
Al -3.167085 -1.861831 7.432628 -0.000024 -0.000025 -0.000113
Ga -3.158766 -1.856164 -2.663220 0.000021 -0.000067 0.000015
Al -1.585365 0.871915 2.388979 -0.000443 -0.000390 -0.000468
Al -1.597235 0.878744 7.436001 0.000349 -0.000141 -0.000096
Al -1.582998 0.865409 -2.691061 0.000559 0.000098 0.000485
Al -3.164469 3.597938 2.382202 0.000098 -0.001334 -0.000808
Al -3.160848 3.585709 7.443078 0.000160 -0.000065 -0.000078
Ga -3.168970 3.597822 -2.687305 0.000185 -0.000112 0.000105
Al -0.022203 -1.854696 2.376611 -0.000164 0.000238 0.000856
Al -0.013295 -1.846936 7.450668 0.000249 0.000016 -0.000376
Al -0.024215 -1.849843 -2.691210 0.000073 -0.000188 0.000817
Al -0.016370 1.784140 4.912798 -0.000080 0.000052 -0.000095
Al -0.023648 1.777992 -5.213225 -0.000164 0.000086 0.000030
Al -0.018538 1.784321 -0.147428 -0.000047 -0.000238 -0.001090
Al 3.132623 -3.670627 4.907425 -0.000034 0.000014 -0.000095
Al 3.126714 -3.673708 -5.220626 -0.000065 0.000116 -0.000255
Al 3.139793 -3.665651 -0.132776 -0.000339 0.000132 -0.000095
Al 1.563311 -0.935602 4.903876 -0.000350 -0.000195 0.000063
Al 1.545808 -0.947360 -5.202356 -0.000333 0.000162 -0.000089
Ga 1.552463 -0.944197 -0.148387 -0.000348 -0.000102 0.000016
Al 3.113703 1.771397 4.908821 0.000010 -0.000076 -0.000140
Al 3.116728 1.783017 -5.211765 0.000056 -0.000025 0.000142
Al 3.116520 1.782522 -0.144145 -0.000515 -0.000191 -0.000877
Al 6.254627 -3.675468 4.901988 0.000074 0.000071 -0.000186
Al 6.268274 -3.683149 -5.209235 0.000051 0.000005 0.000046
Al 6.265486 -3.678343 -0.139589 0.000299 -0.000148 -0.000103
Al 4.689587 -0.948007 4.909459 -0.000056 0.000193 -0.000102
Ga 4.689490 -0.943802 -5.216736 -0.000207 0.000112 -0.000097
Al 4.690454 -0.949366 -0.135724 -0.000146 0.000005 0.000120
Al -3.165906 1.779249 4.901791 0.000069 -0.000019 -0.000141
Al -3.165803 1.777214 -5.210275 0.000032 -0.000048 -0.000234
Ga -3.168046 1.765710 -0.136039 0.000182 -0.000137 0.000010
Ga -0.018792 -3.677058 4.919223 0.000129 0.000114 0.000032
Al -0.028789 -3.667498 -5.222163 -0.000026 0.000088 -0.000400
Al -0.037529 -3.668000 -0.137203 -0.000248 0.000835 -0.000306
Ga -1.598256 -0.939933 4.914272 -0.000226 0.000161 0.000020
Al -1.583507 -0.942501 -5.219618 -0.000117 0.000144 -0.000572
Al -1.590376 -0.948626 -0.133501 0.000048 0.000129 -0.000138
N 1.547725 0.874594 4.308131 0.000074 -0.000185 -0.000038
N 1.548610 0.866659 -5.805491 0.000175 -0.000166 -0.000143
N 1.546929 0.919514 -0.776398 0.000998 -0.000216 -0.000288
N -0.023180 3.588352 4.303592 -0.000081 -0.000073 0.000217
N -0.021393 3.588779 -5.820097 -0.000061 -0.000056 -0.000035
N -0.024314 3.590314 -0.754493 -0.000076 0.000027 0.000068
N 3.125931 -1.855417 4.316374 0.000000 0.000032 0.000189
N 3.077094 -1.876566 -5.838036 0.000017 -0.000125 0.000064
N 3.162320 -1.880580 -0.765299 0.000190 -0.000129 -0.000315
N -4.743982 0.868128 4.317031 0.000146 0.000016 0.000184
N -4.741630 0.920119 -5.838327 0.000091 -0.000008 0.000060
N -4.783576 0.845833 -0.764073 -0.000234 0.000140 0.000128
N -6.352765 3.566705 4.286658 -0.000052 -0.000023 0.000118
N -6.317953 3.586706 -5.811884 -0.000046 -0.000014 0.000114
N -6.312272 3.588559 -0.752818 -0.000144 0.000032 -0.000046
N -3.207053 -1.877277 4.283913 -0.000043 -0.000088 -0.000038
N -3.127453 -1.882576 -5.817866 0.000042 -0.000106 0.000170
N -3.163497 -1.855074 -0.683435 -0.000139 0.000055 0.000118
N -1.588976 0.917769 4.295456 0.000199 -0.000075 0.000025
N -1.597056 0.875478 -5.809881 0.000357 -0.000129 0.000250
N -1.551434 0.843881 -0.771030 -0.000201 -0.000079 -0.000288
N -3.126189 3.573414 4.290133 0.000020 -0.000230 0.000006
N -3.165593 3.587914 -5.798338 0.000185 -0.000056 0.000195
N -3.167535 3.639465 -0.711614 0.000467 0.000004 0.000100
N 0.017554 -1.832322 4.280759 0.000093 0.000052 -0.001321
N -0.016151 -1.849195 -5.801855 0.000311 -0.000125 0.000325
N -0.064285 -1.877873 -0.769876 -0.000009 -0.000318 -0.000839
N -0.019480 1.776966 1.772435 -0.000232 0.000102 0.000638
N -0.021166 1.774868 6.830830 -0.000213 0.000126 0.000101
N -0.023232 1.777633 -3.292982 -0.000070 0.000124 -0.000161
N 3.129426 -3.664837 1.787107 0.000007 -0.000236 -0.000102
N 3.122933 -3.673231 6.824726 -0.000121 0.000078 0.000215
N 3.169052 -3.646201 -3.309507 -0.000020 0.000151 0.000110
N 1.555050 -0.946949 1.828572 0.000370 0.001503 0.000781
N 1.548373 -0.943607 6.821166 -0.000182 0.000272 0.000145
N 1.552436 -0.949059 -3.277258 -0.000114 0.000338 0.000137
N 3.121073 1.774497 1.775759 0.000024 -0.000285 0.000513
N 3.116040 1.777687 6.823781 -0.000021 0.000001 0.000060
N 3.121861 1.776683 -3.291963 -0.000200 0.000014 -0.000040
N 6.264994 -3.675135 1.777084 -0.000110 -0.000027 -0.000022
N 6.267005 -3.669874 6.819918 0.000110 0.000002 0.000039
N 6.265841 -3.716676 -3.294889 0.000039 -0.000175 0.000094
N 4.688704 -0.942477 1.785603 -0.000400 0.000090 0.000010
N 4.697330 -0.947554 6.830130 -0.000129 0.000084 0.000121
N 4.656551 -0.924078 -3.250178 -0.000218 -0.000020 -0.000132
N -3.171160 1.766591 1.835788 0.000575 0.001872 0.001246
N -3.164779 1.779575 6.820988 -0.000099 0.000009 0.000036
N -3.169432 1.726271 -3.293613 -0.000113 -0.000020 0.000221
N -0.026370 -3.668562 1.782014 0.000216 -0.000284 0.000262
N -0.021647 -3.668698 6.894805 -0.000009 0.000013 0.000335
N -0.068264 -3.646496 -3.309168 -0.000179 -0.000046 0.000153
N -1.591284 -0.942548 1.786282 0.000108 0.000181 0.000232
N -1.592375 -0.945079 6.887407 -0.000150 0.000145 0.000328
N -1.555923 -0.923885 -3.310343 -0.000126 0.000141 0.000382
