108
Energy=-1.214847e+06 Lattice="9.487433e+00 0.000000e+00 0.000000e+00 -4.745398e+00 8.212868e+00 0.000000e+00 1.810810e-03 -2.914358e-03 1.530037e+01" Stress="-2.472766e-04 -1.540603e-04 1.100420e-04 -1.446723e-04 -7.073180e-04 -8.160468e-05 1.035822e-04 -8.578662e-05 4.801816e-04" Properties=species:S:1:pos:R:3:forces:R:3 Config_type=AlGaN_super3_17_1_20.xyz
Al 1.557769e+00 8.732707e-01 2.396307e+00 5.315587e-09 2.705598e-05 -4.293017e-04
Al 1.560395e+00 8.800013e-01 7.530546e+00 -5.806207e-05 -5.894311e-05 1.735968e-04
Al 1.556370e+00 8.785468e-01 -2.723882e+00 2.128585e-04 -1.684384e-04 -3.064225e-04
Al -1.854368e-02 3.605267e+00 2.416075e+00 1.766171e-04 2.708787e-04 -3.806712e-05
Al -2.972867e-02 3.609838e+00 7.487776e+00 8.258861e-05 -3.812116e-05 8.173418e-05
Al -2.346079e-02 3.598889e+00 -2.701714e+00 -1.144369e-05 -3.229083e-05 -2.857778e-06
Al 3.142834e+00 -1.863970e+00 2.409453e+00 -2.848648e-04 7.987526e-05 1.162397e-04
Al 3.156845e+00 -1.868967e+00 7.516833e+00 6.345641e-05 7.952603e-05 3.068624e-06
Ga 3.136380e+00 -1.862778e+00 -2.720601e+00 -1.313864e-04 2.017865e-05 1.961477e-04
Al -4.771354e+00 8.709888e-01 2.435498e+00 -1.350823e-05 -8.540223e-05 5.295170e-05
Al -4.767533e+00 8.632432e-01 7.512521e+00 1.427505e-04 -2.214488e-04 -1.072553e-04
Al -4.772306e+00 8.817003e-01 -2.738853e+00 6.583611e-05 3.892407e-05 8.425880e-05
Al -6.359031e+00 3.603814e+00 2.405483e+00 1.970853e-04 1.270409e-03 2.812214e-04
Ga -6.348665e+00 3.605016e+00 7.514274e+00 -8.105045e-05 1.324219e-04 2.748391e-04
Al -6.347703e+00 3.601849e+00 -2.711626e+00 5.352386e-05 5.216711e-05 8.229329e-05
Ga -3.193099e+00 -1.874423e+00 2.402174e+00 6.436164e-05 1.856302e-04 -2.983534e-04
Al -3.208001e+00 -1.865649e+00 7.508103e+00 2.363641e-06 8.218123e-05 1.785998e-05
Ga -3.173143e+00 -1.859807e+00 -2.694694e+00 -2.032095e-05 1.939327e-04 1.014866e-04
Al -1.601078e+00 8.803932e-01 2.422584e+00 8.986113e-05 1.450086e-04 1.428837e-05
Ga -1.603392e+00 8.945542e-01 7.522315e+00 2.403383e-04 -2.589412e-04 1.550112e-04
Al -1.597393e+00 8.733889e-01 -2.736761e+00 1.252277e-04 1.679603e-05 9.475671e-06
Ga -3.181900e+00 3.610234e+00 2.409857e+00 -1.856522e-04 -1.979544e-05 -1.223037e-04
Al -3.179909e+00 3.611623e+00 7.504894e+00 3.895885e-06 -1.390619e-04 -1.351247e-04
Ga -3.183210e+00 3.609525e+00 -2.706036e+00 1.085714e-04 -6.399461e-05 9.861176e-05
Ga -1.674807e-02 -1.859937e+00 2.387886e+00 2.979716e-04 4.138875e-05 -7.018299e-05
Ga -1.156956e-02 -1.872944e+00 7.531029e+00 8.926544e-05 1.097306e-04 3.631341e-04
Al -2.294735e-02 -1.851462e+00 -2.709010e+00 2.592223e-05 -1.405231e-04 9.745154e-05
Al -2.474947e-02 1.798729e+00 4.944380e+00 -8.622699e-05 3.310634e-04 -1.131376e-04
Al -2.204546e-02 1.790115e+00 -5.236206e+00 8.214324e-05 -1.071820e-04 9.410809e-05
Ga -2.753109e-02 1.784065e+00 -1.567548e-01 -2.136893e-04 9.550790e-05 3.456978e-04
Al 3.149119e+00 -3.694272e+00 4.966466e+00 -3.658208e-05 5.516035e-05 1.526550e-06
Al 3.137919e+00 -3.694843e+00 -5.279947e+00 -8.262797e-05 1.427061e-04 4.098864e-05
Al 3.149066e+00 -3.684127e+00 -1.363259e-01 3.734688e-05 5.330109e-05 -1.092627e-06
Ga 1.574372e+00 -9.555144e-01 4.971100e+00 -2.681054e-04 -3.233002e-05 -1.407584e-04
Al 1.561385e+00 -9.461851e-01 -5.254094e+00 -1.703031e-04 1.041042e-04 2.064464e-04
Al 1.552928e+00 -9.639858e-01 -1.605154e-01 -1.395531e-04 6.009501e-05 2.167450e-04
Ga 3.136948e+00 1.786070e+00 4.952300e+00 4.665184e-04 1.812135e-04 1.504142e-04
Al 3.142767e+00 1.774762e+00 -5.245878e+00 -3.450521e-05 9.129698e-06 -1.161864e-04
Ga 3.137335e+00 1.792495e+00 -1.467280e-01 2.479150e-04 6.275281e-06 3.487692e-04
Al 6.291119e+00 -3.694405e+00 4.961820e+00 8.957157e-05 -3.042737e-05 7.286977e-05
Ga 6.291959e+00 -3.691178e+00 -5.247879e+00 3.980603e-06 8.201705e-05 2.461797e-04
Al 6.306582e+00 -3.699343e+00 -1.567424e-01 1.230044e-05 -1.568056e-04 8.332612e-06
Al 4.718557e+00 -9.595935e-01 4.969903e+00 -1.178520e-05 -5.452560e-05 -7.389563e-05
Al 4.719770e+00 -9.412974e-01 -5.270462e+00 -1.463469e-04 -1.361605e-05 -4.390241e-05
Ga 4.714546e+00 -9.554968e-01 -1.389522e-01 -1.654697e-04 -2.250873e-05 7.321082e-04
Al -3.186263e+00 1.791797e+00 4.965228e+00 6.058485e-05 -3.334827e-06 5.830778e-05
Al -3.193278e+00 1.791509e+00 -5.256390e+00 -2.125408e-05 -6.571138e-05 -2.423966e-05
Ga -3.182604e+00 1.778814e+00 -1.501639e-01 2.530968e-05 8.962109e-06 4.671264e-04
Al -1.964641e-02 -3.702455e+00 4.959973e+00 3.984418e-05 -1.202193e-04 7.121902e-05
Al -1.027885e-02 -3.687285e+00 -5.231487e+00 2.768860e-05 -2.822572e-05 1.419664e-04
Al -3.198747e-02 -3.674642e+00 -1.699433e-01 -1.090451e-04 -3.316248e-05 -5.812377e-05
Ga -1.615262e+00 -9.483003e-01 4.965632e+00 2.791977e-05 2.551619e-04 6.159642e-05
Al -1.601814e+00 -9.450082e-01 -5.243364e+00 1.283065e-04 -2.857737e-04 9.464788e-05
Al -1.587446e+00 -9.530882e-01 -1.617021e-01 -1.379458e-04 7.641128e-05 2.809564e-04
N 1.514679e+00 8.887904e-01 4.301796e+00 -8.310587e-05 1.028174e-04 2.788099e-04
N 1.552951e+00 8.817895e-01 -5.847752e+00 5.264785e-05 -1.658457e-04 -7.207837e-05
N 1.559835e+00 8.262481e-01 -8.064040e-01 3.210062e-05 -2.533397e-05 3.012165e-04
N -2.411826e-02 3.613832e+00 4.345034e+00 -1.092023e-04 -1.186385e-04 -1.300300e-05
N -6.311701e-02 3.581801e+00 -5.898898e+00 -2.817985e-04 -1.418872e-04 -3.564071e-05
N -2.849295e-02 3.655589e+00 -7.840984e-01 -1.342478e-04 1.994213e-04 2.020066e-04
N 3.180806e+00 -1.893485e+00 4.332686e+00 6.254647e-05 -2.800835e-05 -1.255644e-04
N 3.142563e+00 -1.864285e+00 -5.860963e+00 -7.814760e-05 5.852340e-05 -2.141977e-04
N 3.101414e+00 -1.892007e+00 -7.445513e-01 -4.156398e-04 -1.343304e-05 2.749440e-04
N -4.724999e+00 8.462171e-01 4.348568e+00 1.972639e-04 -1.562287e-04 -2.919838e-04
N -4.767628e+00 8.768937e-01 -5.867066e+00 9.639909e-05 7.606954e-05 3.491829e-05
N -4.770605e+00 8.731495e-01 -8.334179e-01 1.631013e-04 8.305269e-05 -2.496282e-05
N -6.352030e+00 3.660548e+00 4.330377e+00 -1.678473e-04 3.433683e-04 -1.619939e-04
N -6.305774e+00 3.590458e+00 -5.817072e+00 2.768325e-04 -1.545961e-04 1.160040e-04
N -6.348195e+00 3.651473e+00 -7.930972e-01 3.715847e-05 1.961427e-04 1.179490e-05
N -3.227342e+00 -1.891987e+00 4.377509e+00 -1.671843e-04 -1.895327e-04 -4.759211e-05
N -3.184634e+00 -1.818867e+00 -5.875714e+00 -1.146071e-04 2.208997e-04 -9.553036e-05
N -3.144380e+00 -1.886675e+00 -7.170269e-01 1.236200e-04 2.594908e-05 4.252508e-04
N -1.606060e+00 9.232822e-01 4.341038e+00 -3.419220e-05 -2.363014e-04 1.501154e-05
N -1.602142e+00 8.831972e-01 -5.799160e+00 2.522933e-05 -7.767780e-05 -3.295067e-05
N -1.606251e+00 8.291382e-01 -8.226488e-01 3.676784e-04 -3.455588e-04 -7.024971e-05
N -3.182154e+00 3.614311e+00 4.395158e+00 6.119140e-05 -7.272079e-05 5.531060e-05
N -3.191330e+00 3.614206e+00 -5.866279e+00 -5.530405e-05 -8.438446e-05 -1.889055e-04
N -3.180562e+00 3.658997e+00 -7.245671e-01 -3.792172e-05 -5.827779e-06 2.235934e-04
N -2.063770e-02 -1.909508e+00 4.359124e+00 2.930180e-04 -2.488239e-04 -1.286314e-04
N -2.148326e-02 -1.866515e+00 -5.798101e+00 -6.342632e-05 1.224242e-05 3.677486e-05
N -2.058819e-02 -1.860571e+00 -7.745443e-01 2.641958e-04 -3.218678e-05 9.849808e-05
N -2.714355e-02 1.785347e+00 1.834169e+00 -1.007356e-05 1.175958e-04 -2.005192e-04
N 2.437785e-02 1.804858e+00 6.866130e+00 -1.856256e-04 -7.903366e-05 1.130144e-04
N -1.828712e-02 1.792609e+00 -3.315068e+00 -1.390432e-04 1.489329e-04 1.541759e-04
N 3.188088e+00 -3.668881e+00 1.783510e+00 1.597763e-04 6.934049e-05 -3.905616e-05
N 3.140650e+00 -3.687759e+00 6.896913e+00 -1.517877e-06 1.751547e-05 -8.989157e-05
N 3.185857e+00 -3.716710e+00 -3.370193e+00 -1.271843e-05 -1.001953e-04 -1.875213e-04
N 1.604247e+00 -9.297850e-01 1.763599e+00 -6.823870e-06 1.370565e-04 -2.877353e-05
N 1.606394e+00 -9.260419e-01 6.946901e+00 -2.993170e-05 5.357120e-05 2.567974e-05
N 1.522044e+00 -9.271280e-01 -3.340044e+00 -5.114608e-04 2.567618e-04 -1.637037e-04
N 3.144087e+00 1.786879e+00 1.848061e+00 -1.430176e-04 -1.405076e-03 -4.582872e-04
N 3.137376e+00 1.734936e+00 6.927737e+00 7.085561e-05 -2.574422e-04 9.567447e-05
N 3.137115e+00 1.786058e+00 -3.324262e+00 -5.012524e-05 -5.646652e-05 3.887397e-06
N 6.300339e+00 -3.747936e+00 1.766608e+00 -9.062280e-05 -7.329457e-05 -4.875488e-05
N 6.263159e+00 -3.669479e+00 6.883500e+00 -1.144694e-04 1.099074e-04 -1.899596e-04
N 6.297947e+00 -3.735829e+00 -3.278419e+00 1.259934e-04 -9.252785e-05 -9.445845e-05
N 4.677063e+00 -9.229333e-01 1.833396e+00 2.506754e-04 2.717466e-04 -1.183731e-03
N 4.717788e+00 -9.513206e-01 6.898360e+00 -2.141874e-04 -5.181729e-05 -1.239474e-04
N 4.725885e+00 -9.095003e-01 -3.361297e+00 -5.840056e-05 1.040769e-04 -1.184255e-04
N -3.188963e+00 1.733890e+00 1.829910e+00 1.360616e-04 -2.374447e-04 -4.359692e-04
N -3.228579e+00 1.808246e+00 6.886670e+00 3.694420e-05 2.863362e-05 -2.710893e-04
N -3.187620e+00 1.746642e+00 -3.342926e+00 4.383096e-05 -1.690207e-04 2.541890e-05
N -6.642725e-02 -3.716666e+00 1.744444e+00 -2.890736e-04 -4.134972e-05 -9.857595e-05
N 1.633018e-02 -3.713890e+00 6.864801e+00 3.738534e-04 -1.831117e-04 -2.436485e-04
N -5.828818e-02 -3.663288e+00 -3.318306e+00 -2.182924e-04 8.307957e-05 6.813849e-05
N -1.604418e+00 -8.980765e-01 1.757450e+00 -4.042012e-05 1.073347e-04 -5.284027e-04
N -1.641791e+00 -9.711779e-01 6.930214e+00 -2.506457e-04 8.454687e-05 -2.917010e-04
N -1.563696e+00 -9.315763e-01 -3.333970e+00 -2.410081e-05 -9.125077e-05 -2.289387e-05
