108
Energy=-1993030.726478 Lattice="9.583786 0.000000 0.000000 -4.791817 8.300946 0.000000 -0.001930 -0.000632 15.521624" Stress="-0.000000 0.000000 0.000000 0.000000 0.000000 -0.000000 0.000000 -0.000000 0.000000" Properties=species:S:1:pos:R:3:forces:R:3
Al 1.576024 0.882279 2.437362 -0.000010 0.000014 -0.000005
Al 1.584915 0.894200 7.625549 -0.000003 -0.000014 0.000016
Ga 1.591032 0.886132 -2.739796 0.000027 0.000005 0.000006
Al -0.030505 3.659132 2.422428 -0.000000 -0.000001 -0.000017
Al -0.021641 3.654591 7.592319 -0.000001 0.000015 0.000013
Ga -0.011262 3.664606 -2.697989 -0.000048 -0.000014 0.000000
Al 3.173313 -1.899167 2.448643 -0.000009 0.000002 0.000035
Ga 3.193131 -1.881806 7.584225 -0.000003 -0.000012 -0.000019
Ga 3.176448 -1.883071 -2.717111 0.000000 0.000007 -0.000003
Ga -4.814417 0.881831 2.449907 0.000013 -0.000011 -0.000010
Al -4.818578 0.871807 7.592807 0.000001 0.000014 -0.000021
Al -4.815631 0.888762 -2.726505 -0.000001 -0.000008 0.000034
Ga -6.427551 3.644519 2.431777 -0.000037 -0.000014 0.000019
Ga -6.427289 3.636492 7.624129 0.000019 0.000035 0.000034
Al -6.413889 3.649782 -2.736376 -0.000004 0.000004 0.000010
Ga -3.229020 -1.895355 2.425192 -0.000003 0.000015 0.000042
Al -3.237533 -1.879898 7.602507 -0.000002 -0.000010 -0.000012
Al -3.204946 -1.888934 -2.709095 -0.000014 -0.000005 0.000041
Ga -1.622584 0.893807 2.433342 -0.000011 0.000006 -0.000016
Ga -1.625951 0.887788 7.597385 -0.000015 0.000007 -0.000012
Ga -1.633227 0.866935 -2.708476 -0.000011 -0.000000 0.000012
Al -3.195746 3.646316 2.431293 -0.000008 0.000003 -0.000020
Ga -3.206644 3.640002 7.590430 -0.000004 0.000007 -0.000008
Ga -3.224058 3.646401 -2.701983 -0.000002 -0.000016 -0.000037
Ga -0.014522 -1.880905 2.429266 0.000009 0.000006 -0.000034
Ga -0.028075 -1.878455 7.611377 0.000008 -0.000006 0.000005
Al -0.038719 -1.888655 -2.712152 0.000004 0.000023 -0.000007
Ga -0.023899 1.821000 5.015787 -0.000003 -0.000004 0.000009
Ga -0.011407 1.815021 -5.333820 -0.000012 -0.000009 -0.000017
Ga -0.032695 1.814635 -0.121177 0.000008 0.000013 0.000008
Al 3.176774 -3.733981 4.986851 0.000010 -0.000000 -0.000001
Ga 3.179383 -3.733366 -5.327311 -0.000213 0.000010 -0.000015
Al 3.175250 -3.735504 -0.104006 -0.000017 0.000011 0.000025
Ga 1.592539 -0.958598 5.015212 -0.000009 -0.000000 0.000009
Ga 1.577820 -0.952501 -5.318972 -0.000095 0.000104 0.000038
Ga 1.572328 -0.970876 -0.128087 -0.000035 -0.000027 0.000007
Ga 3.177460 1.788828 5.035363 -0.000037 0.000001 0.000055
Al 3.182393 1.798369 -5.323954 -0.000001 -0.000000 -0.000003
Ga 3.181300 1.813633 -0.148412 -0.000016 0.000020 0.000010
Ga 6.339498 -3.719463 5.034879 0.000002 -0.000003 -0.000026
Ga 6.362647 -3.726996 -5.319400 -0.000010 0.000024 0.000014
Al 6.364957 -3.721002 -0.156552 0.000007 -0.000012 -0.000017
Al 4.768676 -0.962135 5.023515 -0.000003 0.000014 -0.000039
Ga 4.776710 -0.945323 -5.313387 0.000031 0.000047 -0.000025
Ga 4.782996 -0.966464 -0.153921 -0.000077 0.000010 -0.000042
Al -3.223722 1.810122 5.019700 -0.000010 -0.000007 0.000004
Ga -3.237865 1.800826 -5.318732 -0.000006 0.000003 -0.000010
Al -3.216174 1.805506 -0.140404 -0.000025 0.000011 0.000012
Ga -0.004976 -3.742798 5.007289 -0.000009 0.000009 -0.000007
Ga -0.027740 -3.734788 -5.287785 0.000008 -0.000018 -0.000024
Ga -0.025051 -3.731925 -0.154020 0.000007 0.000001 0.000003
Ga -1.642341 -0.956882 5.033853 -0.000002 0.000022 -0.000012
Ga -1.630078 -0.968916 -5.304604 -0.000094 0.000030 0.000032
Al -1.629975 -0.968704 -0.162792 -0.000008 0.000023 0.000005
N 1.574613 0.886438 4.343643 0.000001 -0.000030 -0.000016
N 1.620799 0.909130 -5.971384 0.000001 -0.000036 0.000005
N 1.574044 0.883307 -0.771307 0.000003 -0.000003 0.000017
N -0.059757 3.676377 4.341767 -0.000022 0.000003 -0.000004
N -0.022667 3.655128 -6.014616 0.000107 -0.000064 -0.000052
N -0.027992 3.700336 -0.717372 -0.000005 -0.000001 -0.000014
N 3.216910 -1.909018 4.382924 0.000025 -0.000021 -0.000002
N 3.179662 -1.881501 -5.956533 0.000107 -0.000078 -0.000051
N 3.170930 -1.939712 -0.741794 0.000014 0.000023 -0.000016
N -4.772118 0.858026 4.431123 0.000017 -0.000013 -0.000006
N -4.855171 0.903339 -6.000353 0.000008 -0.000022 0.000038
N -4.773410 0.909211 -0.806336 0.000054 -0.000027 -0.000015
N -6.424520 3.648818 4.404670 0.000019 0.000003 -0.000022
N -6.412078 3.602349 -5.916092 -0.000014 -0.000002 -0.000005
N -6.456794 3.669653 -0.811835 0.000007 0.000018 0.000033
N -3.261499 -1.862510 4.399930 -0.000015 0.000001 -0.000014
N -3.223320 -1.881322 -6.002073 0.000024 0.000021 -0.000028
N -3.176920 -1.910708 -0.787112 0.000047 -0.000028 -0.000033
N -1.663299 0.907838 4.416036 -0.000030 0.000001 -0.000004
N -1.623941 0.883470 -5.946122 0.000010 0.000007 0.000010
N -1.661257 0.860537 -0.722891 -0.000019 -0.000009 -0.000022
N -3.171138 3.619352 4.364425 0.000011 -0.000015 -0.000003
N -3.219334 3.650732 -5.954672 0.000100 0.000035 0.000087
N -3.167146 3.626175 -0.721404 0.000026 -0.000009 -0.000023
N -0.028195 -1.878966 4.398709 0.000014 -0.000002 0.000010
N -0.024770 -1.887258 -5.939933 0.000093 -0.000084 -0.000035
N -0.060785 -1.859382 -0.793634 0.000023 -0.000008 0.000029
N 0.019127 1.829339 1.858652 0.000005 0.000006 -0.000011
N 0.025618 1.830285 7.010872 -0.000000 0.000007 0.000022
N -0.026683 1.811893 -3.353456 -0.000003 0.000007 -0.000000
N 3.170024 -3.726905 1.825446 -0.000001 0.000013 -0.000010
N 3.213840 -3.754601 6.915944 -0.000000 0.000013 0.000025
N 3.174220 -3.733647 -3.360417 0.000011 0.000007 0.000018
N 1.621054 -0.940975 1.855922 0.000020 -0.000012 0.000011
N 1.576722 -0.908321 6.997760 0.000009 0.000007 -0.000007
N 1.531502 -0.988811 -3.337486 0.000015 -0.000005 0.000042
N 3.136497 1.778825 1.824057 -0.000023 -0.000002 -0.000019
N 3.170005 1.754384 7.015160 -0.000017 -0.000045 -0.000029
N 3.221049 1.826181 -3.385230 0.000002 -0.000014 0.000008
N 6.325729 -3.752312 1.762568 -0.000003 0.000016 -0.000006
N 6.323205 -3.703223 7.018671 -0.000019 -0.000001 0.000021
N 6.403246 -3.701819 -3.327886 0.000043 0.000017 -0.000033
N 4.724372 -0.983362 1.821243 -0.000015 -0.000013 0.000053
N 4.810806 -0.936636 6.951094 -0.000013 0.000011 -0.000009
N 4.817889 -0.936464 -3.313794 -0.000022 0.000009 0.000014
N -3.223782 1.849644 1.776431 0.000028 0.000000 0.000002
N -3.263506 1.782510 6.938874 0.000018 -0.000009 0.000016
N -3.259225 1.782176 -3.340824 0.000018 0.000012 0.000000
N 0.017799 -3.757752 1.829128 0.000053 0.000004 0.000021
N -0.026001 -3.733706 6.977550 0.000008 0.000006 0.000045
N -0.060451 -3.706433 -3.298501 0.000006 0.000018 -0.000018
N -1.623717 -0.963549 1.752750 0.000011 -0.000030 0.000014
N -1.666941 -0.986766 7.003290 -0.000002 0.000003 -0.000038
N -1.623954 -1.011804 -3.317506 -0.000018 -0.000011 -0.000028
