108
Energy=-2.405010e+06 Lattice="9.641182e+00 0.000000e+00 0.000000e+00 -4.824251e+00 8.347110e+00 0.000000e+00 4.673117e-04 1.078917e-03 1.563047e+01" Stress="1.511862e-04 -2.910211e-05 1.335656e-05 -2.790927e-05 1.716086e-04 -1.965837e-05 2.321931e-05 -1.960620e-05 3.321221e-04" Properties=species:S:1:pos:R:3:forces:R:3 Config_type=AlGaN_super3_43_1_9.xyz
Al 1.584193e+00 8.859071e-01 2.468516e+00 1.088585e-05 -5.974160e-05 2.103511e-04
Al 1.577020e+00 8.895013e-01 7.676967e+00 1.492596e-04 4.183592e-05 4.610846e-04
Ga 1.575375e+00 8.926278e-01 -2.774193e+00 2.783618e-04 -1.232269e-04 2.751956e-04
Ga -2.689477e-02 3.664065e+00 2.448828e+00 1.134073e-04 -5.191598e-05 1.851144e-04
Al -1.770157e-02 3.654379e+00 7.678343e+00 5.112863e-05 -1.126313e-05 5.122108e-04
Ga -3.006206e-02 3.658806e+00 -2.752847e+00 1.286848e-04 -1.157508e-05 5.512220e-04
Ga 3.192117e+00 -1.892469e+00 2.446411e+00 7.897980e-05 3.609730e-05 4.110309e-04
Ga 3.187148e+00 -1.884952e+00 7.664148e+00 1.612924e-04 3.015512e-05 4.793761e-04
Ga 3.197063e+00 -1.898385e+00 -2.739612e+00 2.412532e-05 5.549495e-05 3.567042e-04
Ga -4.850947e+00 8.853859e-01 2.460126e+00 1.881607e-04 -1.496948e-04 1.211066e-04
Al -4.847208e+00 8.912964e-01 7.654434e+00 1.445549e-04 4.358545e-06 4.612546e-04
Ga -4.849350e+00 8.837478e-01 -2.739922e+00 1.705221e-04 -5.237285e-05 3.686186e-04
Ga -6.457536e+00 3.659290e+00 2.473384e+00 -1.206991e-04 -5.441585e-06 -1.019170e-04
Ga -6.452607e+00 3.666024e+00 7.675560e+00 6.392527e-05 1.274944e-04 2.315871e-04
Ga -6.442955e+00 3.670006e+00 -2.773578e+00 5.122660e-05 6.941550e-05 1.409801e-04
Ga -3.233088e+00 -1.887301e+00 2.444196e+00 9.608123e-05 -9.131330e-05 3.583619e-04
Ga -3.236640e+00 -1.894439e+00 7.669740e+00 1.846098e-05 3.213063e-05 4.792595e-04
Ga -3.234646e+00 -1.886637e+00 -2.740251e+00 1.259586e-04 -4.336305e-05 3.073884e-04
Ga -1.627347e+00 8.843655e-01 2.471689e+00 4.406867e-04 -2.787867e-04 9.139711e-05
Ga -1.624190e+00 8.976919e-01 7.663801e+00 3.863383e-04 -8.873877e-05 2.565962e-04
Ga -1.621532e+00 8.892928e-01 -2.763235e+00 4.678085e-04 -2.468784e-04 2.902792e-04
Ga -3.231114e+00 3.668011e+00 2.469892e+00 2.957525e-04 -2.846829e-05 1.095515e-04
Ga -3.244997e+00 3.666675e+00 7.669105e+00 2.143815e-04 -1.363149e-04 4.632468e-04
Ga -3.242411e+00 3.679228e+00 -2.761507e+00 1.835086e-04 -7.077823e-06 1.759826e-04
Ga -2.346976e-02 -1.879453e+00 2.448797e+00 3.328198e-04 3.594403e-06 1.560055e-04
Al -1.547721e-02 -1.889880e+00 7.677722e+00 4.703032e-05 -3.488955e-05 5.045287e-04
Ga -2.549551e-02 -1.898537e+00 -2.751287e+00 2.908883e-04 -7.223066e-05 4.145479e-04
Ga -2.112816e-02 1.814495e+00 5.073522e+00 -2.107325e-04 7.732158e-05 4.888982e-04
Al -1.950159e-02 1.818548e+00 -5.387368e+00 -9.885071e-05 9.433411e-05 4.473509e-04
Ga -2.958479e-02 1.807710e+00 -1.332684e-01 -3.273971e-04 1.375699e-04 9.608475e-04
Ga 3.194501e+00 -3.762025e+00 5.083315e+00 -2.897902e-04 9.777516e-05 3.700344e-04
Ga 3.195515e+00 -3.763065e+00 -5.374733e+00 -2.143816e-04 1.107960e-04 2.880509e-04
Al 3.194853e+00 -3.743993e+00 -1.492200e-01 -1.228709e-04 1.600282e-04 5.061767e-04
Ga 1.580060e+00 -9.590701e-01 5.077751e+00 -5.151661e-04 3.380556e-04 3.190678e-04
Ga 1.571652e+00 -9.686302e-01 -5.376413e+00 -4.583648e-04 2.503553e-04 3.020219e-04
Ga 1.590525e+00 -9.691580e-01 -1.444092e-01 -2.113309e-04 8.022688e-05 8.741456e-04
Ga 3.191669e+00 1.802986e+00 5.082878e+00 -1.790485e-04 5.743501e-05 5.547740e-04
Ga 3.188307e+00 1.812669e+00 -5.389404e+00 -5.315380e-05 7.602800e-05 2.950522e-04
Ga 3.186714e+00 1.805787e+00 -1.378075e-01 9.074837e-05 3.815335e-05 9.436741e-04
Ga 6.398689e+00 -3.751004e+00 5.078847e+00 2.608361e-05 -1.745477e-05 2.962496e-04
Ga 6.402557e+00 -3.761074e+00 -5.364363e+00 -4.904869e-05 1.095463e-05 3.233331e-04
Ga 6.398882e+00 -3.735734e+00 -1.576520e-01 2.550618e-05 -4.105978e-05 1.342423e-03
Ga 4.804636e+00 -9.557173e-01 5.071331e+00 -2.381854e-04 2.437719e-04 3.719789e-04
Ga 4.798954e+00 -9.592447e-01 -5.367344e+00 -2.101908e-04 2.454361e-04 3.647528e-04
Al 4.803021e+00 -9.748153e-01 -1.438962e-01 -1.739931e-04 -1.238689e-04 4.256887e-04
Al -3.243337e+00 1.813285e+00 5.076722e+00 -1.715277e-06 2.614383e-05 3.566722e-04
Ga -3.242284e+00 1.818460e+00 -5.367347e+00 -1.513822e-04 8.242804e-05 6.204067e-04
Ga -3.231528e+00 1.810233e+00 -1.565140e-01 -1.633668e-04 1.016848e-04 1.231982e-03
Ga -1.527917e-02 -3.748718e+00 5.073466e+00 -1.201833e-04 6.294324e-05 3.195343e-04
Al -2.006578e-02 -3.740438e+00 -5.373580e+00 -6.683332e-05 1.041702e-04 4.014043e-04
Ga -1.605813e-02 -3.743528e+00 -1.430042e-01 -2.547952e-06 -8.008772e-05 9.942605e-04
Ga -1.628150e+00 -9.614251e-01 5.082939e+00 -2.237227e-04 2.342948e-04 5.154919e-04
Ga -1.613518e+00 -9.705262e-01 -5.375887e+00 -3.624637e-04 2.447038e-04 3.203589e-04
Al -1.638074e+00 -9.630801e-01 -1.502193e-01 -2.326611e-04 4.458180e-05 4.657667e-04
N 1.583054e+00 8.877379e-01 4.389253e+00 3.399182e-04 -1.325140e-04 -3.305943e-04
N 1.538976e+00 9.087140e-01 -6.029689e+00 1.736409e-04 -5.641964e-05 -3.014735e-04
N 1.577660e+00 8.901593e-01 -7.974123e-01 2.532037e-04 -2.364025e-04 -9.199508e-05
N -2.752933e-02 3.669497e+00 4.424986e+00 6.514903e-05 -8.026682e-05 -3.568498e-04
N -2.314862e-02 3.620848e+00 -6.029489e+00 9.372656e-05 -2.108681e-04 -4.797199e-04
N -6.885136e-02 3.684915e+00 -7.636344e-01 1.233031e-05 -2.240736e-07 -2.127421e-04
N 3.191177e+00 -1.897040e+00 4.439498e+00 2.231118e-04 -2.046773e-04 -4.743628e-04
N 3.191159e+00 -1.894865e+00 -5.993764e+00 1.253563e-04 -1.436270e-04 -3.477208e-04
N 3.234229e+00 -1.918623e+00 -7.411203e-01 2.820449e-04 -1.026869e-04 -2.865192e-04
N -4.805297e+00 9.131404e-01 4.446844e+00 3.356376e-04 2.335026e-05 -3.582263e-04
N -4.840784e+00 8.884316e-01 -6.058001e+00 2.864095e-04 -8.589104e-05 -4.425579e-04
N -4.848905e+00 8.389742e-01 -7.561345e-01 2.201221e-04 -5.693500e-05 -2.246634e-04
N -6.453893e+00 3.666034e+00 4.454324e+00 1.069511e-04 -3.391557e-05 -2.860922e-04
N -6.410368e+00 3.696012e+00 -5.973254e+00 1.049145e-04 -4.856542e-05 -2.569843e-04
N -6.448179e+00 3.667824e+00 -7.895679e-01 -5.327284e-05 2.545357e-05 -4.387194e-05
N -3.233337e+00 -1.892064e+00 4.431611e+00 1.628778e-04 -7.176176e-05 -5.906826e-04
N -3.236412e+00 -1.896298e+00 -5.989454e+00 2.396195e-04 -6.895885e-05 -3.700895e-04
N -3.236020e+00 -1.842502e+00 -7.470490e-01 5.861043e-05 1.438844e-04 -2.537230e-04
N -1.673464e+00 9.121535e-01 4.465414e+00 1.844069e-04 -5.878062e-05 -3.461549e-04
N -1.594534e+00 9.161410e-01 -5.981282e+00 3.827392e-04 -2.150746e-04 -4.232717e-04
N -1.626465e+00 8.425836e-01 -7.751229e-01 3.413246e-04 -1.363578e-04 -2.155260e-04
N -3.235633e+00 3.623051e+00 4.460907e+00 1.881698e-04 -2.664152e-04 -3.243953e-04
N -3.282790e+00 3.691933e+00 -5.978740e+00 6.764240e-05 -1.200360e-04 -4.208793e-04
N -3.199085e+00 3.698764e+00 -7.726095e-01 1.638376e-04 -2.312116e-04 -2.055625e-04
N -2.491836e-02 -1.888812e+00 4.426904e+00 3.383113e-04 -2.839353e-04 -3.405041e-04
N -2.138365e-02 -1.942784e+00 -6.032026e+00 3.672174e-04 -3.010646e-04 -4.493664e-04
N -6.463900e-02 -1.870163e+00 -7.627938e-01 1.870096e-04 -3.699355e-05 -2.095081e-04
N 1.777259e-02 1.784452e+00 1.853858e+00 -1.442240e-04 8.404672e-05 -8.293826e-04
N 2.370557e-02 1.838210e+00 7.063588e+00 -1.775065e-04 9.990222e-05 -4.122338e-04
N -2.288958e-02 1.817500e+00 -3.459785e+00 -3.040418e-04 1.854604e-04 -4.809970e-04
N 3.190262e+00 -3.751777e+00 1.774307e+00 -3.061459e-04 7.313302e-05 -5.817773e-04
N 3.237573e+00 -3.777789e+00 7.067615e+00 -4.717963e-05 8.091177e-05 -3.436144e-04
N 3.197125e+00 -3.750357e+00 -3.396050e+00 -2.074731e-04 4.089124e-05 -2.891875e-04
N 1.588426e+00 -9.167463e-01 1.843652e+00 -3.521757e-04 8.718056e-05 -9.318695e-04
N 1.540642e+00 -9.374938e-01 7.074608e+00 -2.758097e-04 5.810278e-05 -5.083252e-04
N 1.586481e+00 -9.725859e-01 -3.390134e+00 -3.582183e-04 1.389768e-04 -2.677844e-04
N 3.146323e+00 1.789154e+00 1.851071e+00 -1.920352e-04 2.241089e-05 -8.539632e-04
N 3.184195e+00 1.764245e+00 7.078944e+00 -9.139765e-05 -2.029626e-04 -4.463949e-04
N 3.193424e+00 1.809480e+00 -3.406238e+00 -1.657947e-04 -7.863936e-05 -4.385984e-04
N 6.408756e+00 -3.750796e+00 1.824938e+00 2.075806e-05 2.424970e-05 -1.396017e-03
N 6.363251e+00 -3.775060e+00 7.062704e+00 -1.062853e-04 -1.229600e-04 -4.479120e-04
N 6.400977e+00 -3.748129e+00 -3.379689e+00 -4.934529e-05 -9.760616e-05 -3.193872e-04
N 4.798975e+00 -9.663822e-01 1.776868e+00 -2.550317e-04 1.466416e-04 -5.011974e-04
N 4.800152e+00 -9.188009e-01 7.050318e+00 -2.662534e-04 -1.573688e-05 -4.381011e-04
N 4.798853e+00 -9.656339e-01 -3.388108e+00 -2.423459e-04 5.360284e-05 -3.237394e-04
N -3.235436e+00 1.813985e+00 1.825550e+00 -2.258324e-04 1.649111e-04 -9.985890e-04
N -3.278811e+00 1.792748e+00 7.003981e+00 -3.182655e-04 -8.908128e-06 -4.650342e-04
N -3.242164e+00 1.813597e+00 -3.382443e+00 -1.980183e-04 6.590694e-05 -3.572512e-04
N -2.045672e-02 -3.752175e+00 1.838980e+00 -9.916466e-05 9.708185e-05 -8.649602e-04
N -2.126688e-02 -3.697699e+00 7.052598e+00 -8.027751e-05 1.085784e-04 -3.280141e-04
N -1.855768e-02 -3.742624e+00 -3.448210e+00 -5.609878e-05 1.579493e-05 -3.309210e-04
N -1.628531e+00 -9.611051e-01 1.771327e+00 -2.394898e-04 2.460595e-04 -5.295562e-04
N -1.584486e+00 -9.890312e-01 7.065219e+00 -1.152194e-04 -2.643284e-06 -3.016561e-04
N -1.625998e+00 -9.691775e-01 -3.397282e+00 -2.566262e-04 1.625038e-04 -3.409622e-04
