108
Energy=-2084581.660256 Lattice="9.598095 0.000000 0.000000 -4.804143 8.308172 0.000000 0.036224 0.009760 15.570340" Stress="-0.000000 0.000001 0.000006 0.000001 -0.000001 0.000002 0.000006 0.000002 0.000025" Properties=species:S:1:pos:R:3:forces:R:3
Al 1.584768 0.876271 2.489536 -0.001031 0.001945 -0.000194
Al 1.593340 0.883764 7.611390 0.000477 0.000211 0.000788
Ga 1.563769 0.874485 -2.766281 0.000508 -0.000198 0.000813
Al -0.001510 3.652899 2.471396 -0.001108 0.000615 -0.000763
Al 0.009631 3.649966 7.618873 -0.000331 -0.000105 0.000890
Ga -0.016862 3.650892 -2.751782 0.000118 -0.000101 0.001379
Al 3.165080 -1.863538 2.487580 0.008271 -0.008100 -0.003719
Ga 3.182675 -1.876565 7.613323 0.000268 -0.000351 0.001130
Ga 3.158833 -1.883748 -2.749300 0.000156 -0.000068 0.002022
Ga -4.828891 0.872630 2.456077 0.001301 -0.000212 -0.001621
Al -4.821471 0.894705 7.639425 0.000274 0.000765 0.000210
Ga -4.848637 0.883352 -2.737572 0.000352 -0.000125 0.000010
Ga -6.423123 3.659597 2.457310 -0.000112 0.000170 -0.000035
Al -6.415832 3.653320 7.639025 0.000397 -0.000069 0.000164
Al -6.451141 3.655165 -2.761450 0.000000 0.000015 0.000552
Ga -3.218185 -1.897232 2.440572 -0.000432 0.000230 -0.000113
Ga -3.189429 -1.894778 7.654056 0.000082 0.000093 0.000289
Ga -3.225332 -1.906706 -2.756200 0.000122 0.000003 0.000441
Ga -1.585619 0.892832 2.491436 0.000248 -0.000219 -0.001657
Ga -1.591887 0.889294 7.629814 0.000848 -0.000237 -0.000356
Ga -1.638104 0.875937 -2.764210 0.000878 -0.000597 -0.000322
Ga -3.198343 3.680902 2.484719 0.000688 -0.001012 -0.001472
Ga -3.208142 3.668040 7.624471 0.000649 -0.000149 -0.000080
Ga -3.249039 3.655158 -2.751067 0.000308 -0.000194 -0.000300
Al 0.017492 -1.871653 2.472285 -0.002374 -0.000564 0.000236
Al 0.007090 -1.867337 7.641890 0.000310 -0.000700 0.000903
Ga -0.033817 -1.883760 -2.773777 0.000560 -0.000333 0.000747
Al 0.005913 1.818964 5.053889 0.000139 0.000696 0.000187
Ga -0.027681 1.796391 -5.379250 -0.000677 0.000297 0.000811
Ga -0.025975 1.808538 -0.129955 0.000450 0.001406 0.004583
Al 3.213224 -3.727208 5.037669 0.000424 0.000229 0.000262
Ga 3.179373 -3.731837 -5.358449 -0.000279 0.000040 0.000698
Ga 3.189985 -3.725557 -0.120310 0.000619 0.000711 0.001907
Al 1.592100 -0.958346 5.035439 -0.000918 0.000614 0.001899
Al 1.552138 -0.965046 -5.379262 -0.000302 0.000194 0.000951
Ga 1.577626 -0.966367 -0.102186 0.000923 0.000078 -0.002585
Ga 3.173080 1.801116 5.072577 -0.000036 0.000095 0.000308
Ga 3.146236 1.804964 -5.371668 -0.000060 0.000065 0.000890
Ga 3.151129 1.808877 -0.150878 0.000817 -0.000035 0.003599
Ga 6.375986 -3.741965 5.060053 -0.000022 0.000124 0.001007
Al 6.370200 -3.740972 -5.366304 -0.000136 -0.000038 0.000980
Al 6.366899 -3.734336 -0.145633 -0.000391 -0.000277 0.001517
Ga 4.780965 -0.967063 5.059653 0.000365 0.000199 0.000355
Ga 4.766283 -0.972515 -5.358736 -0.000263 0.000295 0.000312
Al 4.767460 -0.979085 -0.135501 -0.000796 -0.000772 0.001703
Ga -3.201146 1.816626 5.067123 0.000034 0.000145 -0.000395
Ga -3.243659 1.792747 -5.357822 -0.000091 0.000084 0.000639
Ga -3.239570 1.798177 -0.147538 0.000179 0.000601 0.005795
Ga 0.003840 -3.704379 5.070791 -0.000070 -0.000077 0.000208
Ga -0.057285 -3.716206 -5.363184 -0.000053 -0.000252 0.000596
Ga -0.050001 -3.729030 -0.154166 0.001122 0.000119 0.003453
Ga -1.579170 -0.960671 5.052638 -0.000782 0.000280 0.000223
Al -1.624591 -0.977231 -5.361740 -0.000480 -0.000405 0.000560
Ga -1.639433 -0.973474 -0.141159 0.000314 0.000201 0.004445
N 1.551857 0.863393 4.423062 -0.000064 -0.000439 -0.001410
N 1.558194 0.827218 -6.033040 0.000582 -0.000184 -0.001223
N 1.557698 0.869389 -0.787488 0.000714 -0.000239 0.000367
N -0.042442 3.632637 4.402750 -0.000696 -0.000541 -0.000578
N 0.000900 3.670844 -6.024402 0.000429 0.000267 -0.000954
N 0.007021 3.671559 -0.765213 0.000700 -0.000141 -0.000538
N 3.154011 -1.900694 4.421023 -0.000935 -0.000379 -0.001563
N 3.118898 -1.868250 -5.975900 -0.000104 0.000126 -0.000660
N 3.199533 -1.863853 -0.756846 0.000677 0.000412 -0.001298
N -4.812731 0.887075 4.426781 0.000338 0.000017 -0.000000
N -4.846080 0.879070 -6.024460 0.000350 -0.000335 -0.000349
N -4.842447 0.829328 -0.752667 0.000614 0.000247 0.000919
N -6.406075 3.658605 4.433782 0.000215 -0.000028 -0.000435
N -6.482095 3.670782 -6.018268 -0.000281 0.000174 -0.000425
N -6.482385 3.675309 -0.824235 -0.000147 0.000213 0.000585
N -3.204463 -1.885495 4.422838 0.000103 0.000291 -0.000505
N -3.192376 -1.917859 -5.933934 0.000406 -0.000035 -0.000144
N -3.270469 -1.916443 -0.748779 -0.000152 0.000198 0.000630
N -1.562282 0.916629 4.467561 0.000278 -0.000453 0.000191
N -1.640989 0.831219 -5.964262 0.000712 -0.000123 -0.000424
N -1.633840 0.880726 -0.784282 0.001150 -0.000341 0.001471
N -3.167691 3.689061 4.465454 -0.000316 -0.000393 -0.000294
N -3.241471 3.656060 -5.974135 0.000151 -0.000173 -0.000333
N -3.233952 3.658947 -0.771733 0.000400 -0.000306 0.001109
N 0.041236 -1.857073 4.389526 0.000758 -0.000226 -0.001937
N -0.033567 -1.837839 -5.998925 0.000070 0.000065 -0.000889
N -0.026707 -1.876627 -0.791882 0.000798 -0.000099 0.000547
N 0.041319 1.832281 1.882631 -0.000992 -0.000708 -0.004467
N 0.042223 1.836664 6.988173 0.000040 0.000548 -0.000775
N -0.034634 1.802754 -3.400407 -0.000228 0.000536 -0.000459
N 3.246677 -3.708716 1.873750 -0.002856 0.004707 0.001761
N 3.249682 -3.751668 6.965025 0.000396 0.000148 -0.000848
N 3.172742 -3.739153 -3.379617 -0.000172 0.000332 -0.000489
N 1.600296 -0.954587 1.885146 -0.003725 0.000761 0.003167
N 1.555008 -0.937767 6.969798 -0.000893 0.000658 -0.001123
N 1.568997 -0.968491 -3.456362 -0.000590 0.000421 -0.000999
N 3.138544 1.786714 1.851630 -0.001227 -0.000309 -0.003643
N 3.190339 1.811431 7.065126 -0.000330 0.000010 -0.000265
N 3.159344 1.851069 -3.376742 -0.000060 0.000441 -0.000177
N 6.348562 -3.760351 1.785100 0.000572 -0.000002 -0.001295
N 6.396898 -3.773908 7.039590 0.000235 -0.000434 -0.000660
N 6.404879 -3.762471 -3.434619 0.000505 -0.000261 -0.000937
N 4.739930 -0.992041 1.796822 -0.001609 0.000620 -0.000410
N 4.802691 -0.913513 7.038415 -0.000412 -0.000532 -0.000874
N 4.767757 -0.966260 -3.382542 -0.000287 -0.000126 -0.000416
N -3.205532 1.812776 1.855361 -0.001220 -0.000297 -0.005224
N -3.246873 1.787874 7.037347 -0.000581 -0.000189 -0.000017
N -3.244908 1.801658 -3.382230 -0.000375 0.000259 0.000176
N -0.006130 -3.678560 1.850995 -0.000959 0.000419 -0.003508
N -0.046805 -3.693221 7.057298 -0.000811 0.000286 -0.000171
N -0.082224 -3.756911 -3.374149 -0.000392 -0.000090 0.000001
N -1.559567 -0.981363 1.863931 -0.001032 -0.000288 -0.004341
N -1.556413 -0.986381 7.027142 -0.000520 0.000018 -0.000456
N -1.634080 -0.969246 -3.440625 -0.000683 0.000166 -0.000258
