108
Energy=-1.260623e+06 Lattice="9.491472e+00 0.000000e+00 0.000000e+00 -4.746667e+00 8.217063e+00 0.000000e+00 1.225277e-03 4.310918e-03 1.531149e+01" Stress="-5.696664e-04 -1.565438e-04 1.075399e-04 -1.491167e-04 -1.114968e-03 1.959697e-04 1.132840e-04 1.893768e-04 -1.567096e-04" Properties=species:S:1:pos:R:3:forces:R:3 Config_type=AlGaN_super3_18_0_26.xyz
Al 1.560070e+00 8.778444e-01 2.387706e+00 2.489410e-04 -1.953639e-04 2.311244e-04
Al 1.559913e+00 8.845639e-01 7.500081e+00 -3.095523e-04 -2.971543e-04 3.527083e-04
Al 1.562717e+00 8.843961e-01 -2.681894e+00 1.599508e-04 -2.211907e-04 -1.322324e-04
Al -8.342944e-03 3.606554e+00 2.427692e+00 6.805360e-06 1.767503e-04 4.701186e-05
Al -1.468711e-02 3.613893e+00 7.495120e+00 -2.404996e-04 -1.905160e-04 -2.859456e-05
Al -2.635547e-02 3.605525e+00 -2.712725e+00 1.770892e-04 1.985811e-04 -9.424700e-05
Al 3.146168e+00 -1.856365e+00 2.413425e+00 -6.332725e-05 4.888853e-06 -4.159379e-04
Al 3.151490e+00 -1.862460e+00 7.507852e+00 -1.587302e-04 -3.332546e-05 -2.503306e-04
Ga 3.154357e+00 -1.867392e+00 -2.704727e+00 -3.782942e-05 1.192590e-05 1.653659e-04
Al -4.775558e+00 8.705566e-01 2.404640e+00 1.642853e-04 4.793811e-06 2.524031e-04
Al -4.771946e+00 8.729845e-01 7.518816e+00 -3.415115e-04 2.992052e-04 -6.237423e-05
Al -4.765731e+00 8.779862e-01 -2.718008e+00 -1.401241e-05 -5.774961e-05 -4.205619e-05
Al -6.357064e+00 3.610057e+00 2.387557e+00 -7.986416e-05 -8.938717e-05 1.355108e-05
Al -6.368259e+00 3.605383e+00 7.521619e+00 1.314202e-04 2.114887e-04 1.682366e-04
Ga -6.362106e+00 3.594539e+00 -2.695645e+00 -1.421991e-04 1.624174e-04 8.744168e-05
Al -3.197271e+00 -1.874720e+00 2.439615e+00 -6.076125e-04 -4.966524e-05 -3.446222e-05
Ga -3.191000e+00 -1.867959e+00 7.512408e+00 7.507947e-05 -4.118360e-05 8.560614e-05
Al -3.192714e+00 -1.857843e+00 -2.741385e+00 -2.944165e-05 -3.575979e-04 -8.518327e-05
Ga -1.601837e+00 8.857926e-01 2.402243e+00 6.028882e-05 -1.994169e-04 1.551561e-04
Al -1.599270e+00 8.819424e-01 7.510876e+00 -1.215887e-04 -2.811115e-04 -9.792116e-06
Al -1.614387e+00 8.820186e-01 -2.702966e+00 1.325445e-04 3.141365e-04 -3.282962e-05
Ga -3.194298e+00 3.609816e+00 2.418870e+00 -9.319113e-05 -1.252932e-04 2.517815e-04
Ga -3.171841e+00 3.609204e+00 7.504818e+00 3.891732e-05 -1.069653e-04 5.369075e-05
Al -3.174450e+00 3.592027e+00 -2.706817e+00 -1.793390e-04 8.908530e-05 4.690128e-05
Al -1.571769e-02 -1.869231e+00 2.381595e+00 2.012982e-05 -6.280713e-05 1.061805e-04
Al -2.213291e-02 -1.850572e+00 7.525549e+00 -5.570324e-05 -6.396540e-05 1.653441e-04
Ga -2.814126e-02 -1.852514e+00 -2.686066e+00 5.984461e-05 -2.000515e-04 1.852679e-04
Al -2.641269e-02 1.806101e+00 4.971952e+00 -5.843000e-05 -4.021265e-05 1.989271e-04
Ga -2.676201e-02 1.793302e+00 -5.253953e+00 8.309152e-05 5.818036e-05 2.960898e-04
Al -1.494067e-02 1.784576e+00 -1.663036e-01 -2.895974e-04 4.153324e-05 -4.504996e-04
Al 3.167236e+00 -3.690790e+00 4.951726e+00 -1.294636e-04 -3.459223e-05 -1.284803e-04
Al 3.160066e+00 -3.695214e+00 -5.255308e+00 -3.178410e-04 -2.555207e-04 8.499884e-05
Ga 3.135560e+00 -3.708763e+00 -1.376600e-01 -8.983723e-05 1.856943e-04 1.289186e-04
Ga 1.569835e+00 -9.527458e-01 4.962007e+00 -3.928967e-04 1.373243e-04 6.991212e-06
Ga 1.571596e+00 -9.459701e-01 -5.269038e+00 -2.885405e-04 2.175360e-04 2.620099e-04
Al 1.559599e+00 -9.374146e-01 -1.270056e-01 -2.893727e-04 1.180227e-04 -1.122820e-05
Ga 3.143725e+00 1.789048e+00 4.953030e+00 2.056070e-04 -1.196603e-04 -2.805159e-05
Al 3.145438e+00 1.778935e+00 -5.264870e+00 -1.159251e-04 2.123349e-04 -4.916717e-05
Al 3.143036e+00 1.775544e+00 -1.360950e-01 -6.036603e-05 1.051207e-04 -1.271162e-05
Al 6.291331e+00 -3.699239e+00 4.947472e+00 1.516592e-04 -2.392469e-04 -2.325926e-05
Al 6.294870e+00 -3.691905e+00 -5.257517e+00 -2.263928e-04 1.182850e-04 6.481307e-04
Ga 6.302712e+00 -3.698223e+00 -1.328548e-01 -1.272276e-04 -1.573888e-04 1.190269e-04
Al 4.722031e+00 -9.525518e-01 4.952882e+00 3.243769e-05 5.321681e-04 -2.534663e-04
Al 4.729340e+00 -9.466531e-01 -5.257491e+00 3.766394e-05 -1.544714e-05 -3.606524e-05
Ga 4.725373e+00 -9.323890e-01 -1.368460e-01 -8.143854e-05 2.228256e-06 -2.672534e-06
Al -3.185453e+00 1.777844e+00 4.975424e+00 -1.749306e-04 -1.519882e-04 -4.311209e-06
Al -3.191680e+00 1.771199e+00 -5.245208e+00 -1.520194e-05 3.010853e-04 -8.962963e-05
Al -3.199737e+00 1.792723e+00 -1.739861e-01 -9.747096e-05 -1.781898e-04 -4.756887e-04
Ga -3.121595e-02 -3.692736e+00 4.969815e+00 -3.535020e-05 -5.681311e-05 1.926514e-04
Ga -2.964818e-02 -3.699050e+00 -5.260103e+00 1.168938e-04 -1.396277e-04 1.100195e-04
Al -1.411495e-02 -3.703578e+00 -1.421885e-01 -3.417155e-06 -6.609769e-05 -8.080196e-05
Ga -1.610114e+00 -9.441353e-01 4.957288e+00 -5.128850e-05 -3.376158e-05 1.296013e-04
Al -1.621296e+00 -9.431411e-01 -5.251976e+00 1.114794e-04 1.955748e-04 -3.427189e-06
Ga -1.606218e+00 -9.445268e-01 -1.397758e-01 -1.113174e-04 3.784847e-05 -7.833326e-05
N 1.512423e+00 9.000719e-01 4.308868e+00 2.350419e-04 7.932261e-05 -3.106274e-04
N 1.594306e+00 9.036202e-01 -5.910123e+00 2.060202e-04 -9.578034e-05 -2.799193e-04
N 1.564917e+00 8.732763e-01 -7.529161e-01 1.851053e-04 9.992621e-05 2.282330e-04
N -2.062238e-02 3.605383e+00 4.348129e+00 -6.267001e-05 -3.037320e-05 -2.077227e-04
N -2.139645e-02 3.657076e+00 -5.898084e+00 -3.177878e-05 1.377254e-04 2.773088e-05
N -2.139740e-02 3.570426e+00 -8.052044e-01 1.064354e-05 -7.910422e-05 -6.448370e-05
N 3.181323e+00 -1.884330e+00 4.328036e+00 9.099694e-05 -2.484923e-04 3.208898e-04
N 3.189696e+00 -1.894058e+00 -5.882898e+00 2.175911e-04 1.204376e-04 1.223215e-04
N 3.103984e+00 -1.843449e+00 -7.350541e-01 -5.491049e-05 -9.200373e-05 -3.605754e-05
N -4.724994e+00 8.550814e-01 4.323917e+00 1.666592e-04 -8.594285e-05 -3.248657e-04
N -4.766944e+00 8.728121e-01 -5.867303e+00 8.748672e-05 6.853032e-05 -5.427502e-05
N -4.776870e+00 9.206003e-01 -7.967569e-01 4.023318e-04 9.782657e-05 7.565265e-05
N -6.389650e+00 3.634895e+00 4.299081e+00 -5.037896e-05 1.503573e-04 -6.852524e-05
N -6.400943e+00 3.586691e+00 -5.874219e+00 7.092995e-05 -2.065408e-04 1.348421e-04
N -6.315588e+00 3.583239e+00 -7.163277e-01 1.834592e-04 -2.411523e-05 -7.487424e-05
N -3.228662e+00 -1.889813e+00 4.353443e+00 -7.412186e-05 1.742893e-04 -1.072309e-04
N -3.188294e+00 -1.868687e+00 -5.815298e+00 -2.076048e-04 5.130045e-05 -8.119095e-06
N -3.189468e+00 -1.867221e+00 -8.298000e-01 -3.491876e-05 1.620390e-04 -8.095751e-05
N -1.601715e+00 9.319440e-01 4.377570e+00 -5.340751e-05 2.645829e-05 -6.342812e-05
N -1.647615e+00 8.559064e-01 -5.881568e+00 7.477266e-05 -2.430673e-04 -6.787738e-05
N -1.608299e+00 9.213984e-01 -7.796485e-01 1.357583e-04 1.061884e-04 8.536077e-05
N -3.147092e+00 3.587446e+00 4.400446e+00 -1.072170e-06 1.212710e-05 -9.067698e-05
N -3.138932e+00 3.583343e+00 -5.832470e+00 8.556306e-05 -1.481729e-04 5.733502e-05
N -3.224519e+00 3.591171e+00 -7.851780e-01 6.510542e-05 -1.794841e-04 -9.985341e-05
N -1.749205e-02 -1.865574e+00 4.286218e+00 1.519091e-04 -8.147783e-05 -3.064311e-04
N -6.730274e-02 -1.837041e+00 -5.883199e+00 3.595025e-05 -1.832873e-04 -8.770386e-05
N 1.869734e-02 -1.885223e+00 -7.097090e-01 1.472970e-04 -2.021406e-04 1.768120e-04
N 1.844815e-02 1.815169e+00 1.754525e+00 -1.240289e-05 1.566675e-04 2.781987e-04
N -2.217057e-02 1.791228e+00 6.899110e+00 -1.457356e-04 -3.303651e-05 -5.361835e-05
N -1.997271e-02 1.780722e+00 -3.266674e+00 -2.522558e-04 -1.190542e-04 4.177703e-05
N 3.186899e+00 -3.675600e+00 1.840138e+00 -1.397295e-04 3.309716e-04 -1.060297e-04
N 3.190858e+00 -3.662090e+00 6.868224e+00 1.068605e-04 1.195529e-04 7.112845e-05
N 3.144191e+00 -3.740041e+00 -3.334846e+00 8.688782e-05 -7.305205e-05 -5.382617e-05
N 1.565590e+00 -9.489542e-01 1.796589e+00 -5.811671e-05 1.992038e-04 -1.014668e-05
N 1.562929e+00 -9.527300e-01 6.950115e+00 7.919511e-05 2.493947e-04 -7.587234e-06
N 1.561266e+00 -9.018229e-01 -3.302597e+00 -1.376903e-04 3.998342e-04 2.945803e-05
N 3.143329e+00 1.779310e+00 1.791915e+00 5.700422e-05 1.220138e-05 1.638590e-04
N 3.145593e+00 1.790452e+00 6.937371e+00 6.067251e-04 -5.660445e-04 -1.615690e-04
N 3.136111e+00 1.734337e+00 -3.343373e+00 5.373530e-05 -4.586230e-05 -2.722349e-05
N 6.298028e+00 -3.687911e+00 1.848112e+00 -5.770159e-06 2.631064e-04 -1.834560e-04
N 6.309113e+00 -3.738201e+00 6.866983e+00 1.050309e-05 9.464676e-05 1.915367e-05
N 6.262848e+00 -3.675461e+00 -3.338806e+00 6.212157e-05 5.179946e-05 -2.722513e-04
N 4.728012e+00 -9.509772e-01 1.845536e+00 5.322665e-04 -2.063881e-04 1.896023e-04
N 4.682799e+00 -9.215846e-01 6.875199e+00 -1.645587e-06 -1.969448e-04 -1.212161e-04
N 4.758262e+00 -9.222236e-01 -3.343653e+00 3.630527e-05 5.947361e-05 3.303361e-05
N -3.232126e+00 1.763494e+00 1.738270e+00 -1.407186e-04 -8.387956e-05 2.104031e-04
N -3.190991e+00 1.734084e+00 6.886747e+00 -8.788250e-06 2.998295e-05 -1.785534e-04
N -3.188130e+00 1.781781e+00 -3.319884e+00 7.635419e-05 -1.900952e-05 -1.063132e-05
N -5.874532e-02 -3.675610e+00 1.773556e+00 2.420404e-04 5.320399e-05 -1.053971e-04
N -6.825148e-02 -3.665299e+00 6.949237e+00 4.573945e-05 2.691849e-05 -8.572973e-05
N 1.472426e-02 -3.714484e+00 -3.293191e+00 1.777287e-04 -1.044357e-04 -2.449419e-05
N -1.617094e+00 -9.978765e-01 1.836693e+00 5.262742e-06 1.731793e-04 -6.022232e-06
N -1.564471e+00 -9.267715e-01 6.928803e+00 1.704247e-04 1.818962e-04 -5.476600e-05
N -1.640578e+00 -9.214443e-01 -3.331752e+00 -1.148037e-05 -1.578970e-05 -9.894689e-05
