108
Energy=-1.077521e+06 Lattice="9.481388e+00 0.000000e+00 0.000000e+00 -4.755816e+00 8.191519e+00 0.000000e+00 -4.135355e-03 -2.748746e-02 1.526761e+01" Stress="1.045329e-03 -8.409514e-04 -1.880249e-04 -8.392878e-04 -2.837609e-03 -1.452678e-03 -1.801192e-04 -1.456222e-03 3.300351e-03" Properties=species:S:1:pos:R:3:forces:R:3 Config_type=AlGaN_super3_14_0_9.xyz
Al 1.560129e+00 8.625685e-01 2.416471e+00 2.304799e-04 -1.268039e-04 -2.509538e-03
Al 1.552175e+00 8.645667e-01 7.467893e+00 1.981073e-03 -3.062238e-03 1.901343e-03
Al 1.539108e+00 8.642450e-01 -2.701075e+00 -2.033504e-03 -2.176803e-03 1.564171e-03
Al -3.180981e-02 3.584604e+00 2.413098e+00 -6.886656e-04 -7.143633e-04 -2.422539e-03
Al -2.436484e-02 3.581365e+00 7.490479e+00 5.756086e-04 6.700554e-04 1.136321e-03
Al -3.282393e-02 3.614421e+00 -2.727262e+00 -3.325426e-04 -1.798305e-03 2.780248e-03
Al 3.121102e+00 -1.871282e+00 2.406721e+00 8.684550e-03 3.817360e-03 -1.188966e-03
Al 3.144514e+00 -1.869187e+00 7.494908e+00 6.386228e-03 -2.725067e-03 3.379080e-03
Al 3.133231e+00 -1.862144e+00 -2.723843e+00 -1.175001e-03 -4.536665e-05 1.214593e-03
Al -4.774260e+00 8.799631e-01 2.408207e+00 1.579683e-03 1.591520e-03 2.015088e-03
Al -4.770337e+00 8.486307e-01 7.483463e+00 -1.519822e-05 1.333804e-04 2.753119e-05
Ga -4.773458e+00 8.689642e-01 -2.706434e+00 1.782221e-03 9.525073e-04 9.799899e-04
Al -6.336252e+00 3.587123e+00 2.419059e+00 -9.580556e-03 2.448772e-03 -2.799862e-03
Al -6.355089e+00 3.585696e+00 7.459103e+00 -3.008436e-04 1.346793e-03 1.015992e-03
Ga -6.384566e+00 3.611927e+00 -2.683377e+00 1.238354e-03 1.359564e-03 7.906067e-04
Ga -3.181165e+00 -1.871004e+00 2.434246e+00 -9.465068e-04 -2.322918e-04 -2.869541e-03
Al -3.206559e+00 -1.879900e+00 7.493241e+00 7.326650e-03 4.297872e-03 -1.997615e-03
Al -3.191071e+00 -1.852784e+00 -2.741005e+00 2.060562e-03 -6.709945e-05 4.619744e-03
Al -1.598454e+00 8.805572e-01 2.403676e+00 1.049237e-04 4.538696e-05 -1.339278e-04
Al -1.601971e+00 8.759404e-01 7.506105e+00 9.907407e-04 9.704157e-04 1.272593e-03
Al -1.602831e+00 8.782227e-01 -2.730469e+00 -2.987662e-04 -5.893028e-04 1.693029e-03
Al -3.183130e+00 3.593032e+00 2.398076e+00 1.545968e-03 3.024446e-05 -4.872603e-04
Al -3.186773e+00 3.579640e+00 7.496803e+00 -8.835280e-04 1.308859e-03 -1.470032e-04
Ga -3.171477e+00 3.604370e+00 -2.695700e+00 -3.041613e-04 -5.685774e-04 1.485354e-03
Al 1.581295e-02 -1.859081e+00 2.429184e+00 -4.941083e-03 2.205667e-03 -2.490106e-03
Ga 5.065201e-03 -1.863599e+00 7.491249e+00 -1.198144e-03 -2.335214e-04 1.692315e-03
Al -1.688543e-02 -1.827109e+00 -2.713465e+00 -1.596061e-04 8.476664e-05 -4.728919e-04
Al -1.355123e-03 1.776426e+00 4.951614e+00 -3.264066e-03 -8.666568e-04 5.156792e-05
Al -3.264544e-02 1.783333e+00 -5.250765e+00 1.488300e-04 1.653637e-03 1.896104e-03
Ga -2.489772e-02 1.782988e+00 -1.572810e-01 3.913211e-04 6.467640e-04 -3.860982e-03
Ga 3.154938e+00 -3.684053e+00 4.956520e+00 -8.820547e-04 5.357474e-04 8.988706e-04
Al 3.156824e+00 -3.673364e+00 -5.263913e+00 -5.234226e-04 1.969653e-03 3.082997e-04
Al 3.152776e+00 -3.684091e+00 -1.508564e-01 1.274910e-03 1.089662e-03 3.846863e-03
Al 1.580673e+00 -9.499118e-01 4.939091e+00 3.870065e-04 -6.812318e-04 5.076590e-03
Al 1.569801e+00 -9.327578e-01 -5.240855e+00 1.529411e-03 -1.491836e-04 1.965226e-03
Al 1.572369e+00 -9.546275e-01 -1.584986e-01 -4.624868e-04 1.014466e-03 3.120127e-03
Al 3.124639e+00 1.767192e+00 4.945570e+00 2.641444e-03 8.833691e-04 1.117806e-03
Ga 3.114501e+00 1.783302e+00 -5.269194e+00 1.500538e-03 3.780209e-04 8.804188e-04
Al 3.125630e+00 1.774027e+00 -1.280030e-01 -1.243435e-03 -3.366896e-04 2.105207e-03
Al 6.311687e+00 -3.698775e+00 4.955781e+00 -1.054379e-04 -9.468096e-05 2.062585e-03
Al 6.285071e+00 -3.663821e+00 -5.260110e+00 3.300096e-04 -2.234211e-05 1.550798e-04
Al 6.288310e+00 -3.690361e+00 -1.542464e-01 -1.133493e-03 7.902852e-04 4.240093e-03
Al 4.706378e+00 -9.622618e-01 4.955685e+00 -1.827798e-03 3.184501e-03 1.895643e-03
Al 4.721152e+00 -9.508761e-01 -5.250616e+00 -2.495885e-03 4.019436e-04 -3.923053e-03
Ga 4.711923e+00 -9.600846e-01 -1.678497e-01 8.028476e-04 1.750275e-04 8.732802e-03
Ga -3.193166e+00 1.773205e+00 4.951903e+00 -3.930603e-04 -8.848054e-04 1.143111e-03
Al -3.175735e+00 1.783123e+00 -5.271038e+00 -1.858806e-03 6.053783e-04 -6.237922e-04
Al -3.191957e+00 1.783279e+00 -1.282631e-01 2.548663e-04 -4.810089e-04 1.758690e-03
Al -1.745409e-02 -3.692042e+00 4.938189e+00 4.433654e-04 3.928976e-04 1.335714e-03
Ga -1.670475e-02 -3.663297e+00 -5.245190e+00 2.174164e-04 -4.006368e-04 8.985095e-04
Ga -1.591296e-02 -3.672664e+00 -1.205827e-01 -4.518614e-04 2.128659e-04 -2.017219e-03
Ga -1.583653e+00 -9.549318e-01 4.958958e+00 -1.754709e-03 1.420495e-03 1.463837e-03
Al -1.616792e+00 -9.256893e-01 -5.241922e+00 2.973835e-03 -1.373947e-03 -1.539763e-03
Ga -1.594130e+00 -9.413088e-01 -1.499428e-01 -2.585841e-03 -6.440264e-04 -5.650485e-04
N 1.557013e+00 8.633960e-01 4.343871e+00 -2.121031e-04 -1.584131e-04 -9.418389e-04
N 1.505733e+00 8.549043e-01 -5.881199e+00 -9.684474e-04 3.321716e-04 -2.306990e-03
N 1.594364e+00 8.407117e-01 -7.784155e-01 4.323804e-04 1.200132e-03 7.940220e-05
N 1.343630e-02 3.573912e+00 4.332759e+00 1.025127e-03 -1.327115e-03 -1.949414e-03
N -2.814517e-02 3.604501e+00 -5.855599e+00 -5.749751e-05 -1.030373e-03 -6.733400e-04
N -3.435263e-02 3.644336e+00 -7.939849e-01 -3.913185e-04 7.517877e-04 -2.903312e-03
N 3.142295e+00 -1.827351e+00 4.323964e+00 -1.321524e-04 -2.084773e-04 -2.182787e-03
N 3.137291e+00 -1.844903e+00 -5.852040e+00 1.179833e-03 -9.701209e-04 3.983173e-04
N 3.098968e+00 -1.888412e+00 -7.919333e-01 2.590731e-05 -1.396572e-03 -8.525741e-04
N -4.806327e+00 8.387016e-01 4.331854e+00 -1.171160e-03 1.527502e-03 8.927883e-05
N -4.736829e+00 8.548846e-01 -5.869233e+00 1.527611e-03 1.961849e-04 -9.735493e-04
N -4.770496e+00 9.189931e-01 -7.253815e-01 4.712197e-04 1.364834e-03 -7.114046e-04
N -6.349542e+00 3.592622e+00 4.347839e+00 -1.121378e-03 2.247348e-04 -8.262086e-04
N -6.397484e+00 3.642240e+00 -5.896181e+00 5.768544e-04 -3.082106e-04 -1.436004e-03
N -6.396193e+00 3.577755e+00 -7.091858e-01 5.915913e-04 -4.666207e-06 6.173483e-04
N -3.223999e+00 -1.884462e+00 4.406026e+00 3.655455e-03 -3.477891e-03 -2.082189e-03
N -3.186726e+00 -1.848533e+00 -5.850707e+00 1.141682e-03 3.316846e-04 -6.643769e-04
N -3.173475e+00 -1.908224e+00 -8.046837e-01 -1.229018e-03 5.966245e-04 -3.411640e-03
N -1.564199e+00 8.955010e-01 4.310483e+00 2.417658e-03 1.317158e-03 -7.709464e-04
N -1.604228e+00 8.865162e-01 -5.845528e+00 1.124159e-03 -5.499533e-04 -6.798483e-04
N -1.660613e+00 9.027805e-01 -8.082589e-01 1.591032e-03 -9.103454e-05 -1.421372e-03
N -3.222505e+00 3.618332e+00 4.308120e+00 1.131121e-04 -5.376825e-04 -1.666912e-03
N -3.156385e+00 3.595544e+00 -5.862063e+00 7.245290e-04 -1.262922e-03 -8.402143e-04
N -3.153109e+00 3.580626e+00 -7.108236e-01 -4.820495e-05 -4.465833e-04 -7.993687e-04
N 3.207897e-02 -1.881675e+00 4.341240e+00 6.667402e-04 -1.190049e-03 -7.067585e-05
N -5.949490e-03 -1.793157e+00 -5.807103e+00 -5.617754e-03 6.782298e-05 -4.095578e-04
N 1.918359e-02 -1.825061e+00 -7.989155e-01 1.383672e-03 -1.748983e-03 9.374399e-05
N -1.534517e-02 1.762915e+00 1.804295e+00 -1.191101e-03 3.061443e-03 1.039421e-02
N -2.425037e-02 1.770622e+00 6.878940e+00 -1.261168e-04 -4.947368e-04 -2.264121e-03
N -2.322154e-02 1.785186e+00 -3.316279e+00 -2.800628e-04 5.996268e-04 3.458066e-04
N 3.152007e+00 -3.689046e+00 1.798172e+00 -1.785103e-05 7.606406e-04 -1.845411e-03
N 3.147221e+00 -3.698024e+00 6.937429e+00 8.842465e-04 1.335025e-04 -1.116464e-04
N 3.181573e+00 -3.658026e+00 -3.343681e+00 5.299488e-04 1.260387e-03 -1.549140e-03
N 1.566547e+00 -9.540505e-01 1.790321e+00 2.671580e-04 5.132008e-04 -2.527302e-03
N 1.637673e+00 -9.578221e-01 6.873238e+00 -9.374792e-03 9.126626e-03 -9.359125e-03
N 1.566634e+00 -9.421175e-01 -3.316928e+00 -8.588450e-04 3.465438e-04 -8.367049e-04
N 3.131459e+00 1.774755e+00 1.808778e+00 -2.622436e-04 1.403745e-03 -1.279957e-03
N 3.134740e+00 1.767751e+00 6.876485e+00 -1.786944e-04 -5.875916e-04 -1.509025e-03
N 3.076856e+00 1.761494e+00 -3.299346e+00 2.678946e-03 1.698089e-03 -2.157771e-03
N 6.273607e+00 -3.728419e+00 1.775210e+00 1.207349e-02 -1.776843e-03 1.093508e-03
N 6.300767e+00 -3.692947e+00 6.878577e+00 2.513795e-04 -6.777658e-04 -5.932704e-04
N 6.259343e+00 -3.650993e+00 -3.344785e+00 -4.419380e-06 2.045667e-04 -2.221197e-03
N 4.702914e+00 -9.069359e-01 1.845151e+00 -9.450434e-03 -1.110527e-02 -8.284102e-03
N 4.714003e+00 -9.662427e-01 6.883442e+00 5.604902e-04 -1.872719e-05 -1.213216e-03
N 4.701766e+00 -9.842375e-01 -3.349015e+00 3.314489e-03 -2.054120e-03 5.906325e-03
N -3.184113e+00 1.772345e+00 1.802541e+00 -1.686864e-04 1.250924e-03 -6.515976e-04
N -3.184272e+00 1.765606e+00 6.932338e+00 -9.599342e-04 -2.384948e-04 2.170810e-04
N -3.155393e+00 1.762530e+00 -3.368356e+00 -5.013877e-04 2.844934e-04 1.407045e-03
N -8.538463e-03 -3.675081e+00 1.862207e+00 -2.163797e-03 -9.043574e-04 -4.666198e-04
N -6.360240e-03 -3.731173e+00 6.861975e+00 -8.947643e-04 -2.251926e-03 -1.606831e-03
N -2.031524e-02 -3.634495e+00 -3.278619e+00 -9.091609e-04 -2.510323e-04 1.171340e-03
N -1.558289e+00 -9.295720e-01 1.832155e+00 3.495186e-03 -3.163557e-03 2.107795e-03
N -1.614247e+00 -9.152498e-01 6.927426e+00 -8.300219e-03 -7.953791e-03 7.103229e-04
N -1.604062e+00 -9.392828e-01 -3.318449e+00 -1.654736e-03 -7.100988e-04 -5.199801e-05
