108
Energy=-2176132.792446 Lattice="9.607141 0.000000 0.000000 -4.802115 8.320004 0.000000 -0.001073 0.000972 15.572193" Stress="-0.000002 0.000001 0.000000 0.000001 -0.000002 0.000000 0.000000 0.000000 -0.000000" Properties=species:S:1:pos:R:3:forces:R:3
Al 1.581089 0.888231 2.416756 -0.000169 -0.000044 -0.000195
Al 1.569864 0.896603 7.652128 -0.000111 -0.000013 0.000132
Al 1.580373 0.878731 -2.729453 -0.000026 -0.000104 -0.000009
Al -0.017294 3.649178 2.446342 -0.000105 -0.000089 0.000008
Al -0.014276 3.649727 7.649438 -0.000053 -0.000015 0.000180
Ga -0.024804 3.641317 -2.750587 0.000030 -0.000017 -0.000119
Ga 3.180322 -1.875905 2.430900 -0.000043 0.000023 -0.000196
Ga 3.193135 -1.884684 7.632575 0.000101 0.000042 0.000064
Ga 3.165544 -1.876791 -2.721067 -0.000006 0.000014 0.000042
Ga -4.830782 0.883728 2.433070 -0.000016 -0.000197 -0.000322
Ga -4.825780 0.874561 7.621492 -0.000032 -0.000173 -0.000121
Al -4.832940 0.892084 -2.710922 -0.000081 -0.000056 0.000138
Ga -6.443125 3.640270 2.432467 0.000002 -0.000013 -0.000244
Ga -6.443457 3.654302 7.645710 -0.000045 -0.000043 0.000028
Ga -6.416615 3.643490 -2.730864 -0.000028 -0.000004 0.000031
Ga -3.242219 -1.890457 2.446382 -0.000082 0.000016 -0.000307
Al -3.239604 -1.890940 7.629170 -0.000094 0.000083 0.000153
Ga -3.224771 -1.881035 -2.725879 0.000004 0.000006 0.000041
Ga -1.621218 0.901651 2.443256 0.000084 -0.000099 -0.000225
Ga -1.615715 0.893982 7.645193 0.000096 -0.000078 -0.000041
Ga -1.616366 0.892548 -2.743797 0.000041 -0.000087 -0.000044
Ga -3.216350 3.644335 2.444243 0.000165 0.000150 -0.000256
Ga -3.217141 3.649702 7.635641 0.000159 0.000123 -0.000160
Al -3.231084 3.653339 -2.726012 -0.000018 0.000112 0.000231
Ga -0.010566 -1.873880 2.437149 0.000170 0.000093 -0.000144
Ga -0.026313 -1.881137 7.643979 0.000017 0.000058 -0.000003
Al -0.008342 -1.883493 -2.728783 0.000072 0.000102 0.000322
Ga -0.016486 1.813086 5.036745 -0.000148 -0.000145 -0.000067
Al -0.009938 1.808819 -5.342268 -0.000002 -0.000135 0.000005
Ga -0.007109 1.799792 -0.139215 -0.000118 -0.000089 0.000759
Ga 3.188975 -3.742103 5.038385 -0.000099 -0.000132 0.000058
Ga 3.184708 -3.749771 -5.331702 -0.000221 -0.000162 -0.000090
Ga 3.172948 -3.735340 -0.148076 -0.000071 -0.000220 0.000972
Ga 1.589646 -0.947477 5.044305 -0.000110 0.000070 -0.000102
Ga 1.570980 -0.944734 -5.318152 -0.000166 0.000011 -0.000172
Al 1.585625 -0.946593 -0.164328 0.000077 0.000042 0.000528
Ga 3.181335 1.791107 5.038098 -0.000027 -0.000072 0.000045
Ga 3.166904 1.794699 -5.319018 -0.000024 -0.000086 -0.000039
Al 3.184609 1.781350 -0.163773 0.000031 -0.000041 0.000574
Ga 6.363692 -3.731737 5.055660 -0.000001 0.000004 0.000057
Ga 6.370629 -3.738955 -5.354359 0.000015 -0.000012 -0.000071
Ga 6.376827 -3.739252 -0.139060 0.000004 -0.000057 0.000804
Al 4.787244 -0.956894 5.045243 0.000078 0.000078 0.000141
Ga 4.786361 -0.960482 -5.324247 0.000022 0.000259 -0.000169
Al 4.770688 -0.940574 -0.160728 -0.000001 0.000095 0.000770
Al -3.230326 1.799405 5.041116 0.000149 -0.000047 0.000188
Ga -3.225907 1.808675 -5.309119 0.000061 0.000003 0.000049
Al -3.243982 1.804939 -0.175939 0.000011 0.000018 0.000602
Ga -0.019945 -3.746431 5.036733 0.000077 -0.000019 0.000111
Ga -0.017131 -3.736061 -5.301844 0.000039 -0.000042 0.000084
Ga -0.012496 -3.740733 -0.168218 0.000017 -0.000051 0.000617
Ga -1.643373 -0.955690 5.050595 0.000051 0.000171 0.000082
Ga -1.625976 -0.962884 -5.330300 0.000055 0.000154 -0.000072
Ga -1.622663 -0.957766 -0.156985 0.000057 0.000182 0.000384
N 1.580006 0.885001 4.334087 0.000034 -0.000156 -0.000064
N 1.538773 0.908468 -5.999954 -0.000122 -0.000027 -0.000065
N 1.616724 0.863848 -0.803646 -0.000001 -0.000086 0.000067
N -0.019826 3.655980 4.357340 -0.000059 -0.000010 -0.000142
N -0.024901 3.606088 -5.997233 -0.000001 -0.000144 -0.000109
N -0.023102 3.651867 -0.785707 -0.000027 -0.000005 0.000176
N 3.221521 -1.860587 4.424271 0.000119 0.000147 -0.000060
N 3.178535 -1.885889 -5.955911 -0.000017 0.000074 -0.000023
N 3.177984 -1.841075 -0.736004 -0.000083 0.000207 0.000285
N -4.785027 0.859672 4.432183 0.000162 -0.000108 -0.000018
N -4.825082 0.886530 -5.974912 -0.000003 -0.000230 0.000174
N -4.828744 0.885469 -0.781093 0.000025 -0.000001 0.000118
N -6.435561 3.652966 4.413205 0.000070 -0.000009 -0.000032
N -6.419939 3.652708 -5.947136 -0.000077 0.000028 0.000008
N -6.429660 3.604988 -0.751583 0.000012 -0.000154 0.000235
N -3.270884 -1.866275 4.424664 -0.000198 0.000169 0.000046
N -3.229846 -1.883395 -6.021444 -0.000029 0.000040 -0.000148
N -3.269171 -1.865806 -0.753965 -0.000119 0.000118 0.000149
N -1.663499 0.912908 4.428500 -0.000072 0.000022 0.000076
N -1.586240 0.913138 -5.935396 0.000186 -0.000054 0.000062
N -1.657821 0.915379 -0.764949 -0.000003 -0.000057 0.000323
N -3.221822 3.604947 4.425765 0.000031 -0.000153 0.000045
N -3.227797 3.652899 -5.963685 0.000179 0.000092 0.000142
N -3.220393 3.610922 -0.812016 0.000084 -0.000103 0.000009
N -0.021137 -1.881801 4.415324 0.000157 0.000109 -0.000042
N -0.021035 -1.891413 -5.956862 0.000187 0.000229 0.000020
N 0.022049 -1.860754 -0.808117 0.000105 0.000097 -0.000116
N 0.020425 1.832551 1.848051 0.000165 0.000006 -0.000635
N 0.022917 1.834724 7.030336 0.000115 -0.000009 0.000090
N 0.028578 1.780536 -3.414797 0.000053 -0.000019 -0.000108
N 3.218915 -3.760660 1.838345 0.000021 -0.000117 -0.000847
N 3.226472 -3.763987 7.024901 -0.000014 -0.000216 0.000044
N 3.136347 -3.759014 -3.346943 -0.000124 -0.000155 -0.000007
N 1.577691 -0.912949 1.764400 -0.000162 0.000155 -0.000671
N 1.579982 -0.908280 7.028098 -0.000176 0.000148 -0.000003
N 1.537808 -0.934773 -3.332923 -0.000190 0.000107 0.000090
N 3.142147 1.777995 1.765942 -0.000188 -0.000105 -0.000690
N 3.133459 1.781167 7.021261 -0.000188 -0.000106 0.000054
N 3.178250 1.752260 -3.328681 0.000062 -0.000176 0.000079
N 6.337135 -3.759486 1.836924 -0.000194 -0.000053 -0.000664
N 6.333760 -3.715806 7.049273 -0.000109 0.000061 0.000026
N 6.383083 -3.735085 -3.378000 -0.000119 -0.000026 0.000060
N 4.779588 -0.958057 1.752549 0.000068 0.000107 -0.000780
N 4.820551 -0.987630 6.964764 0.000125 0.000007 -0.000089
N 4.780453 -0.912707 -3.343097 0.000031 0.000171 0.000072
N -3.230217 1.807609 1.744745 0.000077 -0.000007 -0.000805
N -3.222873 1.805476 6.954740 -0.000060 0.000092 -0.000219
N -3.273118 1.830990 -3.322174 -0.000065 0.000040 -0.000056
N -0.021908 -3.737397 1.812610 0.000048 0.000067 -0.000615
N -0.026054 -3.739368 7.008732 0.000091 0.000065 -0.000133
N 0.019202 -3.711420 -3.312480 0.000204 0.000044 -0.000027
N -1.626933 -0.962378 1.818676 0.000082 0.000249 -0.000342
N -1.668953 -0.984121 7.033476 -0.000043 0.000007 -0.000005
N -1.582810 -0.990514 -3.345851 0.000160 0.000062 0.000032
