108
Energy=-1123296.441384 Lattice="9.478405 0.000000 0.000000 -4.744372 8.205546 0.000000 -0.006391 -0.000420 15.278488" Stress="0.000004 -0.000004 -0.000002 -0.000004 0.000002 -0.000000 -0.000002 -0.000000 0.000006" Properties=species:S:1:pos:R:3:forces:R:3
Al 1.565138 0.877797 2.404840 -0.000926 -0.000928 -0.001006
Al 1.561444 0.876053 7.500182 0.000050 -0.000410 -0.000031
Al 1.561602 0.885895 -2.714252 0.000497 -0.000320 0.000822
Al -0.037708 3.603940 2.401450 0.001179 0.000734 -0.001312
Al -0.034322 3.599066 7.500972 -0.000371 0.000222 -0.000026
Al -0.015321 3.587445 -2.701127 -0.000307 0.000424 0.000216
Al 3.147986 -1.866141 2.424829 0.000065 -0.001608 -0.000943
Al 3.134244 -1.856825 7.482011 0.000094 0.000014 0.000033
Ga 3.137130 -1.860666 -2.703979 -0.000400 0.000111 0.000313
Al -4.768723 0.869047 2.420333 -0.000558 0.001193 -0.000482
Al -4.778690 0.876340 7.474826 0.000561 0.000114 0.000291
Al -4.778844 0.888407 -2.698867 0.000943 0.000161 -0.000332
Ga -6.348245 3.591526 2.403536 0.000215 0.000031 -0.000172
Al -6.341965 3.587141 7.507723 -0.000307 0.000438 0.000079
Al -6.334732 3.592804 -2.716318 0.000048 0.000333 0.000151
Al -3.185316 -1.841017 2.423267 -0.000412 -0.001518 -0.001194
Ga -3.195007 -1.854599 7.504232 -0.000430 -0.000082 0.000321
Ga -3.171875 -1.866412 -2.718695 -0.000141 0.000077 0.000301
Al -1.610337 0.871869 2.382730 0.000338 0.000812 -0.000571
Al -1.609978 0.885440 7.496286 -0.000047 -0.000513 -0.000304
Ga -1.589632 0.883427 -2.682762 0.000351 -0.000511 0.000469
Ga -3.173179 3.600859 2.404128 0.000105 -0.000112 0.000801
Al -3.189937 3.601944 7.468716 0.000121 -0.000127 -0.000282
Al -3.194348 3.612147 -2.682107 -0.000125 -0.000066 0.000286
Ga -0.024720 -1.855163 2.417721 0.000014 0.000007 0.000907
Ga -0.016723 -1.861011 7.489005 0.000390 -0.000253 0.000282
Al -0.017415 -1.866149 -2.715026 0.000399 -0.000638 0.000942
Ga -0.033290 1.774097 4.947846 -0.000172 -0.000006 0.000073
Al -0.006588 1.776507 -5.258632 0.000407 0.000172 0.000713
Al -0.021079 1.784578 -0.136907 0.000542 -0.000024 -0.000133
Al 3.128266 -3.676544 4.964419 -0.000085 -0.000069 0.000161
Ga 3.142405 -3.687306 -5.255963 -0.000064 0.000345 0.000522
Al 3.137612 -3.706930 -0.152241 0.000355 0.000499 0.000067
Al 1.570070 -0.950645 4.947761 0.000821 0.000204 -0.000105
Al 1.557863 -0.938741 -5.245928 -0.000066 0.000059 0.000282
Ga 1.550289 -0.947126 -0.145505 -0.000383 0.000802 -0.002256
Al 3.142608 1.772456 4.967040 0.000010 0.001085 -0.000201
Al 3.129315 1.780048 -5.251039 0.000336 -0.000045 0.000142
Al 3.143721 1.785193 -0.165566 -0.001748 0.000060 0.000618
Ga 6.296222 -3.680607 4.955126 -0.000126 -0.000246 -0.000180
Al 6.309201 -3.700315 -5.245659 0.000215 0.000285 0.000008
Ga 6.301606 -3.699783 -0.146868 -0.000052 -0.000037 -0.000160
Al 4.705730 -0.940185 4.937779 -0.000380 -0.000318 -0.000431
Al 4.711407 -0.940035 -5.257274 0.000541 -0.000228 0.000072
Ga 4.726258 -0.932606 -0.114540 -0.000645 -0.000597 0.000068
Al -3.194464 1.777307 4.955298 0.000210 0.000117 -0.000281
Ga -3.193417 1.778489 -5.254217 -0.000144 0.000210 0.000996
Al -3.187946 1.793205 -0.153052 -0.000098 -0.000340 0.000100
Al -0.018990 -3.693350 4.971463 0.001469 0.001526 0.000119
Al -0.029272 -3.684073 -5.237079 0.000711 -0.000492 -0.000277
Al -0.017423 -3.690495 -0.182750 0.000105 0.000385 -0.000702
Al -1.613391 -0.938280 4.948917 0.002640 -0.000561 -0.002989
Al -1.588258 -0.947452 -5.246312 0.000154 -0.001432 0.001589
Al -1.591393 -0.945692 -0.138933 0.000014 -0.000534 -0.000405
N 1.597416 0.856252 4.322789 0.000253 -0.000080 -0.000357
N 1.561452 0.870078 -5.858300 0.000220 0.000142 -0.000111
N 1.555531 0.922067 -0.786672 0.000176 0.000177 -0.001026
N -0.076078 3.629899 4.308309 0.000207 -0.000006 0.000619
N 0.016401 3.583640 -5.870432 0.000075 -0.000342 -0.000162
N -0.061220 3.575066 -0.780685 -0.000231 0.000155 0.000077
N 3.134757 -1.870146 4.346168 0.000259 0.000024 -0.000311
N 3.136551 -1.815799 -5.874968 0.000126 -0.000102 -0.000325
N 3.146945 -1.905190 -0.737948 0.000134 -0.000521 -0.000569
N -4.769895 0.880555 4.345573 0.000471 0.000377 -0.000074
N -4.806591 0.851232 -5.889699 0.000028 0.000227 -0.000418
N -4.764558 0.916549 -0.782665 0.000806 0.000175 -0.000411
N -6.300642 3.583097 4.375541 -0.001051 -0.001698 -0.000182
N -6.336074 3.602948 -5.845972 -0.000297 -0.000014 -0.000128
N -6.304643 3.580056 -0.793932 0.000136 0.000068 -0.000050
N -3.184342 -1.813696 4.335691 0.000785 0.000319 0.000107
N -3.174615 -1.860888 -5.792243 -0.001497 -0.000222 0.000048
N -3.141559 -1.838867 -0.748166 0.000262 0.000468 0.000061
N -1.651306 0.856062 4.300730 -0.000285 -0.000870 0.001362
N -1.563337 0.848945 -5.867115 -0.000152 0.001309 -0.000819
N -1.598699 0.875077 -0.697492 -0.000142 0.000271 -0.000191
N -3.186584 3.607051 4.396122 0.000051 -0.000296 -0.000126
N -3.227388 3.630695 -5.903404 -0.000674 0.000225 0.000641
N -3.182210 3.610480 -0.759386 -0.000214 -0.000785 -0.000130
N -0.012723 -1.864041 4.402577 -0.005034 -0.000135 0.000595
N -0.016035 -1.863561 -5.808951 0.000075 -0.000310 0.000037
N -0.061889 -1.880137 -0.789945 -0.000067 -0.000380 -0.000437
N -0.016562 1.782103 1.795411 -0.000469 0.000189 0.000617
N -0.026335 1.780547 6.930701 -0.000019 -0.000029 -0.000101
N 0.020391 1.802314 -3.339265 -0.000610 0.000598 -0.001112
N 3.179594 -3.665573 1.766661 -0.000545 0.000583 0.000850
N 3.140203 -3.684738 6.890363 0.000091 0.000128 -0.000094
N 3.140534 -3.740431 -3.279981 0.000369 0.000071 -0.000512
N 1.601498 -0.933782 1.821825 -0.000567 0.001619 0.004518
N 1.597444 -0.923549 6.861156 0.000074 0.000741 0.000740
N 1.522971 -0.923796 -3.325963 -0.000100 0.000258 -0.000026
N 3.133127 1.734088 1.759128 0.002023 -0.000229 -0.000207
N 3.126628 1.783415 6.886550 -0.000009 -0.000008 -0.000357
N 3.137338 1.781408 -3.326175 0.000001 -0.000047 -0.000252
N 6.260107 -3.656976 1.834819 -0.001096 -0.000642 0.000899
N 6.294581 -3.733274 6.927931 0.000713 -0.000085 0.000152
N 6.301163 -3.741278 -3.325326 -0.000049 -0.000057 -0.000061
N 4.710844 -0.945685 1.869305 0.001739 0.000241 -0.000327
N 4.673451 -0.927429 6.855282 -0.000201 -0.000170 -0.000463
N 4.718029 -0.896459 -3.348898 -0.000069 0.000056 -0.000287
N -3.195808 1.737928 1.769867 0.000009 -0.000083 0.000321
N -3.187563 1.777395 6.882525 0.000096 -0.000100 -0.000282
N -3.220144 1.810552 -3.273735 -0.000718 -0.000395 -0.000136
N -0.020001 -3.685559 1.726186 0.000156 0.000033 0.000515
N -0.032133 -3.733528 6.876292 0.000010 0.000027 -0.000028
N -0.015975 -3.688157 -3.308972 0.000343 -0.000234 -0.000240
N -1.635973 -0.931738 1.777259 -0.000848 -0.000307 0.000535
N -1.609124 -0.901003 6.847798 0.000170 0.000631 0.001951
N -1.553335 -0.963814 -3.342377 -0.000829 0.000633 -0.001300
