108
Energy=-1581051.190014 Lattice="9.529049 0.000000 0.000000 -4.781800 8.251697 0.000000 0.003614 0.004540 15.348513" Stress="-0.000025 -0.000007 0.000002 -0.000007 -0.000019 0.000001 0.000002 0.000001 -0.000040" Properties=species:S:1:pos:R:3:forces:R:3
Al 1.586883 0.886329 2.383729 -0.014295 -0.006401 0.006098
Al 1.551406 0.868959 7.519714 -0.000117 -0.000373 0.001434
Al 1.543117 0.868338 -2.699825 0.000252 0.002162 0.000069
Al -0.041002 3.622589 2.382775 -0.002881 0.000487 0.001643
Al -0.032226 3.609896 7.519614 -0.000485 -0.000447 0.000409
Al -0.047777 3.614722 -2.686850 0.000611 -0.000692 0.000756
Al 3.144555 -1.883673 2.369940 0.001072 -0.000079 0.001017
Al 3.152471 -1.875751 7.525757 -0.000363 -0.001032 0.001173
Ga 3.146154 -1.871999 -2.688166 0.000433 -0.001177 0.001199
Ga -4.797913 0.875513 2.395615 0.001726 -0.000118 0.000821
Ga -4.787299 0.886445 7.532113 0.001900 -0.000176 0.000055
Al -4.786561 0.876606 -2.685521 0.001050 0.000905 -0.000055
Ga -6.401679 3.616281 2.383263 0.000946 0.002070 0.000255
Ga -6.385229 3.621927 7.547177 0.000745 0.000838 -0.000618
Ga -6.393940 3.624299 -2.670498 0.000445 0.000049 -0.001818
Ga -3.198475 -1.863715 2.375481 0.000245 -0.001154 0.002013
Ga -3.194360 -1.875645 7.522795 0.001447 0.000370 0.000637
Al -3.191467 -1.865502 -2.666781 0.000185 -0.000449 0.000501
Al -1.605674 0.889795 2.409707 0.001131 -0.000092 0.001637
Ga -1.606019 0.911119 7.514430 0.001350 -0.001466 0.001697
Al -1.620595 0.883387 -2.710021 0.001387 0.000422 -0.001043
Al -3.183181 3.626677 2.400627 0.000274 0.000704 -0.000359
Al -3.190597 3.626891 7.523181 0.000357 -0.000835 0.001250
Al -3.200285 3.621533 -2.691507 -0.000297 -0.001416 -0.000623
Ga -0.002261 -1.841683 2.397896 -0.000162 -0.001013 0.001663
Ga 0.011024 -1.855740 7.512688 0.000041 -0.000620 0.000886
Al -0.013626 -1.851965 -2.687993 -0.000497 -0.000987 0.000518
Al -0.023398 1.778021 4.927204 0.000098 0.000917 0.001487
Al -0.028022 1.781353 -5.253412 0.000443 0.001432 0.002548
Ga -0.021828 1.783665 -0.140072 -0.001110 0.001402 -0.003571
Ga 3.166013 -3.716558 4.952596 -0.000013 0.001859 0.001537
Ga 3.160045 -3.730399 -5.272948 0.000216 0.001714 0.001358
Al 3.165203 -3.704773 -0.144073 0.000050 0.000412 0.000954
Al 1.578619 -0.941798 4.944136 -0.000119 0.000963 0.001599
Al 1.567885 -0.949092 -5.258439 0.000480 0.001141 0.001925
Al 1.578842 -0.951293 -0.153296 -0.001252 0.000387 0.001335
Ga 3.136973 1.781326 4.972413 -0.001078 -0.000413 0.000978
Ga 3.133428 1.769668 -5.239049 -0.000380 0.000051 0.000161
Al 3.131128 1.770599 -0.162729 0.001209 0.000888 -0.000267
Ga 6.332649 -3.710942 4.961778 -0.001403 0.000398 0.000529
Ga 6.320684 -3.717415 -5.232396 -0.000773 0.000008 0.001244
Al 6.313153 -3.702200 -0.161429 0.000326 0.000636 0.000419
Ga 4.745545 -0.956283 4.959109 -0.002129 -0.000875 0.000180
Ga 4.747020 -0.953247 -5.239375 -0.001845 -0.000404 0.000945
Al 4.737085 -0.965262 -0.157895 0.000224 0.000281 -0.000645
Al -3.184860 1.798656 4.942294 0.000408 -0.000033 0.000567
Al -3.198554 1.801140 -5.236246 -0.000433 0.000392 0.002057
Ga -3.206626 1.788170 -0.158521 -0.000090 0.000490 0.000873
Ga 0.002576 -3.699413 4.959918 0.000093 0.000600 -0.000547
Ga 0.005569 -3.706012 -5.236205 -0.000347 0.000234 0.000370
Ga -0.010808 -3.692143 -0.153115 -0.000219 -0.000230 -0.000201
Al -1.592306 -0.930261 4.951207 -0.001068 0.000635 0.000208
Ga -1.592786 -0.940544 -5.227599 -0.001130 0.000123 0.000478
Al -1.608062 -0.949216 -0.174051 -0.001364 -0.000718 -0.000179
N 1.532548 0.855934 4.310624 -0.000930 -0.000814 -0.001435
N 1.512012 0.847874 -5.892796 -0.000708 -0.000466 -0.002009
N 1.588977 0.850887 -0.790381 0.000548 -0.001420 0.001025
N -0.028277 3.584229 4.299554 -0.000399 -0.001501 -0.000865
N -0.028404 3.569443 -5.907494 0.000165 -0.001835 -0.002121
N -0.045030 3.661344 -0.769728 0.000384 0.000728 -0.001316
N 3.119641 -1.854225 4.290319 0.000068 -0.000679 0.000579
N 3.119875 -1.854486 -5.894367 -0.000993 0.000359 -0.001092
N 3.150300 -1.879719 -0.709369 0.000094 -0.000025 0.000640
N -4.756463 0.902148 4.365292 0.002049 0.000859 -0.000666
N -4.750425 0.902005 -5.844767 0.001673 0.000562 -0.000518
N -4.833155 0.854701 -0.768608 -0.000398 -0.000715 -0.000252
N -6.382890 3.626050 4.346929 0.000957 -0.000091 -0.001029
N -6.384547 3.624442 -5.838210 0.000483 0.000040 -0.000095
N -6.428760 3.603020 -0.706852 -0.000832 -0.000520 0.001468
N -3.151286 -1.848335 4.355298 0.002106 0.000621 -0.001330
N -3.186030 -1.873681 -5.861816 0.000710 0.000013 -0.000673
N -3.197224 -1.872519 -0.747580 0.000390 0.000224 0.000374
N -1.614319 0.882874 4.341345 0.000891 -0.000813 -0.001294
N -1.621232 0.928895 -5.836503 0.000611 -0.000087 -0.000704
N -1.620578 0.843376 -0.805672 0.001588 -0.001433 -0.001050
N -3.201206 3.589920 4.305168 0.000279 -0.001628 -0.000289
N -3.212583 3.576449 -5.905834 -0.000000 -0.001960 -0.002186
N -3.170214 3.650398 -0.788150 0.001392 0.000003 -0.000864
N -0.010912 -1.815361 4.378019 -0.000321 -0.000333 0.000610
N 0.020630 -1.845988 -5.857163 0.000445 -0.000874 -0.000818
N -0.014938 -1.819663 -0.770975 0.000942 0.001077 -0.000643
N -0.027312 1.797047 1.827781 0.002796 -0.002856 0.004176
N 0.022115 1.811489 6.863911 0.000354 0.001271 -0.000773
N -0.027079 1.793086 -3.313398 -0.000158 0.000788 -0.001044
N 3.162956 -3.709856 1.784229 -0.000653 -0.000871 -0.000596
N 3.170360 -3.711461 6.953492 0.000166 0.001594 0.000728
N 3.157939 -3.754120 -3.291638 0.000606 0.000395 -0.000776
N 1.612579 -0.924713 1.766668 0.000058 0.001421 -0.003167
N 1.627432 -0.930473 6.876090 0.000226 0.001142 -0.002046
N 1.530878 -0.926354 -3.330287 -0.000322 -0.002303 -0.002976
N 3.099640 1.761169 1.756636 0.007070 0.003728 -0.006103
N 3.108215 1.768529 6.941608 -0.000967 -0.000251 -0.000369
N 3.143421 1.743058 -3.265337 -0.000552 -0.001006 -0.000236
N 6.284691 -3.727193 1.753304 0.001573 0.000648 -0.002385
N 6.301701 -3.732827 6.930122 -0.001087 -0.000416 -0.000773
N 6.285981 -3.683520 -3.256037 -0.000223 0.000582 -0.000074
N 4.700829 -0.979382 1.755713 0.000134 0.000614 -0.002420
N 4.710396 -0.979410 6.930926 -0.002035 -0.000031 -0.000803
N 4.784310 -0.937580 -3.261624 -0.000025 0.000265 0.000211
N -3.162492 1.814516 1.818881 0.000072 0.000112 -0.000144
N -3.198084 1.843918 6.860647 -0.000926 0.001159 -0.001806
N -3.209319 1.797986 -3.304129 -0.000709 0.000121 -0.000283
N 0.026558 -3.723904 1.817539 0.000919 0.000443 -0.000277
N 0.031566 -3.727712 6.931605 0.000107 -0.000225 0.000231
N 0.024092 -3.682336 -3.258564 0.000453 0.001406 0.001306
N -1.601899 -0.900408 1.744462 -0.000749 0.001278 -0.001033
N -1.596571 -0.943409 6.862121 -0.001371 0.000345 -0.000724
N -1.606661 -0.957315 -3.249637 -0.001254 -0.000414 0.001152
