108
Energy=-2.221908e+06 Lattice="9.613641e+00 0.000000e+00 0.000000e+00 -4.806579e+00 8.324507e+00 0.000000e+00 -5.731344e-04 1.771357e-03 1.558528e+01" Stress="4.105225e-06 -4.008575e-06 -1.677975e-05 -8.245436e-07 -1.041815e-06 1.062074e-05 2.914336e-06 2.214015e-05 3.190519e-06" Properties=species:S:1:pos:R:3:forces:R:3 Config_type=AlGaN_super3_39_2_15.xyz
Al 1.584742e+00 8.937548e-01 2.453420e+00 -3.075262e-06 -9.467665e-06 -1.215961e-05
Al 1.579974e+00 8.872865e-01 7.637791e+00 -5.183722e-06 -4.258973e-06 -9.950311e-06
Al 1.579634e+00 8.864169e-01 -2.733095e+00 -5.423518e-06 -7.170237e-06 -2.029632e-05
Al -1.613137e-02 3.659302e+00 2.451000e+00 -1.537001e-05 6.990153e-06 -6.575781e-06
Ga -2.891258e-02 3.663568e+00 7.637676e+00 4.123253e-07 -7.483607e-08 1.385053e-05
Ga -1.821572e-02 3.661365e+00 -2.738054e+00 -9.670850e-06 -1.124900e-05 2.050366e-05
Ga 3.191074e+00 -1.885031e+00 2.473466e+00 -2.167480e-06 5.829246e-06 1.536271e-05
Ga 3.188800e+00 -1.894077e+00 7.617503e+00 -3.797156e-06 2.088318e-05 1.387186e-05
Ga 3.182485e+00 -1.889967e+00 -2.742902e+00 -6.033262e-06 -6.945320e-07 1.602837e-05
Al -4.834380e+00 8.821049e-01 2.475108e+00 4.546266e-06 -2.780400e-06 -1.808121e-06
Ga -4.820310e+00 8.871930e-01 7.635899e+00 1.271857e-05 1.081281e-05 1.977852e-05
Ga -4.823625e+00 8.901098e-01 -2.762469e+00 1.572442e-05 4.780820e-06 2.756053e-05
Ga -6.439209e+00 3.652756e+00 2.429329e+00 -7.426526e-06 -1.188224e-05 1.858418e-05
Ga -6.434756e+00 3.659181e+00 7.642589e+00 -2.062547e-07 -4.542530e-06 2.071014e-05
Ga -6.433115e+00 3.664015e+00 -2.721332e+00 -2.555897e-06 -8.276722e-06 2.104462e-05
Ga -3.241139e+00 -1.892812e+00 2.453441e+00 -1.095409e-05 1.723625e-05 -1.286641e-05
Al -3.235893e+00 -1.884523e+00 7.625825e+00 9.290710e-06 1.709322e-06 -2.136309e-05
Al -3.229531e+00 -1.896217e+00 -2.723260e+00 -5.235387e-06 -9.765451e-06 -5.950589e-06
Ga -1.624360e+00 8.965625e-01 2.463926e+00 -3.025112e-06 3.149649e-06 1.814229e-05
Ga -1.636280e+00 8.948502e-01 7.642019e+00 -1.265750e-06 -6.747678e-06 1.009847e-05
Ga -1.631622e+00 8.936973e-01 -2.754794e+00 9.010725e-06 -6.760919e-06 3.166062e-05
Ga -3.225025e+00 3.654061e+00 2.464464e+00 -1.242980e-07 -1.827527e-05 1.395766e-05
Al -3.218632e+00 3.649701e+00 7.622284e+00 -1.241968e-05 -3.994296e-06 -9.927258e-06
Al -3.231561e+00 3.652755e+00 -2.735483e+00 3.589377e-06 7.831925e-06 -2.394105e-05
Ga -1.807025e-02 -1.890612e+00 2.444958e+00 -4.734453e-06 3.536502e-06 -5.028308e-06
Ga -2.345749e-02 -1.887332e+00 7.651347e+00 -7.441377e-06 -2.490989e-06 1.495479e-05
Ga -2.037035e-02 -1.894098e+00 -2.740344e+00 5.976793e-07 -2.301764e-05 2.339214e-05
Ga -2.655818e-02 1.821173e+00 5.038111e+00 -2.001748e-06 -1.126678e-05 8.111168e-06
Ga -2.036973e-02 1.802795e+00 -5.343617e+00 2.550557e-06 -7.803126e-06 9.088208e-06
Ga -9.523637e-03 1.818841e+00 -1.305330e-01 1.826856e-05 -3.972616e-08 1.244835e-06
Al 3.183457e+00 -3.747175e+00 5.041094e+00 3.647475e-06 -1.419605e-05 7.400909e-06
Ga 3.162169e+00 -3.757608e+00 -5.341675e+00 9.955660e-06 -5.088538e-06 1.899092e-05
Ga 3.177619e+00 -3.748104e+00 -1.426561e-01 5.879533e-06 1.831301e-05 -2.879148e-05
Ga 1.591068e+00 -9.602390e-01 5.048145e+00 -3.494577e-06 -1.455986e-05 9.995910e-06
Ga 1.582487e+00 -9.524447e-01 -5.343212e+00 -5.484714e-06 -4.016748e-06 1.795495e-05
Ga 1.576098e+00 -9.625683e-01 -1.364334e-01 -7.217893e-06 1.024058e-05 1.358777e-05
Ga 3.191035e+00 1.795580e+00 5.034816e+00 -7.359958e-07 -1.122817e-05 1.257029e-05
Ga 3.178516e+00 1.803724e+00 -5.340996e+00 -1.495924e-06 -1.209001e-05 1.705731e-05
Ga 3.180270e+00 1.813292e+00 -1.306905e-01 2.703608e-07 -1.684220e-05 -4.067486e-06
Ga 6.365896e+00 -3.729745e+00 5.043627e+00 6.237122e-06 1.379441e-05 5.096205e-06
Ga 6.386172e+00 -3.724475e+00 -5.341175e+00 4.240974e-06 7.740826e-07 7.384834e-06
Al 6.388696e+00 -3.735058e+00 -1.403541e-01 -3.642371e-06 1.064664e-05 2.316345e-05
Al 4.788303e+00 -9.574462e-01 5.045851e+00 3.389005e-05 -2.658521e-05 -8.085503e-07
Ga 4.800900e+00 -9.666737e-01 -5.346641e+00 5.749883e-06 -2.030989e-05 1.687353e-05
Ga 4.792687e+00 -9.684207e-01 -1.393627e-01 -9.324188e-06 4.452288e-06 2.484407e-05
Al -3.235353e+00 1.813341e+00 5.042937e+00 2.790891e-05 -9.732667e-06 -4.998925e-06
Al -3.227014e+00 1.826400e+00 -5.348093e+00 6.292620e-06 8.253426e-07 -1.511155e-05
Ga -3.239130e+00 1.821729e+00 -1.359684e-01 -7.987448e-06 -6.452829e-06 2.295048e-05
Ga -5.432867e-03 -3.749576e+00 5.062065e+00 1.178126e-05 -2.478863e-06 4.222073e-06
Ga -3.821943e-03 -3.761005e+00 -5.343838e+00 7.145473e-06 -1.308860e-05 1.593378e-06
Al -2.260120e-02 -3.745920e+00 -1.545944e-01 -7.192949e-06 1.560474e-05 2.008750e-05
Ga -1.642889e+00 -9.586975e-01 5.057751e+00 -3.509450e-06 -1.814472e-05 -3.083275e-06
Ga -1.646493e+00 -9.644131e-01 -5.339998e+00 -7.062380e-06 -1.048637e-05 2.393171e-07
Ga -1.631333e+00 -9.821530e-01 -1.550172e-01 -2.262779e-06 -7.357853e-06 8.318310e-05
N 1.577507e+00 8.867843e-01 4.360380e+00 8.321442e-06 1.061659e-05 -6.387261e-06
N 1.580070e+00 8.864071e-01 -6.036930e+00 4.711119e-06 2.808370e-06 -3.822610e-06
N 1.580543e+00 8.865528e-01 -8.197749e-01 4.731068e-06 -2.560668e-06 3.003573e-06
N -6.331571e-02 3.686447e+00 4.375970e+00 1.232868e-06 -1.350994e-06 2.388166e-05
N -2.487971e-02 3.661172e+00 -5.970058e+00 -5.643009e-06 4.538840e-06 -1.419435e-05
N 2.004347e-02 3.684155e+00 -7.580151e-01 -7.669628e-06 -1.633764e-05 -3.173091e-05
N 3.226480e+00 -1.914492e+00 4.466118e+00 -2.358550e-05 1.166841e-05 -1.342403e-05
N 3.185403e+00 -1.895140e+00 -5.980495e+00 -1.074403e-06 2.628863e-06 -2.698175e-05
N 3.181563e+00 -1.890775e+00 -7.684076e-01 7.971924e-06 -3.444016e-06 -1.861884e-05
N -4.786253e+00 8.608112e-01 4.406371e+00 -2.752964e-05 7.371159e-06 1.496449e-06
N -4.785352e+00 9.089403e-01 -5.957440e+00 -5.267309e-06 2.485234e-06 -1.680881e-05
N -4.830014e+00 8.863541e-01 -7.890866e-01 1.949944e-05 2.211374e-06 -2.248071e-05
N -6.432372e+00 3.665354e+00 4.412003e+00 -3.283394e-06 -3.181500e-06 -1.246218e-05
N -6.433136e+00 3.658842e+00 -5.967713e+00 -9.616779e-07 2.119086e-06 -1.003969e-05
N -6.434350e+00 3.705855e+00 -7.247097e-01 6.341752e-06 -6.534582e-06 -1.648999e-05
N -3.271037e+00 -1.865150e+00 4.425143e+00 -2.621458e-06 -3.209137e-06 -2.302869e-06
N -3.230232e+00 -1.890129e+00 -6.047969e+00 -4.799306e-07 1.267869e-05 7.723744e-06
N -3.231962e+00 -1.940699e+00 -8.033871e-01 7.661796e-06 1.400245e-05 2.628076e-06
N -1.668089e+00 9.114049e-01 4.443154e+00 1.334930e-05 5.572994e-06 -1.508891e-05
N -1.670401e+00 9.110448e-01 -5.952719e+00 1.454447e-05 -9.676717e-07 -1.116813e-05
N -1.626273e+00 8.921080e-01 -7.712646e-01 2.794168e-06 -8.645083e-06 -2.318107e-05
N -3.186358e+00 3.636583e+00 4.445445e+00 -5.637004e-06 2.223637e-05 -4.660606e-06
N -3.223061e+00 3.606763e+00 -6.038298e+00 -1.409730e-06 9.231971e-06 1.331752e-05
N -3.268374e+00 3.678820e+00 -8.113658e-01 1.574965e-05 -3.086569e-05 4.021166e-06
N -2.510067e-02 -1.891892e+00 4.422913e+00 1.335164e-05 1.171551e-06 -6.825097e-06
N -2.515351e-02 -1.891872e+00 -5.956448e+00 1.494819e-05 2.872510e-06 -1.843842e-05
N -1.925220e-02 -1.938784e+00 -7.578836e-01 5.040650e-06 2.987731e-06 -1.005464e-05
N 2.147210e-02 1.834830e+00 1.861683e+00 -5.527673e-06 9.317011e-06 6.907734e-06
N 1.816931e-02 1.788282e+00 7.022130e+00 -2.880881e-06 2.293679e-05 -3.049368e-06
N 2.261783e-02 1.785481e+00 -3.360635e+00 -2.857138e-06 2.742705e-05 -1.280689e-05
N 3.219791e+00 -3.764053e+00 1.840550e+00 -8.145229e-06 1.444113e-05 5.405157e-05
N 3.141843e+00 -3.767360e+00 6.965853e+00 8.551427e-06 -4.585359e-07 -1.032109e-06
N 3.134646e+00 -3.769059e+00 -3.355100e+00 -4.707617e-06 1.435914e-05 -1.715626e-05
N 1.584688e+00 -9.153255e-01 1.845606e+00 -2.444140e-06 3.784791e-06 1.230352e-06
N 1.578476e+00 -9.145403e-01 7.026598e+00 -2.469804e-06 3.867885e-06 -9.299530e-06
N 1.580448e+00 -9.126191e-01 -3.359300e+00 -6.245459e-06 7.019243e-06 -9.493604e-06
N 3.186066e+00 1.755662e+00 1.860752e+00 -5.959796e-06 2.577146e-05 1.944129e-05
N 3.142777e+00 1.783442e+00 7.019068e+00 5.911298e-06 4.390127e-06 -4.820834e-06
N 3.135664e+00 1.789811e+00 -3.355959e+00 1.544873e-06 3.423004e-06 -1.312581e-05
N 6.341336e+00 -3.759020e+00 1.784308e+00 1.754115e-05 -8.030276e-06 -1.553611e-05
N 6.382706e+00 -3.692832e+00 7.021811e+00 -1.272935e-05 -1.194453e-05 -9.554216e-06
N 6.388826e+00 -3.688492e+00 -3.359604e+00 4.731413e-07 5.809295e-06 -5.657697e-06
N 4.782679e+00 -9.132508e-01 1.839492e+00 5.137388e-06 -1.172347e-05 -5.093592e-06
N 4.825789e+00 -9.801122e-01 6.969063e+00 -2.284298e-05 -1.087607e-06 2.530819e-06
N 4.831657e+00 -9.933495e-01 -3.362437e+00 -1.152128e-05 -1.428484e-06 -1.856003e-05
N -3.274488e+00 1.786921e+00 1.843493e+00 -2.290651e-06 2.259565e-05 -3.526930e-05
N -3.231574e+00 1.856612e+00 6.962269e+00 -5.219846e-06 -8.889780e-06 -4.915953e-06
N -3.227030e+00 1.867531e+00 -3.421825e+00 -9.029986e-06 -8.549726e-06 4.529384e-06
N -1.490967e-02 -3.743749e+00 1.764597e+00 5.447634e-06 -1.014066e-05 -1.879683e-05
N 1.963804e-02 -3.763214e+00 7.038668e+00 -8.681905e-06 6.050829e-06 -1.340112e-05
N 2.056590e-02 -3.770187e+00 -3.359209e+00 -6.507265e-06 2.280348e-05 -5.779804e-06
N -1.629527e+00 -9.629502e-01 1.820436e+00 -7.167100e-06 -1.048252e-05 -9.588059e-05
N -1.665774e+00 -9.847989e-01 7.035988e+00 -4.195726e-06 1.257577e-05 3.772553e-06
N -1.672913e+00 -9.916674e-01 -3.351168e+00 -4.558889e-07 1.186439e-05 -2.558578e-06
