108
Energy=-2633879.978881 Lattice="9.476278 0.000000 0.000000 -4.738139 8.206697 0.000000 0.000000 0.000000 15.313968" Stress="-0.000520 0.000040 -0.000000 0.000040 -0.000479 -0.000001 0.000000 -0.000001 -0.000495" Properties=species:S:1:pos:R:3:forces:R:3
Al 1.564294 0.903146 2.504900 -0.001233 -0.014452 -0.012739
Ga 1.564294 0.903146 7.521855 -0.002142 -0.018688 -0.006370
Ga 1.564294 0.903146 -2.775158 -0.001726 -0.018379 -0.005422
Al 0.000000 3.612582 2.504900 -0.003089 -0.001724 -0.011393
Ga 0.000000 3.612582 7.521855 -0.003144 -0.001448 -0.002879
Ga 0.000000 3.612582 -2.775158 -0.002787 -0.001398 -0.002723
Ga 3.173845 -1.884678 2.504900 -0.003660 0.001302 -0.013527
Ga 3.173845 -1.884678 7.521855 -0.003191 0.002048 -0.004353
Ga 3.173845 -1.884678 -2.775158 -0.003205 0.002057 -0.003901
Ga -4.783396 0.903146 2.504900 0.000251 -0.016997 -0.013862
Ga -4.783396 0.903146 7.521855 0.000666 -0.017354 -0.005623
Al -4.783396 0.903146 -2.775158 0.001274 -0.013154 -0.003345
Ga -6.347690 3.612582 2.504900 -0.000795 -0.000425 -0.011310
Ga -6.347690 3.612582 7.521855 -0.000270 0.000004 -0.001744
Al -6.347690 3.612582 -2.775158 -0.000193 -0.000242 -0.001580
Ga -3.173845 -1.884678 2.504900 -0.000353 0.002867 -0.012135
Ga -3.173845 -1.884678 7.521855 -0.000601 0.003485 -0.003191
Ga -3.173845 -1.884678 -2.775158 -0.000564 0.003104 -0.003068
Ga -1.654808 0.903146 2.504900 0.016925 -0.009089 -0.016982
Ga -1.654808 0.903146 7.521855 0.016546 -0.009429 -0.008589
Ga -1.654808 0.903146 -2.775158 0.016195 -0.009312 -0.008290
Ga -3.219102 3.612582 2.504900 0.015733 0.008146 -0.014311
Ga -3.219102 3.612582 7.521855 0.015473 0.007998 -0.004887
Ga -3.219102 3.612582 -2.775158 0.014884 0.007587 -0.004808
Ga -0.045257 -1.884678 2.504900 0.015354 0.011178 -0.015555
Ga -0.045257 -1.884678 7.521855 0.015212 0.011319 -0.006120
Ga -0.045257 -1.884678 -2.775158 0.015097 0.010941 -0.006015
Ga 0.000000 1.806291 5.013378 -0.015012 -0.011317 -0.007567
Ga 0.000000 1.806291 -5.283635 -0.015159 -0.011288 -0.005881
Ga 0.000000 1.806291 -0.266680 -0.014751 -0.011400 0.045196
Ga 3.173845 -3.690969 5.013378 -0.015363 -0.007749 -0.005931
Ga 3.173845 -3.690969 -5.283635 -0.015381 -0.008037 -0.004931
Ga 3.173845 -3.690969 -0.266680 -0.015360 -0.007960 0.046614
Ga 1.609551 -0.981532 5.013378 -0.016149 0.009542 -0.009301
Ga 1.609551 -0.981532 -5.283635 -0.016461 0.009570 -0.008256
Ga 1.609551 -0.981532 -0.266680 -0.016393 0.009759 0.042800
Ga 3.128588 1.806291 5.013378 0.000557 -0.003577 -0.004072
Ga 3.128588 1.806291 -5.283635 0.000248 -0.003492 -0.002010
Al 3.128588 1.806291 -0.266680 0.000437 -0.003536 0.036853
Ga 6.302433 -3.690969 5.013378 0.000187 0.000245 -0.002641
Ga 6.302433 -3.690969 -5.283635 0.000033 -0.000061 -0.001017
Ga 6.302433 -3.690969 -0.266680 0.000348 -0.000478 0.049552
Al 4.738139 -0.981532 5.013378 -0.001391 0.013580 -0.004247
Ga 4.738139 -0.981532 -5.283635 -0.000761 0.017091 -0.004744
Ga 4.738139 -0.981532 -0.266680 -0.000938 0.017564 0.046038
Ga -3.219102 1.806291 5.013378 0.003029 -0.002107 -0.004437
Ga -3.219102 1.806291 -5.283635 0.003557 -0.001901 -0.003168
Ga -3.219102 1.806291 -0.266680 0.003066 -0.002200 0.047297
Ga -0.045257 -3.690969 5.013378 0.003124 0.001235 -0.003296
Ga -0.045257 -3.690969 -5.283635 0.003271 0.001397 -0.001955
Ga -0.045257 -3.690969 -0.266680 0.003136 0.001266 0.048267
Ga -1.609551 -0.981532 5.013378 0.001740 0.018703 -0.006519
Ga -1.609551 -0.981532 -5.283635 0.002103 0.018807 -0.005769
Ga -1.609551 -0.981532 -0.266680 0.002315 0.018804 0.045289
N 1.564294 0.903146 4.418497 -0.001581 -0.017813 -0.016815
N 1.564294 0.903146 -5.878516 -0.001193 -0.017912 0.005997
N 1.564294 0.903146 -0.861561 0.016915 -0.006981 0.016325
N 0.000000 3.612582 4.418497 -0.002366 -0.000089 -0.020970
N 0.000000 3.612582 -5.878516 -0.002288 0.000107 0.001915
N 0.000000 3.612582 -0.861561 -0.002594 0.000174 0.005755
N 3.173845 -1.884678 4.418497 0.015758 0.012482 0.009911
N 3.173845 -1.884678 -5.878516 -0.002864 0.001861 0.001453
N 3.173845 -1.884678 -0.861561 -0.002889 0.001411 0.005577
N -4.783396 0.903146 4.418497 0.001017 -0.035413 0.012810
N -4.783396 0.903146 -5.878516 0.000338 -0.017821 0.006467
N -4.783396 0.903146 -0.861561 -0.018113 -0.006938 -0.006563
N -6.347690 3.612582 4.418497 -0.000570 0.000495 0.003159
N -6.347690 3.612582 -5.878516 -0.000560 0.000299 0.002423
N -6.347690 3.612582 -0.861561 -0.000795 -0.020959 -0.009965
N -3.173845 -1.884678 4.418497 -0.019732 0.012886 0.010115
N -3.173845 -1.884678 -5.878516 -0.001208 0.002128 0.001910
N -3.173845 -1.884678 -0.861561 -0.001359 0.001866 0.006137
N -1.654808 0.903146 4.418497 0.016747 -0.009690 0.010650
N -1.654808 0.903146 -5.878516 0.016527 -0.009690 0.010036
N -1.654808 0.903146 -0.861561 0.016797 -0.009308 0.013573
N -3.219102 3.612582 4.418497 0.015640 0.008459 0.006920
N -3.219102 3.612582 -5.878516 0.015436 0.008499 0.006178
N -3.219102 3.612582 -0.861561 0.015782 0.008708 0.009862
N -0.045257 -1.884678 4.418497 0.014882 0.010382 0.006430
N -0.045257 -1.884678 -5.878516 0.014801 0.010138 0.005746
N -0.045257 -1.884678 -0.861561 0.014978 0.010041 0.009568
N 0.000000 1.806291 1.910020 0.003703 0.000727 -0.024711
N 0.000000 1.806291 6.926975 -0.014866 -0.010095 0.005801
N 0.000000 1.806291 -3.370038 -0.015069 -0.010481 0.005507
N 3.173845 -3.690969 1.910020 0.003265 -0.019408 -0.031671
N 3.173845 -3.690969 6.926975 -0.015619 -0.008695 0.006257
N 3.173845 -3.690969 -3.370038 -0.015806 -0.008671 0.006052
N 1.609551 -0.981532 1.910020 -0.017076 0.027651 -0.029091
N 1.609551 -0.981532 6.926975 -0.016748 0.009584 0.010199
N 1.609551 -0.981532 -3.370038 -0.016981 0.009639 0.009974
N 3.128588 1.806291 1.910020 -0.017541 -0.013082 -0.048113
N 3.128588 1.806291 6.926975 0.001142 -0.001991 0.002162
N 3.128588 1.806291 -3.370038 0.020060 0.009196 0.017523
N 6.302433 -3.690969 1.910020 -0.018521 -0.011001 -0.036043
N 6.302433 -3.690969 6.926975 0.000574 -0.000548 0.002481
N 6.302433 -3.690969 -3.370038 0.019640 -0.011204 0.009844
N 4.738139 -0.981532 1.910020 -0.000346 0.018184 -0.039248
N 4.738139 -0.981532 6.926975 -0.000416 0.017492 -0.016809
N 4.738139 -0.981532 -3.370038 -0.000634 0.035515 0.012117
N -3.219102 1.806291 1.910020 0.003010 -0.002103 -0.044563
N -3.219102 1.806291 6.926975 0.003036 -0.001555 0.001822
N -3.219102 1.806291 -3.370038 -0.015620 -0.012451 0.008917
N -0.045257 -3.690969 1.910020 0.002446 0.000026 -0.043837
N -0.045257 -3.690969 6.926975 0.002436 -0.000049 0.002100
N -0.045257 -3.690969 -3.370038 -0.016451 -0.010782 0.009438
N -1.609551 -0.981532 1.910020 0.001119 0.018356 -0.039701
N -1.609551 -0.981532 6.926975 0.001548 0.017931 0.006081
N -1.609551 -0.981532 -3.370038 0.001517 0.018086 0.005466
