108
Energy=-619766.218110 Lattice="9.418980 0.000000 0.000000 -4.711453 8.155724 0.000000 0.002833 0.010815 15.111103" Stress="0.000001 -0.000001 0.000001 -0.000001 -0.000001 0.000003 0.000001 0.000003 0.000000" Properties=species:S:1:pos:R:3:forces:R:3
Al 1.547950 0.872071 2.368342 -0.000080 0.000140 0.000031
Al 1.552884 0.879860 7.403555 -0.000026 -0.000052 -0.000010
Al 1.552398 0.875073 -2.666734 -0.000029 -0.000004 -0.000050
Al -0.028596 3.582774 2.383358 -0.000335 0.000066 0.000121
Al -0.021629 3.591239 7.405459 -0.000045 0.000031 0.000007
Al -0.029328 3.580840 -2.683826 -0.000057 0.000029 -0.000022
Al 3.122073 -1.850601 2.368813 -0.000027 -0.000045 0.000022
Al 3.127645 -1.846295 7.403730 0.000004 0.000090 -0.000007
Al 3.127601 -1.855536 -2.666642 -0.000003 0.000107 -0.000014
Al -4.730942 0.868286 2.367702 -0.000025 0.000150 0.000114
Al -4.729836 0.872828 7.404604 0.000008 -0.000023 0.000113
Al -4.734654 0.865033 -2.672897 -0.000004 0.000036 0.000131
Al -6.297762 3.581184 2.382833 -0.000151 0.000328 0.000021
Al -6.306614 3.583809 7.402850 0.000037 -0.000023 -0.000020
Al -6.304031 3.571083 -2.677120 0.000037 -0.000019 -0.000022
Al -3.169121 -1.845307 2.373420 -0.000001 0.000020 0.000076
Al -3.176677 -1.851542 7.417081 -0.000188 -0.000096 0.000035
Al -3.172388 -1.849067 -2.677687 -0.000043 0.000111 0.000089
Al -1.592705 0.877643 2.358941 0.000008 0.000115 -0.000060
Al -1.595731 0.890486 7.417704 -0.000019 -0.000193 0.000048
Al -1.597376 0.873246 -2.667175 -0.000036 0.000069 0.000041
Al -3.160176 3.584498 2.369289 -0.000017 0.000171 -0.000078
Al -3.156316 3.582902 7.403769 -0.000027 -0.000040 0.000034
Al -3.157875 3.576313 -2.666316 0.000033 0.000032 -0.000029
Al -0.016999 -1.852835 2.357317 0.000002 -0.000022 0.000053
Ga -0.011242 -1.850066 7.423426 -0.000085 0.000023 0.000068
Ga -0.024117 -1.854336 -2.664966 -0.000041 0.000093 -0.000017
Al -0.018375 1.783241 4.890442 0.000027 0.000135 -0.000123
Al -0.022621 1.768508 -5.188321 -0.000026 -0.000050 -0.000043
Al -0.025748 1.768111 -0.152462 -0.000113 -0.000111 -0.000155
Al 3.117698 -3.659811 4.887456 0.000142 -0.000079 0.000038
Al 3.114728 -3.666538 -5.192539 0.000001 -0.000032 0.000024
Al 3.110983 -3.664744 -0.149403 -0.000079 -0.000045 0.000091
Al 1.561750 -0.938577 4.874149 0.000092 -0.000035 0.000022
Al 1.559615 -0.941924 -5.179591 0.000142 0.000045 0.000008
Al 1.555751 -0.940900 -0.141502 -0.000015 0.000048 0.000067
Al 3.118286 1.775368 4.888256 -0.000012 0.000037 0.000052
Al 3.114915 1.768405 -5.192490 0.000008 -0.000027 0.000021
Al 3.121480 1.766187 -0.147775 0.000163 -0.000071 -0.000186
Al 6.254090 -3.667265 4.886662 -0.000101 -0.000025 0.000041
Al 6.256784 -3.669301 -5.186819 -0.000065 -0.000008 0.000072
Ga 6.256776 -3.666815 -0.147969 -0.000032 0.000172 -0.000041
Al 4.678627 -0.940132 4.890670 -0.000005 -0.000030 0.000089
Al 4.682696 -0.948778 -5.187836 0.000001 -0.000018 0.000021
Al 4.682086 -0.937329 -0.151674 0.000146 0.000164 -0.000335
Al -3.166014 1.784555 4.886476 0.000065 0.000037 0.000014
Al -3.164993 1.771460 -5.184264 0.000102 -0.000011 0.000024
Al -3.165059 1.773765 -0.154697 0.000097 -0.000100 -0.000179
Al -0.014836 -3.671944 4.878965 0.000033 -0.000093 -0.000048
Al -0.021538 -3.681639 -5.184559 0.000130 0.000052 -0.000109
Al -0.013987 -3.672755 -0.140089 0.000133 -0.000516 0.000656
Ga -1.594236 -0.937383 4.884331 0.000013 -0.000078 0.000033
Al -1.604221 -0.941766 -5.188164 0.000127 0.000115 -0.000034
Al -1.594993 -0.935232 -0.137209 -0.000374 0.000378 0.000095
N 1.547348 0.875200 4.286363 -0.000032 -0.000061 -0.000046
N 1.545521 0.864224 -5.791024 0.000040 0.000027 0.000022
N 1.548376 0.869041 -0.747427 -0.000049 -0.000124 0.000067
N -0.026247 3.587616 4.298522 -0.000005 -0.000072 0.000008
N -0.024589 3.581518 -5.784323 -0.000008 0.000003 -0.000048
N -0.066626 3.561600 -0.772921 0.000091 -0.000011 0.000035
N 3.122386 -1.850410 4.285027 -0.000070 0.000055 -0.000061
N 3.116917 -1.856073 -5.790911 0.000030 0.000064 -0.000019
N 3.118760 -1.853458 -0.747196 -0.000119 -0.000019 -0.000092
N -4.731140 0.870506 4.289526 -0.000002 -0.000039 -0.000081
N -4.732466 0.863593 -5.786092 -0.000041 -0.000008 -0.000059
N -4.733589 0.867626 -0.752941 -0.000073 -0.000087 -0.000134
N -6.301694 3.585964 4.296535 -0.000006 0.000001 -0.000104
N -6.306286 3.580851 -5.789947 0.000070 0.000026 -0.000018
N -6.260968 3.559940 -0.767251 -0.000160 -0.000083 0.000063
N -3.206513 -1.869569 4.277999 0.000124 0.000006 -0.000077
N -3.169383 -1.859330 -5.779917 0.000050 0.000066 -0.000043
N -3.162316 -1.804111 -0.765662 -0.000043 -0.000107 -0.000094
N -1.591582 0.924146 4.267145 -0.000012 -0.000098 0.000060
N -1.595010 0.871109 -5.781303 -0.000049 -0.000032 -0.000005
N -1.593203 0.867510 -0.747394 0.000010 -0.000114 -0.000013
N -3.158628 3.588023 4.285027 -0.000054 -0.000021 0.000039
N -3.162926 3.579586 -5.791221 -0.000008 0.000041 -0.000002
N -3.162436 3.585757 -0.748899 -0.000016 0.000051 -0.000044
N 0.020562 -1.872239 4.271340 -0.000085 0.000124 0.000062
N -0.018395 -1.855868 -5.714332 -0.000359 -0.000244 0.000133
N -0.024065 -1.852903 -0.684706 0.000544 0.000358 -0.000175
N -0.019671 1.777848 1.765511 0.000119 -0.000006 0.000110
N -0.021509 1.778514 6.809614 0.000010 -0.000082 0.000022
N -0.022247 1.767454 -3.270508 -0.000032 -0.000061 0.000028
N 3.120452 -3.663279 1.771904 -0.000030 -0.000081 0.000033
N 3.119714 -3.658500 6.808250 -0.000042 -0.000019 -0.000050
N 3.114360 -3.664144 -3.273646 -0.000042 -0.000063 -0.000003
N 1.555119 -0.939819 1.775356 -0.000071 -0.000115 -0.000130
N 1.592009 -0.915649 6.786285 -0.000023 -0.000046 0.000035
N 1.593550 -0.921112 -3.272262 -0.000063 -0.000037 0.000006
N 3.118600 1.774723 1.772137 -0.000179 0.000076 0.000128
N 3.119556 1.777264 6.806421 -0.000032 0.000005 -0.000055
N 3.115962 1.768033 -3.275726 0.000004 0.000020 0.000006
N 6.256203 -3.664696 1.828614 0.000722 -0.000461 -0.000025
N 6.258613 -3.658779 6.808229 0.000011 -0.000002 -0.000007
N 6.257921 -3.667024 -3.265053 0.000018 0.000005 -0.000055
N 4.686243 -0.941399 1.765099 -0.000071 -0.000092 0.000285
N 4.688600 -0.938835 6.808204 0.000011 0.000004 -0.000032
N 4.683107 -0.946194 -3.271658 0.000040 -0.000021 -0.000036
N -3.165504 1.775749 1.763589 0.000018 -0.000030 0.000206
N -3.161795 1.778034 6.804620 0.000028 -0.000024 -0.000062
N -3.164210 1.771600 -3.265236 0.000034 -0.000033 -0.000044
N -0.021378 -3.670648 1.777858 -0.000144 0.000071 -0.000480
N -0.019168 -3.706927 6.790502 -0.000008 0.000098 -0.000008
N -0.019694 -3.718177 -3.280206 -0.000025 0.000062 0.000026
N -1.596144 -0.941689 1.782365 0.000074 -0.000095 -0.000003
N -1.632223 -0.916257 6.853229 0.000276 0.000319 -0.000016
N -1.636025 -0.920205 -3.281599 0.000142 -0.000044 -0.000046
