108
Energy=-1.169071e+06 Lattice="9.480588e+00 0.000000e+00 0.000000e+00 -4.753265e+00 8.205890e+00 0.000000e+00 3.320122e-03 -2.949015e-03 1.529910e+01" Stress="-2.487663e-03 -6.297562e-04 3.648221e-04 -6.260738e-04 -2.586358e-03 2.522356e-04 3.418235e-04 2.482202e-04 2.732115e-04" Properties=species:S:1:pos:R:3:forces:R:3 Config_type=AlGaN_super3_16_1_3.xyz
Al 1.557946e+00 8.471104e-01 2.394083e+00 1.100423e-02 1.511887e-03 1.756631e-02
Al 1.565630e+00 8.416571e-01 7.508010e+00 1.751520e-03 5.625667e-03 3.087595e-03
Al 1.554360e+00 8.420150e-01 -2.682634e+00 -3.022472e-04 1.170785e-02 -1.704375e-02
Al -5.315192e-02 3.657753e+00 2.264195e+00 1.663371e-02 -2.528119e-02 4.712436e-02
Al -2.718897e-02 3.612491e+00 7.535687e+00 -2.163660e-03 -4.284707e-03 -6.116713e-04
Al -3.872427e-02 3.617568e+00 -2.751352e+00 2.081525e-03 -1.068845e-05 4.459155e-03
Al 3.120926e+00 -1.874143e+00 2.394141e+00 -1.788845e-03 7.650595e-03 1.325372e-02
Al 3.140072e+00 -1.852710e+00 7.514147e+00 1.394822e-03 -2.043385e-03 3.978819e-03
Al 3.148957e+00 -1.872367e+00 -2.741136e+00 3.064621e-03 -2.113391e-03 5.395839e-03
Al -4.763956e+00 8.946705e-01 2.395298e+00 -1.741702e-02 -9.732896e-03 1.741452e-02
Al -4.780389e+00 8.654656e-01 7.495323e+00 5.905011e-03 5.760174e-03 5.291893e-03
Ga -4.795301e+00 8.636791e-01 -2.761782e+00 3.297637e-03 2.105136e-03 6.680501e-03
Al -6.386108e+00 3.603133e+00 2.408403e+00 -3.955835e-04 -1.027972e-02 1.520318e-02
Ga -6.347972e+00 3.597473e+00 7.505620e+00 3.653776e-03 1.078022e-03 2.905712e-03
Ga -6.366282e+00 3.599227e+00 -2.752055e+00 1.562097e-03 1.118729e-04 3.602645e-03
Ga -3.173569e+00 -1.881443e+00 2.417776e+00 2.201672e-03 3.805244e-03 8.940353e-03
Ga -3.194573e+00 -1.869664e+00 7.470575e+00 1.237042e-03 -2.717732e-04 3.125126e-03
Al -3.188888e+00 -1.869260e+00 -2.730078e+00 1.106966e-04 -9.855378e-04 9.629372e-03
Al -1.610488e+00 8.721250e-01 2.432702e+00 3.525366e-03 -3.015733e-03 1.242862e-02
Ga -1.612539e+00 8.863106e-01 7.507724e+00 -2.619811e-03 2.385922e-03 2.082828e-03
Ga -1.611452e+00 8.926546e-01 -2.742498e+00 6.117980e-04 2.350262e-03 2.448545e-03
Ga -3.196750e+00 3.622001e+00 2.445418e+00 -7.758804e-04 -2.157480e-03 8.728840e-03
Al -3.184540e+00 3.627708e+00 7.511573e+00 -2.573615e-03 -5.684289e-03 2.429267e-03
Al -3.174363e+00 3.627097e+00 -2.756447e+00 -1.313044e-03 -3.180816e-03 5.930546e-03
Al -1.060679e-02 -1.837941e+00 2.409224e+00 -4.979944e-03 1.092268e-02 1.345412e-02
Al 2.492379e-02 -1.847046e+00 7.496113e+00 -6.944477e-03 -7.632882e-03 -6.284521e-03
Ga 7.058343e-03 -1.849046e+00 -2.727008e+00 -1.069700e-03 -4.380114e-03 7.175866e-03
Ga -1.409104e-02 1.768166e+00 4.984556e+00 -3.179938e-03 3.418781e-03 -5.889830e-03
Al 7.098793e-03 1.801197e+00 -5.247069e+00 -6.790872e-03 -3.138258e-03 -1.225664e-02
Ga -9.233328e-03 1.767007e+00 -1.157583e-01 -2.707024e-04 2.227962e-03 -3.287006e-03
Ga 3.166435e+00 -3.677769e+00 5.001064e+00 7.860826e-03 -6.255005e-05 1.130977e-03
Al 3.144032e+00 -3.687122e+00 -5.269717e+00 -6.201387e-04 3.072342e-03 -3.354900e-03
Al 3.144338e+00 -3.688519e+00 -1.718661e-01 1.905365e-03 6.280428e-03 -1.190000e-02
Al 1.573641e+00 -9.557164e-01 4.965401e+00 -2.489372e-03 2.694215e-04 2.892755e-03
Al 1.581432e+00 -9.310632e-01 -5.269525e+00 -3.155942e-03 -7.499267e-03 -3.781733e-03
Al 1.568662e+00 -9.540393e-01 -1.406693e-01 3.827698e-03 -3.623127e-03 -3.042532e-03
Al 3.145089e+00 1.765868e+00 4.954339e+00 -2.641289e-03 2.564099e-03 1.401391e-03
Al 3.137323e+00 1.770466e+00 -5.279813e+00 -1.939793e-03 3.402199e-03 -9.160317e-03
Al 3.114245e+00 1.771834e+00 -1.367543e-01 8.797895e-04 4.093644e-03 -1.729586e-03
Al 6.321261e+00 -3.715207e+00 4.999147e+00 2.739707e-03 6.734666e-03 -1.631361e-02
Al 6.281134e+00 -3.664556e+00 -5.262125e+00 4.803933e-03 -1.256459e-02 2.574406e-03
Al 6.302727e+00 -3.694007e+00 -1.532360e-01 1.604962e-03 4.590013e-03 -1.320132e-02
Al 4.712133e+00 -9.207549e-01 4.965526e+00 5.420994e-03 -5.709033e-03 -2.117064e-03
Al 4.720240e+00 -9.397423e-01 -5.252128e+00 -6.642286e-03 -1.772923e-03 -1.007932e-02
Ga 4.716364e+00 -9.569242e-01 -9.004779e-02 -9.493720e-04 -3.996324e-03 -2.093257e-02
Al -3.204583e+00 1.779677e+00 4.962171e+00 -1.433098e-03 -6.708657e-03 8.346750e-03
Al -3.201253e+00 1.805247e+00 -5.252181e+00 -4.078962e-03 2.151113e-03 -1.836608e-02
Ga -3.195109e+00 1.794948e+00 -1.041304e-01 -2.071416e-03 -5.684847e-04 -1.604000e-02
Al -7.073740e-03 -3.676992e+00 4.964211e+00 -4.532841e-03 -2.741143e-03 2.732651e-03
Al 5.155322e-04 -3.682347e+00 -5.253590e+00 -8.406474e-04 -5.000164e-03 -1.343348e-02
Ga -1.394023e-02 -3.673436e+00 -8.885357e-02 -4.953524e-03 9.349257e-04 -8.937520e-03
Al -1.590752e+00 -1.002940e+00 5.020088e+00 2.769729e-03 1.754560e-02 -2.896027e-02
Ga -1.610454e+00 -9.709289e-01 -5.277377e+00 2.522594e-03 1.058576e-03 -2.864138e-03
Al -1.584644e+00 -9.337096e-01 -1.381034e-01 -5.832833e-03 -9.236377e-03 -3.992092e-03
N 1.590717e+00 8.293363e-01 4.347187e+00 4.549268e-03 1.072930e-03 -7.519255e-03
N 1.564216e+00 8.690796e-01 -5.865699e+00 -4.105574e-03 -3.156076e-04 -5.452210e-03
N 1.594850e+00 8.280747e-01 -7.975792e-01 -8.026280e-04 4.566332e-03 9.185502e-03
N 4.607037e-02 3.635088e+00 4.380789e+00 -1.513274e-02 -1.192899e-03 -3.171674e-02
N -2.428515e-02 3.618379e+00 -5.853791e+00 -2.612430e-04 -2.242352e-03 9.990492e-04
N -2.980992e-02 3.644486e+00 -7.997204e-01 -3.590841e-05 -3.056548e-03 4.145531e-03
N 3.145998e+00 -1.813605e+00 4.348766e+00 -1.084386e-03 -5.180086e-03 -9.970232e-03
N 3.149306e+00 -1.853214e+00 -5.861285e+00 -1.617148e-03 -8.686090e-05 7.131385e-04
N 3.104696e+00 -1.889335e+00 -7.874457e-01 2.481961e-04 1.132857e-03 -3.404721e-03
N -4.768189e+00 8.720642e-01 4.353615e+00 3.613877e-04 3.615250e-03 -9.465566e-03
N -4.766340e+00 8.672541e-01 -5.865929e+00 1.212732e-03 1.773225e-03 -2.258482e-03
N -4.820072e+00 8.915538e-01 -7.546804e-01 3.800705e-03 1.233765e-03 -2.806071e-03
N -6.343580e+00 3.599895e+00 4.370132e+00 1.692923e-03 -1.336138e-03 -6.263624e-03
N -6.342503e+00 3.617542e+00 -5.797701e+00 -5.419793e-03 -2.328308e-04 -4.124138e-03
N -6.388447e+00 3.580213e+00 -7.417203e-01 3.390852e-03 -9.738709e-04 -1.043448e-03
N -3.154255e+00 -1.865196e+00 4.438248e+00 -9.769307e-03 -5.660206e-03 -9.467517e-03
N -3.248322e+00 -1.897365e+00 -5.843281e+00 6.785227e-03 6.805037e-03 -8.117890e-03
N -3.140649e+00 -1.879159e+00 -7.712210e-01 1.181723e-03 -1.552831e-04 -6.880663e-04
N -1.676277e+00 8.598832e-01 4.367673e+00 1.020651e-02 -1.086023e-02 -5.114440e-03
N -1.643063e+00 9.169100e-01 -5.819154e+00 1.493413e-02 9.601127e-05 1.336948e-04
N -1.613963e+00 8.356806e-01 -7.496025e-01 1.365204e-03 5.719767e-03 -2.047488e-03
N -3.197366e+00 3.576863e+00 4.444709e+00 -4.204427e-03 8.068553e-03 -1.760752e-02
N -3.188916e+00 3.621721e+00 -5.861481e+00 9.105063e-04 -2.888341e-03 -2.625838e-03
N -3.151356e+00 3.642252e+00 -8.058155e-01 -4.367842e-03 -4.017379e-03 2.291976e-03
N -3.008014e-03 -1.861604e+00 4.370438e+00 2.310437e-04 1.565184e-03 -8.073056e-03
N 1.173812e-02 -1.918627e+00 -5.929145e+00 5.340269e-03 1.672312e-02 1.642365e-02
N -7.587444e-03 -1.802036e+00 -7.247437e-01 -1.794852e-03 -4.682905e-03 -1.767183e-03
N 7.908372e-03 1.756014e+00 1.915497e+00 -1.726819e-02 1.429451e-02 -2.103947e-02
N 2.224768e-02 1.797520e+00 6.966888e+00 1.082314e-03 1.395078e-03 -3.722056e-03
N 1.628978e-02 1.814405e+00 -3.369374e+00 3.965372e-03 -4.247757e-03 1.704649e-02
N 3.186268e+00 -3.658277e+00 1.737103e+00 -1.677633e-02 1.288323e-03 1.383916e-03
N 3.152244e+00 -3.687986e+00 6.979725e+00 1.356415e-03 4.539315e-03 1.701299e-04
N 3.140701e+00 -3.692404e+00 -3.346512e+00 2.366331e-03 3.744368e-03 2.032591e-03
N 1.561466e+00 -9.542834e-01 1.782904e+00 5.481616e-04 -4.189553e-03 -9.188226e-04
N 1.574520e+00 -9.554466e-01 6.905675e+00 1.868399e-03 7.788583e-04 -6.026707e-03
N 1.620959e+00 -9.223789e-01 -3.347642e+00 -3.823203e-03 -2.965389e-03 -1.712331e-03
N 3.124338e+00 1.782345e+00 1.785323e+00 2.238904e-03 5.984460e-04 1.446712e-03
N 3.136908e+00 1.727631e+00 6.886888e+00 -3.251767e-03 1.083853e-03 -3.478765e-03
N 3.067698e+00 1.749002e+00 -3.423112e+00 1.123182e-03 -2.289432e-04 2.218038e-02
N 6.304691e+00 -3.762287e+00 1.739556e+00 -1.522101e-03 1.426125e-02 1.720905e-03
N 6.250015e+00 -3.730226e+00 6.842724e+00 6.532717e-03 3.402758e-03 1.869359e-02
N 6.258369e+00 -3.654497e+00 -3.354463e+00 -3.818543e-04 -8.007618e-04 4.079798e-03
N 4.648914e+00 -9.376187e-01 1.842024e+00 1.165980e-02 1.844450e-03 6.845968e-03
N 4.680912e+00 -9.147069e-01 6.884962e+00 -2.732084e-03 -4.615879e-03 -4.640003e-03
N 4.735194e+00 -1.004523e+00 -3.377125e+00 -4.170448e-03 1.075958e-03 1.423693e-02
N -3.208722e+00 1.729327e+00 1.845116e+00 1.174944e-02 1.237236e-02 9.450530e-05
N -3.230715e+00 1.812420e+00 6.884961e+00 -2.407307e-03 1.350738e-04 4.381269e-04
N -3.197719e+00 1.841551e+00 -3.407502e+00 -2.246137e-03 -8.912372e-04 2.328645e-02
N -1.036040e-01 -3.629693e+00 1.921045e+00 1.420607e-02 -1.141628e-02 -1.805595e-02
N 3.078953e-02 -3.656563e+00 6.890640e+00 -3.665170e-03 1.095582e-03 -5.424811e-03
N 3.290652e-02 -3.703932e+00 -3.386832e+00 -3.799931e-03 2.867729e-03 1.456298e-02
N -1.558728e+00 -9.065869e-01 1.768324e+00 -3.019543e-03 -5.544385e-03 5.207027e-03
N -1.550189e+00 -9.594436e-01 6.841455e+00 1.554444e-03 -6.404682e-03 2.606527e-02
N -1.630893e+00 -9.702018e-01 -3.320226e+00 -4.065685e-04 -2.647121e-03 3.331385e-03
