108
Energy=-1.352173e+06 Lattice="9.489510e+00 0.000000e+00 0.000000e+00 -4.749113e+00 8.221211e+00 0.000000e+00 2.396986e-03 5.783402e-04 1.533294e+01" Stress="-5.942047e-03 1.473758e-03 -2.218567e-04 1.467342e-03 -5.533540e-03 4.300488e-04 -2.346983e-04 4.276655e-04 -6.734167e-04" Properties=species:S:1:pos:R:3:forces:R:3 Config_type=AlGaN_super3_20_1_6.xyz
Al 1.548504e+00 8.971855e-01 2.290938e+00 1.882156e-02 -1.378493e-02 2.940543e-02
Al 1.552071e+00 8.864183e-01 7.548712e+00 4.167400e-03 -7.622448e-03 -4.669789e-03
Al 1.549752e+00 8.553109e-01 -2.746753e+00 3.011948e-03 2.228986e-03 5.536543e-03
Al 6.354161e-03 3.615600e+00 2.417471e+00 3.146409e-03 1.668649e-03 1.145298e-02
Al -6.553867e-03 3.587898e+00 7.517694e+00 -2.923606e-03 4.740015e-03 -1.176024e-03
Al -1.917249e-02 3.603018e+00 -2.731791e+00 -1.978818e-03 -2.722024e-04 8.478523e-03
Al 3.151321e+00 -1.836513e+00 2.412678e+00 4.643678e-03 -3.520666e-03 -2.023271e-03
Al 3.151969e+00 -1.851859e+00 7.536747e+00 5.260413e-05 -2.587543e-03 -7.906580e-04
Ga 3.139620e+00 -1.861945e+00 -2.726764e+00 -1.470487e-04 -2.765285e-03 6.498187e-03
Al -4.792682e+00 8.557400e-01 2.414382e+00 -4.405488e-03 2.894681e-03 3.953987e-03
Al -4.802076e+00 8.755635e-01 7.502501e+00 1.634028e-03 1.828036e-03 7.218549e-05
Al -4.800647e+00 8.637308e-01 -2.711887e+00 2.835677e-03 4.435053e-03 7.989182e-03
Al -6.359331e+00 3.636468e+00 2.397049e+00 8.429307e-04 -4.899941e-03 -3.816742e-04
Al -6.361010e+00 3.611979e+00 7.508916e+00 1.871221e-03 -1.577469e-03 -6.565868e-04
Ga -6.360410e+00 3.591825e+00 -2.689644e+00 1.478039e-03 1.091903e-03 3.567443e-03
Al -3.190149e+00 -1.868860e+00 2.410111e+00 -1.346795e-03 3.077189e-04 2.460205e-03
Ga -3.184052e+00 -1.869321e+00 7.484466e+00 -1.244172e-03 -3.089069e-04 1.040234e-03
Ga -3.173634e+00 -1.861841e+00 -2.702507e+00 9.286532e-04 -2.948590e-04 5.781077e-03
Ga -1.603893e+00 8.623813e-01 2.456881e+00 -4.846368e-05 1.220507e-05 5.222705e-03
Ga -1.600357e+00 8.636978e-01 7.502667e+00 -1.965005e-04 1.827237e-03 9.749551e-04
Ga -1.598401e+00 8.682413e-01 -2.719945e+00 3.867455e-07 1.457809e-03 3.211671e-03
Ga -3.213776e+00 3.637571e+00 2.468672e+00 2.379536e-03 -1.067241e-03 -3.397169e-04
Ga -3.198165e+00 3.632114e+00 7.508826e+00 4.813678e-04 -7.102456e-04 -1.347786e-03
Ga -3.192217e+00 3.627724e+00 -2.707433e+00 2.228587e-03 -2.072714e-03 3.534950e-03
Al -3.417210e-02 -1.872249e+00 2.409809e+00 9.104609e-03 7.095616e-03 7.345490e-04
Al -1.923141e-02 -1.853247e+00 7.509542e+00 4.515322e-03 -1.941664e-03 -9.122851e-04
Al -1.572088e-02 -1.845700e+00 -2.723215e+00 1.897218e-04 -2.317072e-03 9.733530e-03
Al -6.711436e-03 1.796169e+00 4.995034e+00 -8.282871e-04 -5.188857e-03 -1.252120e-02
Al -6.145218e-03 1.788271e+00 -5.251767e+00 -3.119162e-03 -1.345435e-03 -5.901854e-03
Ga 4.883742e-03 1.770288e+00 -1.257961e-01 -3.283365e-03 4.431131e-03 -1.065979e-02
Ga 3.168965e+00 -3.694907e+00 4.981040e+00 1.336374e-04 2.203803e-03 -1.988365e-03
Al 3.152174e+00 -3.706304e+00 -5.286463e+00 2.404036e-03 4.817354e-03 2.556099e-03
Ga 3.160751e+00 -3.690903e+00 -8.624110e-02 1.671953e-04 1.472204e-03 -3.557397e-03
Ga 1.566789e+00 -9.625341e-01 4.958585e+00 -6.211553e-04 4.474008e-03 1.704443e-03
Al 1.550568e+00 -9.484675e-01 -5.292143e+00 1.268026e-03 -2.301081e-04 2.413828e-03
Al 1.577158e+00 -9.552997e-01 -1.627229e-01 -3.156115e-03 -3.009364e-03 4.561179e-04
Ga 3.122357e+00 1.789253e+00 4.966249e+00 -2.488898e-03 -2.737848e-03 -1.177751e-03
Al 3.124864e+00 1.773532e+00 -5.277236e+00 -9.415025e-05 9.886163e-04 2.859331e-04
Al 3.142806e+00 1.794060e+00 -1.671671e-01 -3.950177e-04 -3.658281e-03 -2.434200e-04
Al 6.310749e+00 -3.697782e+00 4.959167e+00 -1.643136e-03 1.310658e-03 7.893698e-04
Ga 6.301385e+00 -3.711694e+00 -5.283598e+00 1.162175e-03 1.693664e-03 2.613788e-03
Al 6.313816e+00 -3.687503e+00 -1.230749e-01 -1.565604e-03 1.210809e-03 -3.363820e-03
Al 4.740788e+00 -9.473926e-01 4.968019e+00 -4.685237e-03 -1.742520e-03 -3.404561e-03
Ga 4.716669e+00 -9.402403e-01 -5.282608e+00 -9.527158e-04 -2.130916e-03 2.549130e-03
Al 4.726114e+00 -9.434631e-01 -1.271331e-01 -2.173148e-04 -2.207393e-03 -2.026920e-03
Al -3.214718e+00 1.782621e+00 4.997565e+00 5.481598e-03 -5.392669e-03 -7.804884e-03
Ga -3.196708e+00 1.780743e+00 -5.274206e+00 -3.416003e-05 -5.944933e-04 1.529596e-03
Ga -3.218625e+00 1.775413e+00 -1.148449e-01 -6.484158e-04 9.307842e-04 -3.943602e-03
Al -5.390728e-02 -3.678226e+00 4.975459e+00 1.004018e-03 -1.151444e-03 3.443819e-03
Ga -2.557494e-02 -3.671550e+00 -5.282016e+00 -2.165425e-03 -7.789234e-04 2.662386e-03
Al -3.009592e-02 -3.666120e+00 -1.293394e-01 -6.760532e-04 1.840738e-03 -3.893592e-03
Al -1.605065e+00 -9.690340e-01 4.963463e+00 -3.097894e-04 2.247075e-03 -4.589974e-03
Al -1.576889e+00 -9.480972e-01 -5.282036e+00 -2.315461e-03 -1.529678e-03 5.404619e-03
Al -1.587644e+00 -9.594600e-01 -1.275976e-01 -1.444355e-03 -4.659842e-03 -3.424330e-03
N 1.509354e+00 8.818673e-01 4.300693e+00 2.673954e-03 3.043326e-03 -9.798044e-03
N 1.552146e+00 8.738187e-01 -5.866049e+00 -7.977151e-04 3.784679e-04 -1.840921e-03
N 1.601379e+00 8.406427e-01 -8.050475e-01 8.216384e-04 2.092600e-03 5.026343e-04
N 2.395325e-02 3.587954e+00 4.348537e+00 1.111036e-03 -1.677580e-03 -2.338070e-03
N -5.739869e-02 3.585362e+00 -5.900008e+00 -1.213191e-03 -4.021565e-03 -2.847259e-03
N 1.474178e-02 3.629209e+00 -7.958040e-01 1.903438e-03 -2.135353e-04 -8.586687e-05
N 3.187223e+00 -1.846861e+00 4.300957e+00 2.088198e-03 2.027448e-03 6.958743e-03
N 3.105329e+00 -1.891370e+00 -5.885575e+00 -3.906327e-04 -1.692481e-04 1.010351e-03
N 3.150329e+00 -1.832754e+00 -7.313380e-01 2.211528e-03 -4.046296e-04 -9.208148e-04
N -4.749585e+00 8.478313e-01 4.349018e+00 2.152737e-03 1.659876e-03 -5.035592e-03
N -4.822698e+00 8.970157e-01 -5.929311e+00 2.466317e-03 8.268919e-04 -7.294218e-04
N -4.827154e+00 8.421310e-01 -7.786829e-01 3.897759e-03 2.247809e-03 -3.530790e-03
N -6.357524e+00 3.656307e+00 4.338695e+00 1.903541e-03 9.097397e-04 -7.384860e-03
N -6.349479e+00 3.559101e+00 -5.918343e+00 7.885795e-05 1.837967e-03 1.363483e-03
N -6.349809e+00 3.615198e+00 -6.868002e-01 3.719219e-04 2.369979e-03 -6.390542e-03
N -3.188279e+00 -1.871327e+00 4.366247e+00 1.307195e-03 3.362854e-05 -4.811944e-03
N -3.141795e+00 -1.842246e+00 -5.872871e+00 1.272418e-03 -3.820368e-05 -1.816675e-03
N -3.176592e+00 -1.861124e+00 -7.032430e-01 -2.592526e-04 -1.238946e-04 9.213624e-04
N -1.595782e+00 8.640293e-01 4.455258e+00 -5.222189e-03 5.799287e-03 -6.684351e-03
N -1.564625e+00 8.471182e-01 -5.844823e+00 1.445027e-03 4.519485e-03 -2.077241e-03
N -1.610258e+00 8.312190e-01 -7.371491e-01 1.347569e-03 7.584154e-04 5.759932e-04
N -3.237957e+00 3.601170e+00 4.451136e+00 -1.135478e-03 1.718129e-04 -5.269278e-03
N -3.152374e+00 3.643126e+00 -5.858871e+00 -1.383308e-03 -3.046220e-03 -1.911999e-03
N -3.223284e+00 3.647911e+00 -7.252817e-01 -3.125535e-04 -1.777518e-03 1.683008e-03
N -5.969253e-02 -1.889700e+00 4.344756e+00 3.820550e-04 -1.464662e-03 -8.327215e-03
N -2.369835e-02 -1.812555e+00 -5.907053e+00 5.689151e-04 -1.015312e-03 -4.485992e-03
N -1.434492e-02 -1.850716e+00 -7.669460e-01 -8.466261e-05 -9.282057e-04 -3.055302e-03
N 2.077500e-02 1.813286e+00 1.840070e+00 -1.126567e-02 3.267502e-03 -6.966760e-03
N 1.729237e-02 1.792527e+00 6.878644e+00 2.126634e-03 3.885031e-03 8.986925e-03
N 2.040719e-02 1.807817e+00 -3.357971e+00 -5.936712e-04 3.420623e-04 5.621194e-03
N 3.207528e+00 -3.680076e+00 1.910140e+00 -7.953203e-03 1.756047e-03 -1.062728e-02
N 3.192730e+00 -3.657355e+00 6.952890e+00 3.691783e-03 -4.136895e-03 -9.560504e-04
N 3.186249e+00 -3.723109e+00 -3.365801e+00 7.011174e-04 1.315515e-03 -1.937943e-03
N 1.598836e+00 -9.727828e-01 1.764086e+00 -1.613479e-02 7.688214e-03 2.939644e-03
N 1.594115e+00 -9.688973e-01 6.958010e+00 -1.096126e-02 8.574533e-03 3.023067e-04
N 1.522997e+00 -9.410742e-01 -3.359272e+00 -9.412974e-04 8.011471e-04 -3.119743e-03
N 3.154017e+00 1.810410e+00 1.736846e+00 -3.687971e-03 -2.590447e-03 1.389819e-02
N 3.124316e+00 1.789639e+00 6.955891e+00 -1.890679e-03 1.160089e-03 -3.108896e-03
N 3.132502e+00 1.732580e+00 -3.352429e+00 -9.483901e-04 1.410249e-03 -1.321657e-03
N 6.304264e+00 -3.686307e+00 1.798332e+00 -4.421356e-04 4.909291e-04 1.366758e-03
N 6.304615e+00 -3.744458e+00 6.888263e+00 -9.541890e-04 -1.734330e-04 -2.928988e-03
N 6.270194e+00 -3.719571e+00 -3.310843e+00 8.789344e-04 1.310956e-03 -1.742406e-03
N 4.728087e+00 -9.425386e-01 1.798379e+00 2.172346e-03 -1.939668e-03 -2.807868e-04
N 4.674599e+00 -9.170519e-01 6.883477e+00 3.302947e-03 -3.808268e-03 -3.756656e-04
N 4.729773e+00 -9.009501e-01 -3.312709e+00 -1.056136e-04 -4.298781e-03 -2.672672e-03
N -3.240179e+00 1.767854e+00 1.861098e+00 4.110371e-03 1.524050e-03 -2.960383e-03
N -3.236083e+00 1.761965e+00 6.882620e+00 -1.034502e-03 5.728075e-04 5.503034e-03
N -3.240220e+00 1.761331e+00 -3.304864e+00 -5.511398e-04 2.748446e-04 1.615335e-03
N -5.865804e-02 -3.645954e+00 1.778707e+00 -4.856564e-04 -4.974196e-03 3.772906e-03
N -7.186262e-02 -3.662464e+00 6.900502e+00 -1.854527e-03 1.640043e-03 -1.770941e-03
N -3.076025e-02 -3.642868e+00 -3.309085e+00 -2.229130e-03 5.633541e-04 -5.488056e-05
N -1.598304e+00 -9.954035e-01 1.783979e+00 -1.112619e-03 9.087347e-04 4.859388e-03
N -1.559368e+00 -9.743793e-01 6.845559e+00 1.511570e-04 -2.948892e-03 5.926000e-03
N -1.553834e+00 -9.738451e-01 -3.363048e+00 -2.213627e-03 -1.519481e-03 -2.898239e-03
