108
Energy=-1.947255e+06 Lattice="9.578309e+00 0.000000e+00 0.000000e+00 -4.788768e+00 8.294242e+00 0.000000e+00 -2.801133e-03 -1.738854e-03 1.550957e+01" Stress="-2.818053e-06 4.030568e-06 -3.777039e-06 -1.065394e-06 -6.336099e-06 2.214902e-05 -1.564740e-05 1.793778e-05 -2.363628e-05" Properties=species:S:1:pos:R:3:forces:R:3 Config_type=AlGaN_super3_33_1_18.xyz
Al 1.571632e+00 8.763194e-01 2.454017e+00 5.941762e-06 1.640423e-06 1.097886e-05
Al 1.582130e+00 8.817916e-01 7.605244e+00 6.783213e-06 -7.111057e-06 4.122330e-06
Al 1.577975e+00 8.783122e-01 -2.744874e+00 -1.278300e-06 9.779277e-07 3.653548e-06
Al -3.291662e-02 3.654905e+00 2.429349e+00 4.471152e-06 1.799871e-05 2.032916e-05
Al -3.129267e-02 3.644411e+00 7.619418e+00 -1.762059e-06 1.089830e-05 7.218823e-06
Ga -2.800831e-02 3.649978e+00 -2.734884e+00 2.224201e-06 -5.639516e-06 5.420791e-06
Al 3.172202e+00 -1.889885e+00 2.452610e+00 -1.728309e-05 -2.078413e-05 5.867959e-05
Ga 3.165393e+00 -1.881488e+00 7.586808e+00 -1.931469e-07 2.584744e-06 1.837098e-05
Ga 3.156516e+00 -1.892894e+00 -2.730479e+00 1.376466e-05 -6.527858e-06 2.976927e-05
Ga -4.803417e+00 8.763520e-01 2.454601e+00 -9.322596e-06 -1.320769e-05 -7.108298e-06
Al -4.817776e+00 8.882529e-01 7.584559e+00 2.754094e-06 -3.602876e-06 1.104735e-05
Ga -4.825285e+00 8.874916e-01 -2.724373e+00 2.098826e-05 -6.650726e-06 1.947211e-05
Ga -6.410789e+00 3.653040e+00 2.435914e+00 -1.534303e-05 -4.825867e-06 8.248001e-06
Ga -6.414432e+00 3.626340e+00 7.624385e+00 7.058928e-06 -7.911240e-06 2.969707e-05
Ga -6.411776e+00 3.640255e+00 -2.746739e+00 2.295482e-06 -1.133382e-05 1.881079e-05
Al -3.236757e+00 -1.889554e+00 2.456840e+00 -3.024632e-05 -1.191275e-05 6.413381e-06
Ga -3.227257e+00 -1.881964e+00 7.617930e+00 -4.946205e-07 -2.999003e-06 2.401606e-05
Ga -3.201419e+00 -1.887628e+00 -2.752941e+00 5.921874e-06 2.423018e-06 1.042171e-05
Ga -1.622998e+00 9.015800e-01 2.447827e+00 -4.079017e-08 4.621851e-06 2.881625e-05
Ga -1.626047e+00 8.970465e-01 7.602574e+00 -1.148794e-06 -4.406291e-06 2.298563e-05
Ga -1.606959e+00 8.711388e-01 -2.732227e+00 1.447879e-05 -6.374186e-06 1.797514e-05
Al -3.206347e+00 3.648257e+00 2.417953e+00 -4.335065e-05 6.676678e-06 -1.114782e-04
Al -3.206146e+00 3.635116e+00 7.605018e+00 -4.632758e-06 9.182736e-07 7.361436e-06
Ga -3.207137e+00 3.659995e+00 -2.709625e+00 9.183341e-06 -1.831624e-05 2.963960e-05
Ga -5.644182e-03 -1.887904e+00 2.441868e+00 -1.065090e-05 -1.868199e-05 -2.211960e-06
Ga -9.953415e-03 -1.874546e+00 7.603143e+00 9.404233e-06 -9.897590e-06 8.832625e-06
Al -2.303409e-02 -1.875731e+00 -2.726029e+00 -1.694574e-06 -4.676364e-06 1.345421e-05
Ga -1.721939e-02 1.804555e+00 5.031614e+00 9.537193e-06 -9.740165e-06 3.230078e-05
Ga -7.186947e-03 1.814057e+00 -5.332386e+00 1.386147e-05 4.750342e-06 4.224376e-07
Ga -2.237644e-02 1.808362e+00 -1.376555e-01 -2.138629e-05 4.688677e-06 9.901109e-06
Ga 3.160875e+00 -3.729175e+00 5.003064e+00 1.680814e-05 -2.643155e-05 1.906221e-05
Al 3.177292e+00 -3.732059e+00 -5.346992e+00 -1.657794e-06 1.186795e-08 8.832055e-06
Al 3.155176e+00 -3.731843e+00 -1.039100e-01 -3.307596e-07 -7.078019e-07 -4.875616e-06
Al 1.588075e+00 -9.531718e-01 5.012113e+00 -2.248828e-05 9.628945e-06 2.974509e-06
Ga 1.571266e+00 -9.529525e-01 -5.304342e+00 -3.710854e-06 -5.416629e-06 3.055127e-05
Ga 1.574821e+00 -9.687981e-01 -1.463966e-01 -1.449684e-05 1.078982e-05 1.523257e-05
Ga 3.171953e+00 1.779932e+00 5.030247e+00 1.813236e-05 -1.336383e-05 1.397355e-05
Al 3.165419e+00 1.797692e+00 -5.336769e+00 -1.409056e-06 -5.239741e-06 8.676287e-06
Ga 3.172867e+00 1.805125e+00 -1.313967e-01 -6.963239e-07 1.060023e-05 3.317826e-06
Ga 6.343926e+00 -3.718206e+00 5.020417e+00 1.788723e-05 -4.505519e-06 1.865052e-05
Al 6.355454e+00 -3.730483e+00 -5.331415e+00 1.076998e-05 -3.668564e-06 1.459006e-05
Ga 6.358386e+00 -3.722761e+00 -1.264897e-01 1.293613e-05 1.273061e-05 1.274616e-05
Al 4.761149e+00 -9.564971e-01 5.014682e+00 2.501677e-05 7.532196e-06 3.344108e-06
Ga 4.768489e+00 -9.576984e-01 -5.334252e+00 -3.297928e-06 -1.477751e-05 2.899260e-05
Ga 4.765203e+00 -9.681560e-01 -1.235738e-01 -8.944153e-06 -8.468734e-06 -5.244474e-06
Al -3.226954e+00 1.810361e+00 5.034865e+00 4.354901e-06 -1.285142e-05 1.510711e-05
Ga -3.222746e+00 1.809415e+00 -5.337690e+00 1.304424e-06 -7.232974e-06 5.210283e-06
Al -3.214813e+00 1.824103e+00 -1.365541e-01 1.460733e-06 -4.920428e-07 2.243328e-05
Ga -2.367570e-03 -3.735008e+00 5.031387e+00 6.130705e-06 4.825131e-07 4.585293e-06
Ga -1.949290e-02 -3.724998e+00 -5.319417e+00 1.873429e-05 -4.390207e-06 2.654633e-05
Al -5.027493e-03 -3.728123e+00 -1.503615e-01 4.799233e-06 1.182482e-05 2.046509e-05
Ga -1.632611e+00 -9.585694e-01 5.007902e+00 8.906140e-06 -6.664688e-07 2.909229e-05
Al -1.615501e+00 -9.703114e-01 -5.309526e+00 1.269971e-05 -7.219424e-06 6.863119e-06
Ga -1.618198e+00 -9.675694e-01 -1.326347e-01 -1.036305e-05 -2.742189e-06 1.602142e-05
N 1.569582e+00 8.363774e-01 4.365225e+00 -3.014357e-06 7.378061e-06 -4.601961e-06
N 1.616686e+00 8.985040e-01 -5.988864e+00 3.515782e-07 7.423395e-07 -8.748879e-06
N 1.577663e+00 8.839942e-01 -8.305303e-01 3.082757e-05 -3.341951e-06 -1.535753e-05
N -2.805169e-02 3.643462e+00 4.336459e+00 -9.919841e-06 -7.565012e-07 -2.173893e-06
N -2.262652e-02 3.695890e+00 -5.969020e+00 -4.748428e-06 -2.267695e-06 -2.342342e-06
N -7.174382e-02 3.677465e+00 -7.487750e-01 9.157258e-06 2.446118e-06 -1.669113e-05
N 3.169221e+00 -1.838592e+00 4.385761e+00 1.030313e-06 9.970758e-06 -2.133050e-05
N 3.164679e+00 -1.924559e+00 -5.941649e+00 3.358369e-07 6.164420e-06 -2.678912e-05
N 3.171314e+00 -1.941653e+00 -7.481232e-01 8.682043e-06 -4.668521e-06 -6.806229e-06
N -4.765469e+00 8.602889e-01 4.436069e+00 -2.775476e-05 1.259550e-05 4.796113e-06
N -4.851994e+00 9.069845e-01 -6.000978e+00 9.954974e-06 9.300223e-06 -1.234388e-05
N -4.771313e+00 9.048517e-01 -7.432160e-01 -2.008709e-06 1.031415e-05 -3.334533e-05
N -6.407354e+00 3.646385e+00 4.409193e+00 -1.120330e-05 1.331167e-05 -1.046768e-05
N -6.447098e+00 3.620929e+00 -5.900929e+00 -1.078839e-05 6.610691e-06 -2.505513e-05
N -6.369712e+00 3.670214e+00 -7.551242e-01 -1.350398e-05 -3.355884e-06 -3.040341e-05
N -3.264508e+00 -1.860837e+00 4.368772e+00 -6.393839e-06 -1.367418e-05 -3.846521e-06
N -3.171955e+00 -1.904808e+00 -5.908344e+00 -1.348103e-05 2.054879e-05 -2.178782e-05
N -3.215069e+00 -1.883867e+00 -7.837065e-01 -7.959703e-07 -1.089389e-05 -2.562087e-05
N -1.664482e+00 9.169382e-01 4.427466e+00 2.340345e-06 -3.625666e-06 -2.535858e-05
N -1.618035e+00 8.341586e-01 -5.926537e+00 1.864978e-06 -3.385446e-06 -6.740427e-06
N -1.659522e+00 9.034606e-01 -7.467317e-01 2.407516e-05 -3.909569e-06 -2.490181e-05
N -3.218118e+00 3.593373e+00 4.340796e+00 -8.297902e-06 1.395522e-05 6.877410e-05
N -3.172769e+00 3.670142e+00 -5.990375e+00 -6.554512e-07 -2.028718e-06 -9.390341e-06
N -3.205934e+00 3.651745e+00 -7.156331e-01 7.601076e-06 4.624072e-06 -2.034491e-05
N 2.208715e-02 -1.863975e+00 4.418917e+00 7.502182e-06 -9.897894e-06 -3.812710e-06
N -5.693729e-02 -1.855869e+00 -5.933657e+00 -7.513626e-06 4.179796e-06 -1.976862e-05
N -2.436595e-02 -1.927466e+00 -7.997607e-01 1.341307e-05 -1.698316e-05 -2.319409e-05
N 2.443061e-02 1.825290e+00 1.848801e+00 -1.703714e-05 -1.914954e-06 1.147083e-06
N 2.288564e-02 1.830909e+00 7.022577e+00 -8.483827e-06 5.635868e-06 -1.411123e-05
N 2.204214e-02 1.783664e+00 -3.348851e+00 -1.050933e-05 5.947652e-06 -8.397772e-06
N 3.166532e+00 -3.721249e+00 1.828894e+00 1.737408e-06 -4.384583e-06 -2.447110e-05
N 3.168871e+00 -3.778442e+00 6.992970e+00 3.024115e-06 8.368974e-06 -1.512052e-05
N 3.166695e+00 -3.730772e+00 -3.431716e+00 -5.801436e-06 1.648160e-05 -1.245830e-05
N 1.619399e+00 -9.353161e-01 1.840326e+00 -1.632951e-05 2.303246e-05 -5.038206e-05
N 1.575236e+00 -9.090358e-01 6.932639e+00 -1.549837e-06 4.585908e-06 -6.753716e-06
N 1.531561e+00 -9.377645e-01 -3.317520e+00 -1.193845e-05 5.563148e-06 -1.462331e-05
N 3.128928e+00 1.775988e+00 1.843124e+00 1.582250e-05 -1.431974e-05 1.557474e-05
N 3.165079e+00 1.754072e+00 7.007276e+00 -8.133123e-06 7.551512e-06 -1.184231e-05
N 3.130303e+00 1.773464e+00 -3.408199e+00 -1.677482e-06 7.051275e-06 -9.651192e-06
N 6.319012e+00 -3.699174e+00 1.853163e+00 1.272232e-05 1.574419e-07 1.033492e-05
N 6.316122e+00 -3.750587e+00 6.999940e+00 -1.096665e-06 1.626782e-06 -2.049948e-05
N 6.357008e+00 -3.732605e+00 -3.418647e+00 5.438389e-06 1.606367e-06 -1.099760e-05
N 4.762017e+00 -1.009558e+00 1.858178e+00 3.068582e-05 5.166783e-05 -4.835047e-06
N 4.766934e+00 -9.169981e-01 6.940909e+00 -1.406790e-05 -7.494610e-06 -1.241706e-05
N 4.761684e+00 -9.584513e-01 -3.361756e+00 -1.824091e-05 -2.824477e-06 -2.695133e-05
N -3.217704e+00 1.850645e+00 1.774859e+00 1.256493e-05 3.211589e-07 -8.747923e-06
N -3.260850e+00 1.833244e+00 6.963611e+00 5.310257e-06 -3.699770e-06 -1.338005e-05
N -3.217409e+00 1.809160e+00 -3.361869e+00 -1.491653e-05 1.078209e-05 -2.386956e-05
N 1.921127e-02 -3.746478e+00 1.771581e+00 2.262685e-05 -2.296120e-05 2.528640e-05
N 1.871484e-02 -3.754354e+00 7.010862e+00 -8.060467e-06 7.117008e-06 -1.981415e-05
N -1.602478e-02 -3.679507e+00 -3.337652e+00 -4.671297e-06 3.690732e-06 -3.056304e-05
N -1.661566e+00 -9.865435e-01 1.849958e+00 -1.999321e-06 2.284430e-05 -1.113995e-05
N -1.624711e+00 -9.624986e-01 6.972160e+00 -1.060223e-05 2.762814e-06 -1.732718e-05
N -1.571516e+00 -9.849588e-01 -3.390917e+00 -1.426036e-05 -1.554312e-06 -1.104420e-05
