108
Energy=-2633887.965565 Lattice="9.668977 0.000000 0.000000 -4.834392 8.372114 0.000000 -0.000642 -0.000228 15.696365" Stress="0.000000 -0.000000 -0.000000 -0.000000 -0.000000 0.000000 -0.000000 0.000000 -0.000000" Properties=species:S:1:pos:R:3:forces:R:3
Al 1.593449 0.890815 2.452623 -0.000002 0.000004 0.000000
Ga 1.583587 0.893948 7.707620 -0.000002 0.000003 0.000000
Ga 1.581160 0.889983 -2.755103 -0.000006 -0.000001 -0.000001
Al -0.018183 3.672679 2.467211 -0.000000 -0.000001 0.000004
Ga -0.017967 3.675506 7.721970 0.000002 0.000003 -0.000005
Ga -0.014779 3.675329 -2.781306 0.000004 0.000039 0.000015
Ga 3.197341 -1.889412 2.453828 -0.000000 0.000004 0.000002
Ga 3.200140 -1.899982 7.694045 -0.000003 0.000003 -0.000003
Ga 3.194888 -1.897520 -2.740040 -0.000005 0.000004 0.000003
Al -4.867740 0.890422 2.467865 -0.000002 0.000006 0.000002
Ga -4.860263 0.889666 7.701210 0.000001 0.000005 0.000001
Ga -4.858416 0.891249 -2.759539 -0.000002 -0.000001 0.000005
Ga -6.479676 3.664328 2.466463 0.000000 0.000006 0.000004
Ga -6.474781 3.680589 7.705271 0.000000 0.000005 0.000003
Ga -6.477702 3.683031 -2.763163 -0.000008 0.000002 -0.000002
Ga -3.254929 -1.900587 2.467740 0.000001 0.000007 -0.000002
Ga -3.248633 -1.905808 7.709828 -0.000003 -0.000002 0.000000
Ga -3.247249 -1.910087 -2.768417 -0.000005 0.000008 -0.000013
Ga -1.630229 0.898705 2.466686 -0.000001 0.000014 0.000005
Ga -1.628014 0.894979 7.705066 -0.000002 0.000002 0.000003
Ga -1.625846 0.897349 -2.763906 0.000007 -0.000003 -0.000003
Ga -3.240535 3.673205 2.468428 -0.000001 0.000002 -0.000001
Ga -3.245390 3.680651 7.697967 -0.000002 0.000004 0.000007
Ga -3.244603 3.679899 -2.754688 0.000002 0.000009 0.000001
Ga -0.013406 -1.887330 2.457772 0.000003 0.000008 -0.000001
Ga -0.022247 -1.899853 7.702485 -0.000002 -0.000001 0.000005
Ga -0.016371 -1.896775 -2.748169 -0.000001 0.000005 -0.000003
Ga -0.014207 1.824680 5.058816 0.000003 -0.000003 0.000002
Al -0.016888 1.827717 -5.376789 0.000001 0.000000 0.000008
Ga -0.012154 1.817957 -0.125183 0.000003 0.000005 0.000000
Ga 3.209821 -3.765643 5.072982 -0.000005 0.000000 -0.000003
Ga 3.213499 -3.765870 -5.374985 -0.000001 0.000001 -0.000001
Ga 3.203765 -3.758054 -0.137791 0.000002 0.000014 -0.000001
Ga 1.587812 -0.960872 5.071124 0.000001 0.000002 0.000005
Ga 1.585414 -0.961302 -5.376448 -0.000004 0.000002 0.000001
Al 1.587680 -0.962624 -0.134078 -0.000003 0.000011 -0.000001
Ga 3.197062 1.810845 5.061434 0.000004 -0.000002 0.000000
Ga 3.183084 1.828739 -5.375850 0.000003 -0.000001 -0.000003
Ga 3.194490 1.807050 -0.127329 -0.000000 0.000004 -0.000003
Ga 6.413570 -3.765815 5.075245 0.000003 0.000001 0.000000
Al 6.418984 -3.769582 -5.379555 0.000003 -0.000000 -0.000000
Ga 6.416802 -3.764799 -0.133513 -0.000001 0.000002 -0.000003
Ga 4.811167 -0.963295 5.070403 0.000008 0.000000 0.000000
Ga 4.813385 -0.979529 -5.374026 -0.000004 -0.000005 0.000003
Ga 4.804142 -0.965672 -0.133474 -0.000001 0.000007 0.000005
Ga -3.252541 1.815188 5.074579 0.000004 0.000000 -0.000002
Ga -3.235694 1.820812 -5.378788 0.000006 -0.000001 0.000004
Ga -3.249572 1.817640 -0.131800 -0.000002 0.000009 -0.000010
Ga -0.024604 -3.760200 5.080236 0.000004 -0.000002 -0.000000
Ga -0.033372 -3.760656 -5.373760 0.000004 0.000001 -0.000000
Ga -0.019560 -3.752405 -0.144342 -0.000006 0.000008 -0.000002
Ga -1.634865 -0.970135 5.085679 0.000001 -0.000002 0.000003
Ga -1.634545 -0.968663 -5.376506 -0.000004 0.000005 0.000003
Ga -1.625377 -0.970059 -0.149065 -0.000000 0.000005 -0.000007
N 1.588318 0.886754 4.375934 0.000001 0.000004 -0.000005
N 1.544300 0.915810 -6.002522 0.000007 -0.000000 0.000001
N 1.585628 0.844409 -0.764828 0.000001 -0.000000 0.000002
N -0.022673 3.680658 4.385063 0.000002 0.000002 0.000002
N 0.020357 3.655022 -5.977496 -0.000003 -0.000003 0.000002
N -0.020336 3.675824 -0.796953 -0.000001 -0.000003 -0.000007
N 3.197004 -1.899787 4.436815 0.000004 -0.000004 0.000000
N 3.198237 -1.900513 -6.021435 0.000001 -0.000005 0.000005
N 3.156154 -1.875123 -0.748159 -0.000001 -0.000018 -0.000001
N -4.858230 0.890535 4.388261 -0.000006 0.000000 0.000002
N -4.860428 0.891018 -6.012901 0.000006 0.000002 -0.000003
N -4.858994 0.891959 -0.783013 0.000002 -0.000010 -0.000005
N -6.471157 3.679879 4.444548 -0.000004 0.000001 -0.000005
N -6.512389 3.705457 -6.001861 0.000002 0.000001 -0.000006
N -6.473062 3.677741 -0.775366 0.000004 0.000002 0.000005
N -3.245555 -1.901192 4.445444 -0.000005 0.000000 -0.000007
N -3.246147 -1.950884 -5.996061 -0.000004 -0.000003 -0.000001
N -3.248402 -1.904298 -0.782388 0.000001 -0.000008 0.000001
N -1.634011 0.890150 4.444651 -0.000004 -0.000002 -0.000009
N -1.587792 0.916604 -6.000142 -0.000005 -0.000004 -0.000001
N -1.628694 0.897912 -0.777790 0.000001 -0.000010 0.000007
N -3.245054 3.680888 4.447413 -0.000002 0.000003 -0.000004
N -3.245748 3.684117 -6.016531 -0.000002 -0.000005 -0.000015
N -3.243231 3.679607 -0.774043 0.000006 -0.000010 -0.000003
N -0.021860 -1.897842 4.438928 -0.000003 -0.000002 0.000004
N -0.022559 -1.899772 -6.016472 0.000005 -0.000003 -0.000004
N 0.024063 -1.873472 -0.760599 0.000005 -0.000011 0.000005
N 0.021642 1.845584 1.867636 0.000002 -0.000011 0.000001
N -0.019537 1.824708 7.045113 0.000002 0.000000 0.000005
N -0.019661 1.818013 -3.454085 0.000001 -0.000027 -0.000012
N 3.244939 -3.786351 1.849062 -0.000002 -0.000002 -0.000003
N 3.208478 -3.766092 7.060744 0.000002 -0.000001 0.000002
N 3.200566 -3.757076 -3.392546 0.000001 0.000003 -0.000000
N 1.587869 -0.918666 1.791068 0.000001 -0.000010 -0.000005
N 1.587792 -0.964520 7.055009 -0.000002 -0.000003 0.000001
N 1.590577 -0.969174 -3.398931 0.000002 -0.000004 -0.000005
N 3.199897 1.769370 1.865474 0.000003 -0.000014 -0.000003
N 3.196758 1.817308 7.052129 0.000000 -0.000004 0.000003
N 3.195648 1.819646 -3.394942 -0.000004 0.000012 0.000001
N 6.379097 -3.785596 1.849420 0.000001 0.000001 0.000000
N 6.416763 -3.764208 7.057472 0.000000 0.000001 0.000000
N 6.424329 -3.761908 -3.457655 -0.000004 -0.000001 0.000007
N 4.811917 -0.919970 1.848964 0.000005 -0.000014 0.000003
N 4.813444 -0.968723 7.055628 0.000001 -0.000002 0.000001
N 4.807579 -0.972993 -3.392293 0.000002 -0.000007 -0.000003
N -3.290295 1.793895 1.851881 0.000002 -0.000006 0.000006
N -3.247250 1.816651 7.059281 -0.000002 -0.000003 -0.000002
N -3.244660 1.820214 -3.399097 -0.000002 0.000004 0.000001
N -0.024971 -3.761389 1.833442 -0.000002 -0.000005 0.000005
N -0.025963 -3.762032 7.062694 0.000000 0.000001 -0.000005
N -0.024141 -3.759635 -3.390209 -0.000006 0.000003 0.000011
N -1.636842 -0.968857 1.827403 -0.000006 -0.000016 0.000009
N -1.637473 -0.969427 7.070002 0.000004 0.000001 -0.000001
N -1.632488 -0.970187 -3.391899 0.000001 0.000002 -0.000004
