108
Energy=-1.581051e+06 Lattice="9.534480e+00 0.000000e+00 0.000000e+00 -4.771065e+00 8.251793e+00 0.000000e+00 -1.169084e-04 1.393404e-02 1.539852e+01" Stress="-2.265296e-04 -2.931369e-04 6.178266e-05 -2.973593e-04 -8.956762e-04 5.967085e-04 7.136123e-05 5.785433e-04 -7.837087e-04" Properties=species:S:1:pos:R:3:forces:R:3 Config_type=AlGaN_super3_25_1_35.xyz
Al 1.556910e+00 8.883102e-01 2.400912e+00 3.076929e-04 -3.404080e-04 5.210012e-04
Al 1.562507e+00 8.997002e-01 7.560228e+00 1.298644e-04 1.768176e-04 3.695628e-05
Al 1.556004e+00 8.749008e-01 -2.708481e+00 -3.310347e-05 9.108667e-05 -3.950780e-04
Al -3.281102e-02 3.616303e+00 2.419972e+00 1.458328e-03 -6.413894e-04 2.420292e-04
Al -2.734632e-02 3.617900e+00 7.545860e+00 -6.168483e-04 1.701372e-04 1.259309e-03
Ga -4.438052e-02 3.612130e+00 -2.716907e+00 -6.551266e-05 1.614479e-05 8.766219e-05
Al 3.166532e+00 -1.873178e+00 2.422990e+00 -2.100520e-04 5.127763e-04 1.273887e-04
Ga 3.156688e+00 -1.872960e+00 7.561829e+00 1.670261e-05 -6.563622e-05 7.307594e-05
Al 3.150788e+00 -1.889095e+00 -2.728015e+00 -1.672302e-05 4.060505e-05 3.223234e-05
Al -4.782328e+00 8.829872e-01 2.410026e+00 -1.715682e-03 -1.779704e-03 -3.834356e-04
Al -4.789926e+00 9.038731e-01 7.562725e+00 4.899360e-04 1.481820e-04 2.022127e-04
Ga -4.794318e+00 8.777926e-01 -2.716769e+00 3.778294e-04 -3.774110e-05 -6.063099e-05
Ga -6.375981e+00 3.626278e+00 2.420751e+00 4.889872e-05 1.269997e-04 4.045935e-04
Ga -6.382578e+00 3.622619e+00 7.539791e+00 1.425826e-05 2.643324e-04 3.970570e-05
Ga -6.372824e+00 3.616857e+00 -2.700152e+00 -4.669730e-05 -2.019479e-04 1.817603e-04
Al -3.215067e+00 -1.869204e+00 2.431839e+00 -6.267904e-05 7.203405e-05 -1.160050e-04
Ga -3.203217e+00 -1.867734e+00 7.553816e+00 1.940271e-05 -9.796955e-05 3.701969e-04
Al -3.189830e+00 -1.863426e+00 -2.718736e+00 -6.262507e-05 1.097381e-04 -3.233119e-06
Al -1.613171e+00 9.007104e-01 2.423313e+00 1.259105e-03 -1.759574e-04 1.872145e-03
Ga -1.617246e+00 9.121862e-01 7.558559e+00 2.035641e-04 -2.340095e-04 -1.163423e-04
Al -1.603543e+00 8.733615e-01 -2.739684e+00 8.981102e-05 8.563017e-05 1.107334e-04
Al -3.198302e+00 3.620834e+00 2.429569e+00 -1.288556e-03 1.241883e-03 -2.291374e-04
Al -3.199888e+00 3.619385e+00 7.550010e+00 3.145345e-04 -1.741953e-04 -1.008214e-03
Al -3.193486e+00 3.630743e+00 -2.721031e+00 3.888622e-04 -2.504084e-04 -9.578074e-04
Ga -1.221510e-02 -1.877678e+00 2.411645e+00 2.095911e-04 1.980384e-05 2.065644e-04
Ga -1.675679e-02 -1.863272e+00 7.560793e+00 1.988088e-04 -2.360579e-04 2.214077e-04
Al -2.373530e-02 -1.868692e+00 -2.709774e+00 -4.276264e-05 5.673150e-05 1.074840e-04
Al -2.241041e-02 1.809200e+00 4.976725e+00 6.018182e-04 -1.886566e-04 -1.362936e-05
Al -2.721821e-02 1.782762e+00 -5.283704e+00 7.035451e-04 1.904175e-03 1.954480e-04
Al -1.907013e-02 1.784429e+00 -1.451004e-01 -1.338257e-04 -1.060526e-04 4.265684e-04
Ga 3.157747e+00 -3.730378e+00 4.969664e+00 -3.289912e-04 4.342217e-04 5.207128e-04
Al 3.152806e+00 -3.738678e+00 -5.287644e+00 2.564898e-04 7.926700e-05 1.344349e-04
Ga 3.145081e+00 -3.718483e+00 -1.256488e-01 -2.972525e-05 2.815095e-04 2.203692e-04
Ga 1.563867e+00 -9.395545e-01 4.979931e+00 -3.656715e-04 2.028970e-04 1.155221e-04
Ga 1.562819e+00 -9.422612e-01 -5.250338e+00 -2.051580e-04 3.468637e-04 1.526203e-04
Ga 1.572386e+00 -9.477624e-01 -1.635017e-01 -5.920820e-04 2.894336e-04 -7.608275e-05
Ga 3.152626e+00 1.798961e+00 4.979036e+00 -3.047897e-04 5.981252e-05 2.984205e-04
Al 3.146653e+00 1.780835e+00 -5.293405e+00 1.408393e-04 8.925817e-05 1.857159e-04
Al 3.142234e+00 1.792961e+00 -1.295901e-01 -7.787361e-05 8.704254e-05 5.252290e-04
Al 6.327167e+00 -3.712010e+00 4.972346e+00 -1.203034e-05 1.476038e-04 -7.781369e-05
Ga 6.324951e+00 -3.721458e+00 -5.271475e+00 -2.638616e-04 -3.332714e-04 1.133652e-04
Ga 6.340008e+00 -3.715853e+00 -1.374456e-01 -3.232945e-05 1.080676e-04 1.057119e-05
Ga 4.753687e+00 -9.415979e-01 4.975936e+00 -1.280013e-04 -1.223142e-04 3.968816e-04
Ga 4.752838e+00 -9.481826e-01 -5.268768e+00 -2.031659e-04 2.269927e-04 -1.221980e-04
Ga 4.744515e+00 -9.600095e-01 -1.343169e-01 -3.329950e-04 1.487762e-04 -2.203579e-04
Al -3.206448e+00 1.812047e+00 4.965893e+00 9.448532e-04 -2.010377e-04 1.648305e-03
Al -3.191497e+00 1.799096e+00 -5.277546e+00 -1.172640e-03 -4.091431e-04 -2.307446e-04
Ga -3.196479e+00 1.805706e+00 -1.424745e-01 6.908981e-05 -1.705814e-04 -5.362968e-04
Al -1.505224e-02 -3.714244e+00 4.994260e+00 -9.026651e-05 -1.446944e-04 -1.303381e-05
Ga -5.260555e-03 -3.722068e+00 -5.269330e+00 -1.246790e-04 -1.113702e-04 3.528825e-04
Al -1.235756e-02 -3.717647e+00 -1.642681e-01 -9.182549e-05 1.804545e-04 3.409781e-04
Ga -1.614323e+00 -9.425075e-01 4.960488e+00 -4.017594e-05 1.752567e-04 -1.199967e-04
Al -1.610487e+00 -9.420019e-01 -5.248107e+00 -9.046510e-05 -2.740030e-04 2.375610e-04
Ga -1.605749e+00 -9.485369e-01 -1.476893e-01 -2.506049e-04 1.764093e-04 7.228057e-06
N 1.519935e+00 9.115383e-01 4.315203e+00 2.608072e-04 -2.226270e-05 -3.687176e-04
N 1.558206e+00 9.202881e-01 -5.920133e+00 3.042226e-04 -1.006322e-04 -9.442555e-05
N 1.564012e+00 9.331488e-01 -7.841538e-01 3.116982e-04 6.759714e-05 -1.742162e-04
N 1.694812e-02 3.600404e+00 4.339348e+00 8.823837e-05 4.537453e-04 -4.528278e-04
N -6.487503e-02 3.594329e+00 -5.919132e+00 1.063527e-05 -1.056427e-03 -5.401885e-04
N -3.165027e-02 3.576743e+00 -7.418336e-01 -8.904473e-05 -1.745060e-04 -2.992753e-04
N 3.156018e+00 -1.872189e+00 4.328931e+00 2.670516e-04 -1.692854e-04 -5.378004e-04
N 3.153615e+00 -1.925946e+00 -5.864091e+00 -1.590748e-05 -6.725149e-05 6.229242e-05
N 3.162211e+00 -1.886706e+00 -8.176291e-01 -5.898102e-05 -5.296675e-05 2.001482e-04
N -4.751691e+00 9.110279e-01 4.321376e+00 3.146828e-04 -3.190353e-05 -7.541321e-04
N -4.786023e+00 9.268445e-01 -5.908059e+00 7.914474e-04 2.015753e-04 1.411582e-04
N -4.833441e+00 9.028120e-01 -7.407929e-01 1.602767e-04 3.292021e-04 -3.983535e-05
N -6.377220e+00 3.680323e+00 4.406668e+00 -3.460084e-05 5.292486e-05 -1.453130e-04
N -6.379607e+00 3.580530e+00 -5.883263e+00 8.096927e-05 -1.176598e-04 -3.696039e-04
N -6.340224e+00 3.595897e+00 -7.181814e-01 1.586056e-04 -9.735705e-05 -2.566675e-04
N -3.203299e+00 -1.917301e+00 4.338127e+00 1.432670e-04 -1.641330e-04 -2.331206e-04
N -3.152609e+00 -1.854330e+00 -5.874392e+00 1.730527e-04 1.149288e-04 -4.963134e-05
N -3.196205e+00 -1.872164e+00 -8.133963e-01 5.825482e-05 -4.982557e-05 1.867987e-04
N -1.606350e+00 9.452822e-01 4.355137e+00 -1.943495e-03 -2.538635e-04 -2.136467e-03
N -1.613649e+00 8.757062e-01 -5.845022e+00 -5.221714e-04 -2.172263e-04 -9.896363e-05
N -1.571460e+00 9.043877e-01 -8.144276e-01 2.530098e-04 2.011714e-04 -1.129988e-05
N -3.252435e+00 3.611943e+00 4.343639e+00 4.200593e-04 -4.970326e-04 -2.653407e-04
N -3.163773e+00 3.595499e+00 -5.930219e+00 9.254952e-05 -3.792680e-04 7.624504e-04
N -3.235416e+00 3.647362e+00 -8.124700e-01 8.774576e-05 -1.204508e-04 5.756205e-04
N -1.922731e-02 -1.921163e+00 4.381730e+00 -1.157324e-05 -3.506906e-04 -1.852318e-04
N -6.401882e-02 -1.851104e+00 -5.863564e+00 5.473806e-05 -1.926553e-04 -7.474947e-05
N -2.499142e-02 -1.917526e+00 -7.921881e-01 1.592330e-04 -3.438796e-04 2.707703e-05
N -2.919186e-02 1.791290e+00 1.783200e+00 -5.445802e-05 2.357490e-06 1.875642e-04
N 1.822777e-02 1.820335e+00 6.905624e+00 -3.762147e-05 4.805829e-04 1.980299e-04
N -1.731086e-02 1.741498e+00 -3.365474e+00 -2.762305e-04 -3.975788e-04 5.044738e-05
N 3.155426e+00 -3.710691e+00 1.865257e+00 -7.359627e-04 2.661101e-04 -3.211444e-04
N 3.157082e+00 -3.754601e+00 6.955241e+00 2.557910e-04 -2.120784e-04 -1.233624e-04
N 3.116361e+00 -3.695366e+00 -3.366188e+00 -3.517733e-04 -9.975643e-05 1.311421e-04
N 1.613756e+00 -9.308516e-01 1.820131e+00 -1.053178e-04 1.859071e-04 -2.295136e-04
N 1.571745e+00 -8.961926e-01 6.954909e+00 -4.021770e-04 1.381801e-04 -2.326053e-04
N 1.566474e+00 -9.536065e-01 -3.263154e+00 -1.847553e-04 1.173287e-04 1.219718e-04
N 3.152385e+00 1.747989e+00 1.790232e+00 -3.154424e-05 -3.896067e-06 -4.981172e-05
N 3.152886e+00 1.745813e+00 6.959404e+00 1.824852e-05 -2.171431e-04 -1.332080e-04
N 3.107099e+00 1.762500e+00 -3.377549e+00 1.492552e-04 6.228239e-05 -2.058859e-04
N 6.291186e+00 -3.681831e+00 1.839199e+00 1.105215e-04 -2.066561e-05 -2.152413e-04
N 6.286592e+00 -3.723963e+00 6.896681e+00 1.170250e-04 -3.423855e-05 -4.380317e-04
N 6.332512e+00 -3.669631e+00 -3.301571e+00 3.574602e-05 6.119699e-05 1.979173e-05
N 4.745988e+00 -9.567363e-01 1.850523e+00 3.260435e-04 6.174451e-04 2.188727e-04
N 4.745053e+00 -8.949462e-01 6.954361e+00 -2.794183e-04 1.050128e-04 -2.646547e-04
N 4.746362e+00 -1.003128e+00 -3.296153e+00 -2.063518e-04 -1.677908e-04 9.555141e-05
N -3.197141e+00 1.800433e+00 1.842469e+00 6.680682e-04 -2.276023e-04 1.546833e-04
N -3.246580e+00 1.823909e+00 6.902458e+00 -1.587063e-04 1.491607e-04 -4.825210e-04
N -3.163378e+00 1.816982e+00 -3.352520e+00 2.187800e-04 4.439188e-04 -7.898493e-05
N 2.719349e-02 -3.733670e+00 1.749622e+00 5.402968e-04 -3.045545e-04 -4.425493e-06
N 2.560117e-02 -3.722379e+00 6.910532e+00 5.120994e-05 -1.818020e-04 -2.831034e-04
N 2.180671e-02 -3.687947e+00 -3.294474e+00 3.516338e-05 1.730894e-05 -8.233416e-05
N -1.654520e+00 -9.255131e-01 1.841126e+00 -1.113686e-04 3.946794e-04 1.242993e-05
N -1.610974e+00 -9.378575e-01 6.923424e+00 -2.320193e-04 3.606724e-05 -1.655792e-04
N -1.608524e+00 -9.572636e-01 -3.323223e+00 -8.464173e-05 5.330530e-05 -4.705013e-05
