108
Energy=-1.535276e+06 Lattice="9.529862e+00 0.000000e+00 0.000000e+00 -4.766784e+00 8.251298e+00 0.000000e+00 4.313569e-03 -5.710395e-03 1.538624e+01" Stress="1.861912e-04 -5.644222e-05 2.502661e-04 -5.512664e-05 -2.084244e-05 -3.374804e-04 2.516518e-04 -3.286821e-04 -8.519751e-05" Properties=species:S:1:pos:R:3:forces:R:3 Config_type=AlGaN_super3_24_2_18.xyz
Al 1.551605e+00 8.748580e-01 2.459867e+00 1.768562e-04 -6.896581e-05 2.918455e-04
Al 1.572798e+00 8.885462e-01 7.530895e+00 -8.780059e-05 4.176326e-05 -1.071020e-04
Al 1.567197e+00 8.942785e-01 -2.745821e+00 2.316195e-04 -1.226951e-04 2.891537e-04
Al -3.132990e-02 3.603972e+00 2.454493e+00 5.892676e-04 1.627331e-03 -1.472648e-03
Al -1.574893e-02 3.618731e+00 7.550788e+00 -6.973009e-05 -2.876669e-04 -4.655070e-05
Ga -1.682573e-02 3.620343e+00 -2.755566e+00 6.773406e-05 -1.027916e-04 3.886260e-04
Ga 3.145889e+00 -1.877923e+00 2.413759e+00 1.753581e-04 -5.400178e-05 4.752071e-04
Al 3.163187e+00 -1.876662e+00 7.552584e+00 -3.360601e-04 2.523550e-04 2.472051e-04
Ga 3.159643e+00 -1.873566e+00 -2.717200e+00 -9.408087e-05 -9.873734e-05 4.614677e-04
Ga -4.784620e+00 8.837695e-01 2.454202e+00 3.509153e-04 -1.632133e-04 8.728169e-05
Al -4.792495e+00 8.830113e-01 7.541552e+00 -9.647210e-05 -4.051927e-04 -1.496516e-04
Ga -4.811952e+00 8.808098e-01 -2.743006e+00 2.329541e-04 5.268962e-06 9.795553e-05
Ga -6.385572e+00 3.616517e+00 2.473896e+00 -2.147792e-04 3.077447e-04 -1.798339e-04
Al -6.376779e+00 3.615482e+00 7.538174e+00 1.750388e-04 -1.786003e-04 2.751003e-04
Al -6.383507e+00 3.619864e+00 -2.768022e+00 4.876803e-05 1.216062e-05 2.060677e-04
Ga -3.205721e+00 -1.882818e+00 2.445404e+00 -5.492329e-05 -2.319608e-04 5.918465e-05
Al -3.205403e+00 -1.884069e+00 7.566685e+00 1.990778e-04 2.702027e-04 -3.272316e-04
Ga -3.198043e+00 -1.875404e+00 -2.755605e+00 1.525120e-04 -1.151143e-04 2.492829e-04
Al -1.603494e+00 8.985888e-01 2.464374e+00 2.479322e-04 -2.007194e-04 1.082584e-04
Al -1.604153e+00 8.918457e-01 7.539920e+00 -2.036101e-04 -7.334317e-04 -1.043635e-03
Ga -1.595019e+00 8.800030e-01 -2.745913e+00 4.963276e-04 -3.132316e-04 1.950246e-04
Al -3.185383e+00 3.616839e+00 2.451141e+00 1.268424e-04 -1.062885e-04 -6.672603e-05
Al -3.196549e+00 3.622459e+00 7.546010e+00 -1.082136e-03 -3.656318e-04 -4.967934e-05
Ga -3.204179e+00 3.641177e+00 -2.738753e+00 2.398031e-04 -1.837829e-04 1.622230e-04
Ga -4.350973e-03 -1.866004e+00 2.451780e+00 3.333977e-04 3.834604e-05 -1.762653e-04
Ga -1.451054e-02 -1.884128e+00 7.545988e+00 3.734578e-05 8.326899e-05 2.518787e-04
Ga -2.779732e-02 -1.872390e+00 -2.741061e+00 3.581748e-04 -2.521136e-04 2.456329e-05
Al -1.495000e-02 1.790809e+00 4.997403e+00 9.424773e-04 6.853118e-04 8.658521e-06
Al -1.412511e-02 1.802179e+00 -5.323929e+00 2.911165e-04 -2.701922e-04 2.849406e-04
Ga -1.371655e-02 1.793101e+00 -1.198476e-01 -1.441084e-04 -1.722244e-04 -1.244839e-04
Ga 3.152597e+00 -3.722695e+00 5.007169e+00 7.740399e-05 6.458796e-05 6.367333e-05
Al 3.162526e+00 -3.702557e+00 -5.332160e+00 -4.532798e-04 -6.307202e-05 -3.164783e-04
Al 3.156238e+00 -3.700259e+00 -1.230443e-01 1.024705e-04 9.599779e-05 8.263751e-04
Al 1.570992e+00 -9.439587e-01 5.015198e+00 -2.920162e-04 2.588597e-04 3.859664e-04
Ga 1.575520e+00 -9.440120e-01 -5.301479e+00 -4.613655e-04 4.326487e-05 1.796434e-04
Al 1.578212e+00 -9.463293e-01 -1.577029e-01 -2.335693e-04 3.028105e-04 5.325848e-04
Al 3.140298e+00 1.797069e+00 5.019960e+00 1.134859e-03 -1.550170e-03 -1.546067e-04
Al 3.140908e+00 1.808043e+00 -5.316847e+00 -5.729408e-04 5.264522e-05 3.914515e-04
Ga 3.138791e+00 1.784946e+00 -1.507856e-01 -1.318916e-04 -1.855513e-04 3.497445e-04
Al 6.334694e+00 -3.730579e+00 5.032680e+00 -4.352339e-04 3.761474e-04 -9.348682e-04
Al 6.335217e+00 -3.709027e+00 -5.322978e+00 2.079803e-04 -3.723831e-05 2.330264e-04
Ga 6.320655e+00 -3.705819e+00 -1.568375e-01 9.660952e-05 -4.149957e-04 9.321227e-04
Ga 4.738487e+00 -9.544917e-01 5.033831e+00 1.639962e-04 3.803948e-04 1.423318e-04
Al 4.742035e+00 -9.610869e-01 -5.329947e+00 -3.150775e-04 3.060823e-04 -7.306006e-04
Al 4.731660e+00 -9.624837e-01 -1.455932e-01 -2.075687e-04 1.354190e-04 6.514688e-04
Al -3.198433e+00 1.808675e+00 5.018264e+00 1.397862e-04 -1.237514e-03 -5.798194e-04
Ga -3.203167e+00 1.798612e+00 -5.327846e+00 -1.734415e-04 1.778172e-04 3.961188e-04
Ga -3.197385e+00 1.799738e+00 -1.302867e-01 -2.340956e-04 -2.040181e-04 4.407510e-04
Al -1.772624e-02 -3.724050e+00 5.007755e+00 -8.449897e-04 -1.082163e-03 1.262220e-03
Al -3.598510e-02 -3.714677e+00 -5.307878e+00 -9.882960e-05 4.496763e-04 4.839789e-05
Ga -1.671134e-02 -3.704897e+00 -1.444195e-01 -1.006002e-04 -2.169020e-04 6.861664e-04
Ga -1.604877e+00 -9.514966e-01 5.012010e+00 -5.161834e-04 4.874357e-04 1.358764e-04
Al -1.620747e+00 -9.551296e-01 -5.321561e+00 2.766720e-04 -1.034202e-04 -8.987147e-04
Ga -1.611420e+00 -9.507436e-01 -1.263872e-01 -1.993889e-04 6.352483e-05 3.796910e-04
N 1.565011e+00 8.718718e-01 4.392793e+00 3.775652e-04 4.078466e-05 -3.792391e-04
N 1.564575e+00 9.291132e-01 -5.947193e+00 2.072932e-04 2.722170e-04 5.636418e-04
N 1.557657e+00 8.397820e-01 -8.238246e-01 2.325627e-04 -2.680835e-04 -3.341133e-04
N 1.933378e-02 3.602127e+00 4.375982e+00 4.396492e-04 -1.259535e-04 5.241625e-04
N -2.077420e-02 3.627652e+00 -5.915995e+00 -5.840974e-05 -8.418513e-05 -2.133423e-04
N -7.097814e-02 3.646905e+00 -7.681563e-01 -1.944877e-04 2.281219e-05 -3.031923e-04
N 3.115152e+00 -1.853157e+00 4.393254e+00 -1.718821e-04 -9.314664e-05 -2.734821e-04
N 3.188519e+00 -1.892706e+00 -5.931004e+00 3.597815e-04 4.396943e-06 1.615455e-04
N 3.155854e+00 -1.879560e+00 -7.122893e-01 6.450887e-05 -7.437255e-05 -2.776133e-04
N -4.787120e+00 9.218733e-01 4.437131e+00 -6.046987e-04 8.411449e-04 6.484930e-04
N -4.840214e+00 8.635300e-01 -5.930729e+00 5.696770e-04 -5.442857e-04 -1.798063e-04
N -4.791629e+00 8.333258e-01 -7.577745e-01 3.731338e-04 -1.218818e-04 -9.439144e-05
N -6.379540e+00 3.621073e+00 4.456575e+00 -6.890422e-05 1.343351e-03 2.441241e-04
N -6.376988e+00 3.628887e+00 -5.925866e+00 -1.775082e-04 -2.804653e-05 -5.335858e-05
N -6.377558e+00 3.627131e+00 -8.425858e-01 7.506247e-05 5.732200e-05 -8.697282e-05
N -3.202888e+00 -1.929038e+00 4.416177e+00 2.276540e-04 -5.950812e-04 1.050861e-04
N -3.200474e+00 -1.876049e+00 -5.906271e+00 -2.521175e-05 1.562258e-05 -2.064263e-04
N -3.237846e+00 -1.846104e+00 -7.688564e-01 -9.294138e-05 1.405382e-04 -3.142316e-05
N -1.608916e+00 9.300113e-01 4.384884e+00 -1.631722e-03 5.104540e-05 1.097158e-04
N -1.568278e+00 8.630306e-01 -5.939514e+00 3.381316e-04 1.997358e-05 1.271373e-03
N -1.606515e+00 8.827386e-01 -7.759645e-01 2.971962e-04 -2.169116e-04 1.173965e-05
N -3.240092e+00 3.603568e+00 4.372113e+00 8.626251e-04 -4.590974e-04 -5.438738e-04
N -3.207719e+00 3.682145e+00 -5.931801e+00 5.935998e-04 5.400190e-05 -1.258112e-04
N -3.156499e+00 3.657426e+00 -7.595919e-01 1.975035e-04 -1.185150e-04 -1.604872e-04
N 2.629089e-02 -1.901186e+00 4.437484e+00 3.060771e-04 6.563550e-04 -3.792355e-04
N -5.816978e-02 -1.895447e+00 -5.871441e+00 3.462915e-05 -3.591589e-04 2.187242e-04
N 1.406532e-02 -1.847041e+00 -7.553720e-01 2.427384e-04 -1.455483e-04 5.031962e-05
N -1.815732e-02 1.785338e+00 1.874043e+00 -2.511744e-04 6.648353e-04 8.905138e-04
N -1.781526e-02 1.794160e+00 6.922845e+00 -1.181150e-04 3.711611e-04 -3.201756e-04
N 2.135830e-02 1.771241e+00 -3.407122e+00 -3.050123e-04 9.385330e-05 -5.148223e-04
N 3.157456e+00 -3.762370e+00 1.809245e+00 3.070242e-04 -7.248760e-04 1.957901e-04
N 3.158572e+00 -3.714758e+00 6.988651e+00 8.994180e-04 4.448270e-04 -6.097863e-05
N 3.156198e+00 -3.702307e+00 -3.420803e+00 -1.283961e-04 2.741299e-04 -1.414052e-04
N 1.565171e+00 -8.990517e-01 1.767237e+00 -3.775707e-04 -8.703314e-06 -6.732872e-04
N 1.613671e+00 -9.310673e-01 6.929062e+00 2.391688e-04 -3.134318e-04 -3.646486e-05
N 1.574626e+00 -9.072019e-01 -3.328922e+00 -3.359338e-04 2.303309e-04 -1.640516e-04
N 3.105214e+00 1.767756e+00 1.833677e+00 -1.417889e-04 1.678077e-04 -5.455622e-05
N 3.153154e+00 1.792684e+00 6.934935e+00 -1.587181e-04 -1.937584e-04 -2.423598e-04
N 3.108207e+00 1.818906e+00 -3.386149e+00 -2.223458e-04 -2.974084e-05 -5.086795e-04
N 6.291881e+00 -3.741579e+00 1.824798e+00 -8.451126e-04 -4.528642e-04 -1.956051e-04
N 6.331187e+00 -3.711478e+00 6.954132e+00 -2.969294e-04 -1.228544e-04 -2.170539e-04
N 6.370268e+00 -3.728756e+00 -3.403216e+00 1.275354e-05 -5.729296e-05 -2.481766e-04
N 4.746398e+00 -9.530513e-01 1.766502e+00 -2.028137e-04 7.381699e-05 -9.046714e-04
N 4.746464e+00 -9.605292e-01 7.005774e+00 2.246226e-04 4.028433e-04 1.447841e-04
N 4.737813e+00 -9.559987e-01 -3.419117e+00 -2.583894e-04 1.079707e-04 2.212003e-04
N -3.156971e+00 1.813462e+00 1.855942e+00 7.952658e-05 5.195319e-04 -4.733870e-04
N -3.194869e+00 1.796231e+00 6.946047e+00 -1.598824e-05 -1.951218e-04 -3.551195e-04
N -3.202636e+00 1.796162e+00 -3.360245e+00 -1.602944e-04 1.898418e-05 -1.125955e-04
N 1.511679e-02 -3.738162e+00 1.841667e+00 -8.624975e-05 1.457463e-04 -5.425372e-04
N -1.762074e-02 -3.763509e+00 6.921001e+00 2.177574e-04 3.278526e-04 -8.331032e-04
N -6.421176e-02 -3.731350e+00 -3.390813e+00 -1.596200e-04 2.562482e-05 -9.900170e-05
N -1.608947e+00 -9.066004e-01 1.857677e+00 -1.306868e-04 3.477633e-04 -2.423890e-04
N -1.652467e+00 -9.339289e-01 6.980788e+00 -2.024118e-04 3.202072e-04 1.547833e-04
N -1.611538e+00 -9.521319e-01 -3.415949e+00 -3.754665e-04 2.792442e-04 2.245538e-04
