108
Energy=-9.401944e+05 Lattice="9.457572e+00 0.000000e+00 0.000000e+00 -4.729961e+00 8.185777e+00 0.000000e+00 -3.010994e-03 -2.270301e-04 1.521987e+01" Stress="5.031095e-04 -1.529446e-04 -7.392514e-05 -1.448469e-04 -1.808541e-04 -1.918212e-05 -6.551115e-05 -1.108627e-05 1.233508e-03" Properties=species:S:1:pos:R:3:forces:R:3 Config_type=AlGaN_super3_11_2_26.xyz
Al 1.558750e+00 8.766430e-01 2.391533e+00 4.451208e-05 -1.093465e-05 5.137028e-05
Al 1.557861e+00 8.690917e-01 7.474391e+00 -2.631251e-06 6.755534e-05 -2.534855e-05
Al 1.558894e+00 8.806855e-01 -2.709432e+00 6.706851e-06 3.186338e-04 -5.681274e-06
Al -1.951180e-02 3.599876e+00 2.373078e+00 1.554920e-04 -3.661600e-05 1.892134e-05
Al -2.996336e-02 3.599308e+00 7.489386e+00 2.721354e-05 -6.349264e-05 1.800544e-05
Al -1.573465e-02 3.592402e+00 -2.701019e+00 6.025817e-05 -1.555482e-06 -1.142762e-04
Al 3.135589e+00 -1.859446e+00 2.425875e+00 5.544671e-05 9.654122e-06 8.783665e-05
Al 3.131214e+00 -1.856980e+00 7.457330e+00 -4.710403e-05 5.104295e-05 -2.722662e-06
Al 3.134159e+00 -1.852196e+00 -2.720579e+00 1.309209e-04 7.742736e-06 -4.893035e-06
Al -4.762939e+00 8.680463e-01 2.397575e+00 -1.219516e-04 -1.753657e-05 -1.787345e-05
Al -4.762749e+00 8.661410e-01 7.474650e+00 -6.735780e-06 -1.134837e-05 1.156038e-04
Al -4.759545e+00 8.770887e-01 -2.711299e+00 -1.875808e-04 -2.795201e-04 -1.826040e-04
Al -6.339218e+00 3.588128e+00 2.401732e+00 -2.806095e-04 -1.951827e-04 5.430985e-05
Al -6.325825e+00 3.591369e+00 7.470764e+00 5.801203e-05 2.570044e-06 7.207586e-05
Al -6.342418e+00 3.581802e+00 -2.707917e+00 -4.091470e-05 -3.291470e-05 4.232559e-05
Al -3.174641e+00 -1.860922e+00 2.407431e+00 -4.385366e-04 4.479465e-05 -2.660713e-04
Al -3.178591e+00 -1.850902e+00 7.472222e+00 4.883595e-05 2.436600e-05 4.238938e-05
Ga -3.182846e+00 -1.863974e+00 -2.712050e+00 -5.353241e-05 -1.245426e-06 -8.393365e-06
Al -1.593648e+00 8.660549e-01 2.391097e+00 -1.254575e-04 3.466787e-04 1.243596e-04
Al -1.598169e+00 8.654319e-01 7.484767e+00 1.819538e-05 2.334701e-05 4.623589e-05
Al -1.595544e+00 8.833092e-01 -2.708785e+00 1.928151e-04 4.777804e-05 -3.377022e-04
Ga -3.165886e+00 3.600677e+00 2.399046e+00 1.272802e-04 -1.307321e-04 -3.530879e-05
Al -3.176251e+00 3.606581e+00 7.474268e+00 -7.990705e-06 7.120430e-06 1.173157e-04
Ga -3.166501e+00 3.589558e+00 -2.702087e+00 2.215952e-05 3.525921e-06 3.516042e-05
Al -2.697748e-02 -1.849599e+00 2.436567e+00 1.190630e-04 -1.945751e-05 1.834595e-04
Al -2.331776e-02 -1.855615e+00 7.457870e+00 1.298852e-05 -8.003378e-05 -4.691751e-05
Ga -1.462134e-02 -1.848044e+00 -2.724289e+00 -6.954277e-05 -4.210524e-05 -1.390912e-05
Ga -1.878750e-02 1.775013e+00 4.940114e+00 1.923540e-05 8.462139e-05 9.094429e-05
Al -2.090861e-02 1.778969e+00 -5.228562e+00 1.753126e-06 1.366346e-04 8.979234e-05
Al -2.238322e-02 1.793333e+00 -1.610945e-01 2.120334e-04 1.902844e-05 -1.888284e-04
Al 3.128882e+00 -3.663253e+00 4.954365e+00 3.577476e-04 1.878003e-05 -5.781568e-05
Al 3.136676e+00 -3.673869e+00 -5.240762e+00 -3.217904e-05 9.301228e-05 6.292761e-05
Al 3.150948e+00 -3.681888e+00 -1.565165e-01 -3.338842e-05 3.436978e-04 -1.355593e-04
Al 1.558416e+00 -9.527011e-01 4.935793e+00 -9.588145e-05 8.280358e-05 -5.097710e-06
Al 1.562594e+00 -9.450851e-01 -5.249347e+00 -7.827304e-05 6.754575e-05 1.014188e-04
Ga 1.567894e+00 -9.399258e-01 -1.309086e-01 -4.580572e-05 8.062656e-05 -1.269682e-04
Al 3.131183e+00 1.771143e+00 4.939561e+00 -1.597925e-04 1.189541e-04 -1.498132e-05
Al 3.130180e+00 1.779466e+00 -5.228681e+00 5.724494e-05 2.009524e-05 7.963938e-05
Al 3.124834e+00 1.786922e+00 -1.608584e-01 1.934012e-04 5.192013e-05 -5.468594e-05
Ga 6.282330e+00 -3.673243e+00 4.941800e+00 -2.202848e-05 -9.770228e-05 -1.885226e-05
Al 6.284548e+00 -3.683877e+00 -5.246816e+00 4.280768e-05 -5.935939e-06 9.457650e-06
Al 6.276299e+00 -3.701566e+00 -1.389379e-01 -4.160075e-05 3.981464e-05 -1.243991e-04
Al 4.697694e+00 -9.479108e-01 4.934045e+00 -2.332581e-04 2.638671e-04 1.100211e-04
Al 4.701686e+00 -9.448493e-01 -5.240189e+00 -8.093668e-05 -9.646780e-06 1.762105e-04
Ga 4.697371e+00 -9.441976e-01 -1.390856e-01 -7.454683e-05 -4.018498e-05 -1.051559e-04
Ga -3.186763e+00 1.773155e+00 4.955445e+00 3.495281e-05 -2.578400e-05 1.319222e-05
Al -3.176236e+00 1.775142e+00 -5.246364e+00 2.453362e-05 3.539234e-05 -6.434144e-05
Al -3.171641e+00 1.773357e+00 -1.510968e-01 -2.447665e-04 1.548095e-04 5.932667e-05
Al -2.657287e-02 -3.669925e+00 4.947587e+00 -2.743614e-05 8.509547e-05 7.652379e-05
Al -2.555918e-02 -3.680573e+00 -5.252493e+00 3.826688e-05 -5.286039e-05 1.300496e-04
Ga -3.478377e-02 -3.693847e+00 -1.333546e-01 -1.689421e-05 5.231047e-06 -2.633861e-04
Al -1.598987e+00 -9.529881e-01 4.940165e+00 1.779508e-04 -8.730754e-05 1.952206e-04
Al -1.597617e+00 -9.425957e-01 -5.250720e+00 -8.697093e-05 -4.278793e-07 2.057604e-04
Ga -1.601135e+00 -9.335738e-01 -1.265432e-01 -8.413738e-05 -1.036346e-04 -2.329340e-04
N 1.594335e+00 8.503997e-01 4.309461e+00 9.808465e-05 3.068350e-05 -4.123299e-05
N 1.556966e+00 8.737928e-01 -5.831051e+00 3.891515e-05 4.617376e-05 -3.932714e-06
N 1.553182e+00 9.162354e-01 -7.824639e-01 -1.623161e-04 -1.405796e-04 1.477640e-04
N -6.886550e-02 3.622671e+00 4.285337e+00 3.357850e-07 9.277446e-05 2.486135e-04
N -2.494208e-02 3.596158e+00 -5.825459e+00 -5.031174e-05 -2.275174e-05 -2.666008e-05
N -1.930630e-02 3.599018e+00 -7.683702e-01 -1.605645e-05 1.083498e-05 2.163113e-05
N 3.129756e+00 -1.862887e+00 4.345790e+00 7.017893e-06 1.738240e-05 1.320299e-05
N 3.133297e+00 -1.858267e+00 -5.847951e+00 -9.127633e-06 -4.966097e-06 -2.977862e-05
N 3.129121e+00 -1.901621e+00 -8.098820e-01 -3.502416e-05 -4.006015e-04 3.425174e-04
N -4.795902e+00 8.502657e-01 4.312880e+00 2.224933e-04 -1.742516e-04 -8.620616e-05
N -4.758355e+00 8.701942e-01 -5.833808e+00 4.686935e-05 3.031906e-05 -3.958997e-05
N -4.753080e+00 9.190805e-01 -7.861114e-01 1.168733e-04 2.072522e-05 1.264983e-04
N -6.291162e+00 3.570477e+00 4.319123e+00 -1.373966e-05 -6.485181e-05 1.605061e-04
N -6.326317e+00 3.591825e+00 -5.840259e+00 -4.486018e-05 -1.146304e-05 -1.106202e-05
N -6.373320e+00 3.575485e+00 -7.864701e-01 4.308822e-05 8.331625e-05 7.374199e-05
N -3.177447e+00 -1.811897e+00 4.322330e+00 9.285410e-05 -2.561502e-04 -1.634149e-04
N -3.176745e+00 -1.855600e+00 -5.830269e+00 -2.282170e-05 4.527416e-05 7.738588e-06
N -3.174633e+00 -1.908495e+00 -7.382609e-01 5.772765e-05 -8.193977e-06 1.165051e-05
N -1.601339e+00 8.281189e-01 4.298037e+00 5.878147e-06 2.068684e-04 -5.771348e-05
N -1.594398e+00 8.729921e-01 -5.830277e+00 1.435768e-04 -8.104478e-05 -2.891391e-05
N -1.596904e+00 9.186069e-01 -7.856019e-01 -1.569240e-04 -9.864247e-05 3.584902e-04
N -3.173042e+00 3.646059e+00 4.375563e+00 -1.493124e-04 -1.451287e-04 -1.151369e-04
N -3.171677e+00 3.602977e+00 -5.828908e+00 1.523208e-05 -2.913249e-05 -2.241466e-05
N -3.133501e+00 3.576336e+00 -7.188208e-01 -2.768509e-05 -2.068814e-05 -3.852080e-05
N -2.426344e-02 -1.856264e+00 4.355490e+00 7.797481e-06 -1.372595e-04 2.664602e-05
N -1.881212e-02 -1.855743e+00 -5.841609e+00 1.995486e-05 -8.684353e-05 3.894549e-05
N -1.963228e-02 -1.856172e+00 -7.644742e-01 2.505840e-05 -1.707038e-04 3.047364e-05
N -2.124608e-02 1.777616e+00 1.772505e+00 -1.941413e-05 -4.448250e-05 5.549279e-05
N -2.344891e-02 1.780217e+00 6.917575e+00 9.329171e-05 1.709824e-05 -3.471661e-05
N -2.116210e-02 1.780673e+00 -3.304417e+00 9.820412e-06 5.564397e-05 -5.351057e-05
N 3.175101e+00 -3.645167e+00 1.759242e+00 -2.229467e-04 1.547365e-04 -2.833900e-04
N 3.134154e+00 -3.678832e+00 6.870928e+00 6.536643e-05 5.656151e-05 -2.377451e-05
N 3.176200e+00 -3.655086e+00 -3.327114e+00 1.375996e-06 2.341679e-05 -3.157981e-05
N 1.556520e+00 -9.529845e-01 1.854987e+00 4.264672e-05 7.823778e-05 5.359986e-05
N 1.554241e+00 -9.458956e-01 6.859659e+00 -1.141459e-04 8.133973e-05 3.579094e-05
N 1.600202e+00 -9.181958e-01 -3.336113e+00 -1.245534e-04 -2.181195e-04 -1.976161e-04
N 3.129825e+00 1.779789e+00 1.768025e+00 -6.347889e-06 2.248956e-05 9.034192e-05
N 3.127025e+00 1.777573e+00 6.858833e+00 -1.132978e-05 1.644897e-05 -3.012124e-05
N 3.129800e+00 1.779263e+00 -3.311073e+00 -1.127079e-05 -3.229534e-05 -3.619629e-05
N 6.286956e+00 -3.680665e+00 1.789976e+00 2.626309e-05 2.768552e-05 9.249254e-05
N 6.279783e+00 -3.679142e+00 6.921146e+00 -1.607599e-04 5.950059e-05 -1.464110e-04
N 6.282853e+00 -3.728765e+00 -3.334548e+00 -1.002968e-04 -5.567514e-06 5.525479e-05
N 4.700793e+00 -9.500427e-01 1.843221e+00 2.667454e-04 -1.626595e-04 3.098389e-04
N 4.706290e+00 -9.469608e-01 6.857792e+00 -6.062562e-05 -3.383978e-05 -6.477245e-05
N 4.666113e+00 -9.208198e-01 -3.327433e+00 2.039558e-04 1.696616e-04 -1.463668e-04
N -3.178188e+00 1.727109e+00 1.770283e+00 1.868127e-04 4.735100e-05 -2.890059e-05
N -3.178201e+00 1.776988e+00 6.931354e+00 1.664801e-05 -9.395002e-05 -1.955974e-04
N -3.176201e+00 1.731016e+00 -3.332384e+00 -7.711892e-05 7.244521e-05 1.097167e-04
N -6.811495e-02 -3.651372e+00 1.837743e+00 1.714927e-04 6.558671e-05 5.180577e-05
N -2.669563e-02 -3.677708e+00 6.868803e+00 4.110601e-06 1.532776e-06 -1.096281e-05
N -6.432262e-02 -3.706607e+00 -3.342307e+00 1.414023e-04 8.996789e-05 -1.808577e-04
N -1.595688e+00 -9.503694e-01 1.848809e+00 -2.635131e-05 -2.795214e-04 -4.745929e-05
N -1.602230e+00 -9.465429e-01 6.863950e+00 -1.848935e-05 4.422641e-06 -3.706884e-06
N -1.600996e+00 -8.973898e-01 -3.347002e+00 -2.920295e-05 -2.153709e-04 -2.373843e-04
