108
Energy=-1.672602e+06 Lattice="9.541838e+00 0.000000e+00 0.000000e+00 -4.778887e+00 8.254850e+00 0.000000e+00 -9.342624e-03 -1.910746e-02 1.541830e+01" Stress="-2.039669e-03 -2.185354e-04 -4.995666e-04 -2.314854e-04 -3.231667e-03 -8.857067e-04 -4.783307e-04 -8.946119e-04 -2.320451e-03" Properties=species:S:1:pos:R:3:forces:R:3 Config_type=AlGaN_super3_27_2_15.xyz
Al 1.577869e+00 8.713535e-01 2.454069e+00 3.169439e-04 2.070215e-04 -4.340149e-05
Al 1.566943e+00 8.789156e-01 7.553715e+00 2.212716e-03 -1.137305e-03 4.252960e-06
Al 1.563092e+00 8.969537e-01 -2.741410e+00 7.024235e-05 -2.330062e-04 -3.604766e-04
Al -2.571935e-02 3.637512e+00 2.394786e+00 2.982219e-03 -7.713515e-04 1.098176e-03
Al -2.010142e-02 3.621200e+00 7.584568e+00 -5.162969e-04 2.580780e-04 4.066987e-04
Ga -2.282205e-02 3.626121e+00 -2.723484e+00 -9.073665e-05 -5.715219e-05 7.940110e-04
Al 3.173273e+00 -1.878016e+00 2.409403e+00 7.087884e-04 2.239343e-03 2.919785e-04
Al 3.165067e+00 -1.889173e+00 7.554161e+00 -6.182649e-04 2.789243e-04 2.207438e-04
Ga 3.173016e+00 -1.881431e+00 -2.702680e+00 -5.834146e-06 -1.675004e-04 9.128326e-04
Al -4.797289e+00 8.644087e-01 2.414986e+00 -8.189385e-04 -6.966475e-04 3.412601e-04
Ga -4.828252e+00 8.696245e-01 7.555684e+00 3.325369e-04 2.268864e-04 4.236425e-04
Ga -4.798351e+00 8.905014e-01 -2.708218e+00 6.202904e-04 -3.076040e-04 -2.280110e-04
Ga -6.406837e+00 3.620059e+00 2.435073e+00 -2.185124e-04 -3.986234e-04 6.416977e-04
Al -6.407145e+00 3.608038e+00 7.544947e+00 2.555318e-05 -1.828056e-04 -5.066976e-05
Al -6.393532e+00 3.629395e+00 -2.714867e+00 -8.671517e-05 8.632783e-05 1.950916e-04
Al -3.214790e+00 -1.896050e+00 2.421583e+00 -1.984253e-03 4.559724e-03 -1.967440e-03
Al -3.209167e+00 -1.895099e+00 7.545071e+00 9.217792e-05 2.941488e-04 4.430305e-04
Al -3.195110e+00 -1.872976e+00 -2.694016e+00 2.471851e-05 1.509938e-04 5.889416e-04
Ga -1.630075e+00 8.821426e-01 2.438178e+00 7.075347e-04 -5.311888e-04 1.432485e-04
Ga -1.620283e+00 8.708333e-01 7.545994e+00 3.459223e-04 -7.357885e-04 6.789699e-04
Al -1.611430e+00 8.925281e-01 -2.713857e+00 6.099760e-04 -2.694997e-04 -4.867140e-04
Ga -3.200329e+00 3.622859e+00 2.426310e+00 -2.376465e-04 -7.819375e-04 1.155490e-03
Ga -3.211779e+00 3.628058e+00 7.546675e+00 2.142380e-04 -2.635673e-04 9.590368e-04
Al -3.196381e+00 3.632755e+00 -2.705031e+00 2.168857e-04 -4.277659e-04 -2.241219e-04
Ga -1.564791e-02 -1.861310e+00 2.462020e+00 8.001968e-05 -1.702551e-04 -9.191508e-04
Ga -2.896602e-02 -1.882357e+00 7.532604e+00 7.202435e-04 -4.288798e-05 3.756421e-04
Ga -2.484917e-02 -1.863544e+00 -2.712815e+00 6.555762e-04 -2.345726e-04 -1.941325e-03
Ga -1.689609e-02 1.779199e+00 4.994060e+00 -2.676878e-04 6.753683e-04 -6.450530e-04
Al -1.286175e-02 1.804887e+00 -5.295156e+00 -2.319447e-04 1.427837e-04 2.435192e-04
Ga -2.480855e-02 1.798224e+00 -1.404865e-01 -5.817908e-04 5.415290e-04 8.643889e-04
Ga 3.160538e+00 -3.715161e+00 4.989119e+00 -3.584938e-04 5.928164e-04 3.620631e-04
Al 3.171033e+00 -3.708808e+00 -5.299355e+00 -3.840472e-04 2.812203e-04 5.148754e-04
Al 3.171549e+00 -3.714800e+00 -1.335808e-01 -3.840016e-04 5.681687e-04 -1.055168e-03
Al 1.576567e+00 -9.617046e-01 4.993730e+00 -1.073443e-04 6.954832e-04 6.943836e-04
Ga 1.593677e+00 -9.381214e-01 -5.301436e+00 -1.015971e-03 8.259116e-04 -2.335780e-04
Ga 1.593113e+00 -9.517606e-01 -1.315900e-01 -1.289116e-03 5.199440e-04 2.309944e-04
Al 3.154545e+00 1.784677e+00 4.983048e+00 1.358458e-03 -6.367278e-04 9.152682e-04
Al 3.137181e+00 1.811154e+00 -5.289040e+00 -1.931203e-05 2.754717e-05 3.449565e-04
Ga 3.150052e+00 1.793406e+00 -1.403348e-01 6.231514e-04 1.112702e-04 4.350221e-04
Ga 6.346595e+00 -3.714457e+00 5.009267e+00 -4.044064e-04 -1.846800e-04 8.411638e-04
Ga 6.345675e+00 -3.711827e+00 -5.301806e+00 2.628370e-04 2.652999e-04 6.644905e-04
Al 6.332283e+00 -3.696372e+00 -1.517261e-01 1.183948e-04 1.059165e-05 6.333849e-05
Ga 4.749532e+00 -9.532909e-01 4.978900e+00 -6.214693e-04 6.338505e-04 -2.486758e-04
Ga 4.753950e+00 -9.591436e-01 -5.298011e+00 -4.248756e-04 2.414262e-04 8.101735e-04
Al 4.762070e+00 -9.665986e-01 -1.237741e-01 -5.140910e-06 3.164068e-04 9.307178e-04
Al -3.230347e+00 1.787551e+00 4.982773e+00 -1.147891e-04 7.441715e-06 7.012099e-04
Ga -3.199947e+00 1.815776e+00 -5.268296e+00 5.409981e-05 1.373679e-04 7.314760e-04
Al -3.205911e+00 1.801232e+00 -1.602465e-01 -7.966134e-05 -1.062059e-04 -2.921087e-04
Al -2.849834e-02 -3.718014e+00 5.001264e+00 2.421183e-04 5.288539e-04 2.024935e-04
Ga -1.885419e-02 -3.718712e+00 -5.277004e+00 1.341689e-04 1.976802e-05 3.403436e-04
Ga -1.432561e-02 -3.719817e+00 -1.592453e-01 -1.703098e-04 3.515476e-04 -3.666180e-05
Al -1.619508e+00 -9.668818e-01 4.989812e+00 -2.255291e-04 1.827945e-04 -5.783679e-04
Ga -1.614599e+00 -9.403714e-01 -5.273768e+00 -6.360719e-04 2.748318e-04 7.000689e-04
Ga -1.636188e+00 -9.506492e-01 -1.478649e-01 -3.532063e-04 3.854316e-04 1.442797e-03
N 1.605240e+00 8.461021e-01 4.366891e+00 2.653575e-04 -7.571618e-04 -3.007472e-04
N 1.570888e+00 9.362365e-01 -5.937604e+00 -2.064284e-04 -2.159316e-04 -3.321493e-04
N 1.563420e+00 8.800731e-01 -8.356484e-01 2.484124e-04 6.978215e-05 9.263821e-04
N -2.196164e-02 3.623620e+00 4.308503e+00 -3.255910e-04 2.968739e-04 -8.848454e-04
N -6.135407e-02 3.612012e+00 -5.910352e+00 -4.540932e-04 -5.384690e-04 -4.354536e-04
N -2.638692e-02 3.672884e+00 -7.367858e-01 -1.292274e-04 3.085969e-04 9.087443e-05
N 3.123303e+00 -1.860653e+00 4.330261e+00 -1.022823e-03 -2.400714e-04 -1.684338e-03
N 3.167236e+00 -1.915701e+00 -5.948381e+00 1.115710e-04 -7.359671e-04 -7.347633e-04
N 3.207630e+00 -1.900791e+00 -7.190529e-01 7.213555e-04 -5.994012e-04 7.680193e-04
N -4.799708e+00 9.167636e-01 4.342671e+00 -7.370445e-04 8.940004e-04 -1.410735e-04
N -4.839830e+00 9.156241e-01 -5.880170e+00 3.724695e-04 3.816121e-05 -3.565957e-04
N -4.763084e+00 8.531378e-01 -7.261352e-01 5.803121e-04 -5.387702e-04 3.986359e-05
N -6.356220e+00 3.603553e+00 4.411467e+00 7.552210e-05 -7.858210e-04 -5.325577e-04
N -6.381036e+00 3.588265e+00 -5.954038e+00 -1.654246e-04 -3.740927e-04 -6.131246e-04
N -6.433399e+00 3.650381e+00 -7.977218e-01 -6.541046e-04 9.077446e-05 1.534238e-04
N -3.168158e+00 -1.865741e+00 4.332991e+00 1.010104e-03 -1.757031e-04 -2.054330e-04
N -3.190282e+00 -1.864990e+00 -5.969401e+00 1.053063e-04 -8.778565e-05 -6.524257e-04
N -3.245136e+00 -1.895751e+00 -7.769337e-01 -5.308378e-04 -2.493743e-04 2.202283e-04
N -1.665590e+00 8.554446e-01 4.417131e+00 8.021254e-04 -6.890741e-04 -1.446337e-04
N -1.579161e+00 9.133211e-01 -5.896024e+00 1.321113e-03 -3.302023e-04 -5.609091e-04
N -1.653360e+00 9.096352e-01 -7.989772e-01 8.826596e-04 -2.829112e-04 9.072375e-04
N -3.250468e+00 3.605243e+00 4.408643e+00 2.417584e-04 -6.271518e-04 -8.836445e-04
N -3.168531e+00 3.663235e+00 -5.901545e+00 6.290844e-04 -3.058319e-04 -6.507116e-04
N -3.158130e+00 3.614462e+00 -7.807986e-01 8.290171e-04 -4.687077e-04 2.374783e-04
N -2.091388e-02 -1.876200e+00 4.448418e+00 4.945942e-04 -7.526625e-05 4.762472e-04
N -1.903169e-02 -1.864975e+00 -5.908215e+00 4.503980e-04 -3.156817e-04 -1.584979e-04
N -1.717106e-02 -1.862018e+00 -7.569768e-01 2.693343e-04 -5.125811e-04 1.238417e-03
N 1.975337e-02 1.804992e+00 1.851919e+00 -1.494197e-04 5.217183e-05 -2.009661e-03
N 1.707029e-02 1.811365e+00 6.971406e+00 -1.412972e-03 1.002304e-03 2.120009e-04
N -2.308157e-02 1.752114e+00 -3.365655e+00 -3.241916e-04 -1.347124e-04 -5.249156e-04
N 3.196983e+00 -3.700503e+00 1.784833e+00 -2.288695e-04 3.306754e-03 5.773868e-04
N 3.208703e+00 -3.700504e+00 6.967212e+00 4.456632e-04 2.766687e-04 -4.098386e-04
N 3.127006e+00 -3.728813e+00 -3.378970e+00 -4.671728e-04 3.704961e-04 -6.045105e-04
N 1.606057e+00 -9.287173e-01 1.845725e+00 1.843254e-03 -1.549479e-03 6.042822e-04
N 1.615863e+00 -9.421414e-01 6.925552e+00 -8.700411e-05 7.386717e-04 -5.267948e-04
N 1.586264e+00 -9.088673e-01 -3.328094e+00 -7.402572e-04 5.430568e-04 2.631924e-05
N 3.149976e+00 1.745783e+00 1.838433e+00 1.703413e-04 -5.815989e-04 4.598081e-05
N 3.103122e+00 1.805417e+00 6.906219e+00 1.093829e-04 1.593559e-04 -1.269837e-03
N 3.114294e+00 1.828190e+00 -3.360460e+00 -6.665455e-05 1.148420e-04 -5.733716e-04
N 6.310882e+00 -3.691445e+00 1.773074e+00 -2.166074e-03 4.252083e-04 -7.364710e-05
N 6.330776e+00 -3.720999e+00 6.997350e+00 4.194093e-05 -4.182773e-04 -3.114049e-04
N 6.386161e+00 -3.676506e+00 -3.314086e+00 4.041087e-04 -4.320453e-05 -6.784275e-04
N 4.754535e+00 -9.546093e-01 1.810728e+00 5.174849e-04 -3.794897e-03 -1.148258e-04
N 4.746613e+00 -1.011096e+00 6.963732e+00 -3.251427e-04 -5.358888e-04 -8.493162e-04
N 4.797926e+00 -9.787309e-01 -3.322482e+00 -2.445841e-04 2.281359e-04 -6.986445e-04
N -3.247214e+00 1.773037e+00 1.757762e+00 -4.215095e-04 1.207999e-04 4.619662e-05
N -3.223316e+00 1.783042e+00 6.888369e+00 -7.082103e-05 2.265368e-05 -4.540835e-04
N -3.165468e+00 1.826972e+00 -3.293028e+00 -9.428465e-05 -2.057234e-05 3.389474e-04
N -2.318918e-02 -3.706563e+00 1.807374e+00 2.501291e-04 -7.982154e-05 2.241470e-04
N -7.001237e-02 -3.745643e+00 6.909310e+00 -3.414671e-04 -1.672477e-05 -4.121572e-04
N -1.738238e-02 -3.755380e+00 -3.292030e+00 1.260559e-04 -4.572947e-04 6.059301e-04
N -1.650719e+00 -9.792485e-01 1.830883e+00 -1.607724e-03 -1.430588e-03 -1.154748e-03
N -1.661742e+00 -9.894548e-01 6.897710e+00 -1.010250e-03 2.126638e-04 -5.044237e-04
N -1.655497e+00 -9.262188e-01 -3.292815e+00 -8.123250e-04 3.950169e-04 3.055832e-04
