108
Energy=-2.313452e+06 Lattice="9.479920e+00 0.000000e+00 0.000000e+00 -4.740365e+00 8.215984e+00 0.000000e+00 -3.229383e-03 2.816508e-04 1.526776e+01" Stress="-7.692241e-02 7.014780e-03 -2.568389e-04 7.003473e-03 -6.789281e-02 -3.221172e-04 -2.476213e-04 -3.195042e-04 -7.888837e-02" Properties=species:S:1:pos:R:3:forces:R:3 Config_type=AlGaN_super3_41_0_1.xyz
Al 1.563807e+00 9.036377e-01 2.483277e+00 -2.132912e-03 -1.401771e-02 -1.166197e-02
Al 1.563129e+00 9.038635e-01 7.496674e+00 -8.298677e-04 -1.424576e-02 -4.863747e-03
Ga 1.566187e+00 9.032592e-01 -2.757241e+00 -1.865313e-03 -1.863587e-02 -5.295784e-03
Al -1.290249e-03 3.616633e+00 2.486739e+00 -3.895220e-03 -1.940698e-03 -1.094707e-02
Ga -1.803070e-03 3.616718e+00 7.496472e+00 -2.346324e-03 -1.608682e-03 -2.899842e-03
Ga 1.076635e-03 3.616634e+00 -2.758900e+00 -2.940083e-03 -1.570459e-03 -1.957587e-03
Ga 3.173449e+00 -1.886193e+00 2.482454e+00 -3.326739e-03 6.523176e-04 -1.246671e-02
Ga 3.173243e+00 -1.886142e+00 7.496425e+00 -2.956088e-03 2.073736e-03 -3.970135e-03
Ga 3.175818e+00 -1.886043e+00 -2.757060e+00 -3.387539e-03 2.071600e-03 -2.930140e-03
Ga -4.786834e+00 9.036509e-01 2.482539e+00 9.532674e-04 -1.654297e-02 -1.274599e-02
Al -4.786806e+00 9.038224e-01 7.496791e+00 9.162930e-04 -1.335988e-02 -3.347103e-03
Ga -4.784499e+00 9.033178e-01 -2.757563e+00 7.453252e-04 -1.706269e-02 -4.692045e-03
Ga -6.351994e+00 3.616151e+00 2.482716e+00 -2.089659e-05 -1.015663e-05 -9.935857e-03
Al -6.352032e+00 3.616808e+00 7.496617e+00 -5.165458e-04 -5.485931e-04 -2.013985e-03
Ga -6.349679e+00 3.616148e+00 -2.757397e+00 -3.557334e-04 -2.360497e-04 -1.015706e-03
Ga -3.176188e+00 -1.886592e+00 2.478536e+00 -6.575759e-04 2.532518e-03 -1.018483e-02
Al -3.176607e+00 -1.886255e+00 7.496363e+00 -4.250552e-04 3.094500e-03 -3.267890e-03
Ga -3.173944e+00 -1.886579e+00 -2.755063e+00 -2.971759e-04 3.226315e-03 -2.116337e-03
Ga -1.656004e+00 9.031501e-01 2.486380e+00 1.645632e-02 -8.074731e-03 -1.588809e-02
Ga -1.656862e+00 9.036531e-01 7.496524e+00 1.598494e-02 -9.482915e-03 -8.288696e-03
Ga -1.653933e+00 9.031290e-01 -2.759201e+00 1.611959e-02 -9.537496e-03 -7.965977e-03
Al -3.220857e+00 3.616546e+00 2.489406e+00 1.255690e-02 5.387343e-03 -1.148709e-02
Ga -3.222079e+00 3.616624e+00 7.496626e+00 1.471514e-02 7.561540e-03 -4.797634e-03
Ga -3.219054e+00 3.616447e+00 -2.760841e+00 1.514572e-02 7.458390e-03 -4.600423e-03
Ga -4.615668e-02 -1.885838e+00 2.482811e+00 1.530373e-02 9.970766e-03 -1.368079e-02
Ga -4.688434e-02 -1.886244e+00 7.496311e+00 1.453111e-02 1.067045e-02 -6.406974e-03
Ga -4.380595e-02 -1.885911e+00 -2.757245e+00 1.498392e-02 1.116295e-02 -5.207619e-03
Ga -1.308673e-03 1.807765e+00 4.990193e+00 -1.522067e-02 -1.079069e-02 -6.870048e-03
Ga 1.041862e-03 1.807891e+00 -5.264916e+00 -1.518203e-02 -1.115123e-02 -6.895957e-03
Al -6.248914e-04 1.808355e+00 -2.577865e-01 -1.187302e-02 -8.314351e-03 3.442239e-02
Ga 3.173646e+00 -3.694472e+00 4.990281e+00 -1.526310e-02 -8.010588e-03 -6.179765e-03
Ga 3.176274e+00 -3.694936e+00 -5.264871e+00 -1.550360e-02 -8.215595e-03 -5.203815e-03
Al 3.174782e+00 -3.696279e+00 -2.582678e-01 -1.216620e-02 -5.640895e-03 3.554905e-02
Ga 1.608278e+00 -9.816785e-01 4.989608e+00 -1.649728e-02 9.056076e-03 -7.973012e-03
Ga 1.611061e+00 -9.821984e-01 -5.264484e+00 -1.641717e-02 9.443100e-03 -8.784928e-03
Ga 1.610313e+00 -9.829243e-01 -2.463993e-01 -1.608446e-02 9.394295e-03 3.858927e-02
Ga 3.128128e+00 1.807920e+00 4.989838e+00 2.959558e-04 -3.201488e-03 -1.778464e-03
Ga 3.131117e+00 1.808039e+00 -5.264951e+00 7.118488e-04 -3.278010e-03 -4.224894e-03
Ga 3.130895e+00 1.808508e+00 -2.471367e-01 2.708342e-04 -3.596079e-03 4.432655e-02
Ga 6.303778e+00 -3.694430e+00 4.989459e+00 2.124603e-04 3.169921e-04 -1.029530e-03
Ga 6.306417e+00 -3.694757e+00 -5.264617e+00 2.893715e-04 4.827278e-05 -2.631358e-03
Ga 6.305454e+00 -3.695833e+00 -2.463985e-01 -3.109521e-04 -5.011894e-04 4.572984e-02
Ga 4.738643e+00 -9.819568e-01 4.989119e+00 -3.251289e-04 1.701598e-02 -3.780896e-03
Ga 4.741402e+00 -9.822306e-01 -5.264312e+00 -3.761795e-04 1.740516e-02 -5.930622e-03
Ga 4.740542e+00 -9.822943e-01 -2.451665e-01 -1.137180e-03 1.712193e-02 4.184113e-02
Ga -3.221786e+00 1.807657e+00 4.990592e+00 3.724550e-03 -1.364389e-03 -4.322337e-03
Al -3.218848e+00 1.807774e+00 -5.265042e+00 2.941718e-03 -1.941429e-03 -4.801253e-03
Al -3.218934e+00 1.808977e+00 -2.585850e-01 3.195490e-03 -1.732120e-03 3.520047e-02
Ga -4.673748e-02 -3.694528e+00 4.990007e+00 3.454089e-03 1.738958e-03 -3.004378e-03
Ga -4.372017e-02 -3.694890e+00 -5.264893e+00 3.403919e-03 1.184058e-03 -3.664865e-03
Al -4.345412e-02 -3.695505e+00 -2.578891e-01 3.512507e-03 1.156292e-03 3.651501e-02
Al -1.611615e+00 -9.822246e-01 4.989629e+00 1.417178e-03 1.486203e-02 -3.911095e-03
Ga -1.608820e+00 -9.823122e-01 -5.264395e+00 2.019244e-03 1.885459e-02 -6.832786e-03
Ga -1.608586e+00 -9.816862e-01 -2.462236e-01 2.288271e-03 1.852277e-02 4.072672e-02
N 1.563813e+00 9.034433e-01 4.395354e+00 -7.993819e-04 -1.767949e-02 -1.667082e-02
N 1.566060e+00 9.035339e-01 -5.859111e+00 -1.523797e-03 -1.750887e-02 -1.667735e-02
N 1.565548e+00 9.035288e-01 -8.438151e-01 -1.931848e-02 -7.146451e-03 1.556832e-02
N -1.271685e-03 3.616837e+00 4.396850e+00 -1.871143e-03 -1.050430e-04 -2.004289e-02
N 1.048772e-03 3.616512e+00 -5.858443e+00 -2.468702e-03 -4.821057e-05 2.329187e-03
N 3.101414e-04 3.616532e+00 -8.471805e-01 -2.014183e-02 -1.036211e-02 1.957340e-02
N 3.173379e+00 -1.885725e+00 4.395605e+00 -2.882170e-03 2.133979e-03 2.083625e-03
N 3.176199e+00 -1.886534e+00 -5.858386e+00 -2.867986e-03 1.368875e-03 1.996072e-03
N 3.175525e+00 -1.886829e+00 -8.436142e-01 -2.511150e-03 -1.959220e-02 1.196203e-02
N -4.787142e+00 9.033717e-01 4.395705e+00 1.964756e-04 -1.771750e-02 6.855252e-03
N -4.783412e+00 9.037014e-01 -5.858865e+00 1.907238e-02 -6.516370e-03 -9.061796e-03
N -4.784207e+00 9.037069e-01 -8.442138e-01 1.888952e-02 -6.687506e-03 1.582258e-02
N -6.352211e+00 3.616226e+00 4.395726e+00 -5.889910e-04 -1.523761e-04 3.146739e-03
N -6.348970e+00 3.616565e+00 -5.859086e+00 -8.111445e-04 3.073589e-04 -2.069952e-02
N -6.349542e+00 3.616449e+00 -8.442369e-01 1.780962e-02 1.137807e-02 1.253984e-02
N -3.176081e+00 -1.886154e+00 4.393693e+00 1.753519e-02 1.262465e-02 9.561963e-03
N -3.173619e+00 -1.886592e+00 -5.859007e+00 -1.301612e-03 1.683748e-03 -2.131612e-02
N -3.174031e+00 -1.886799e+00 -8.398292e-01 -9.710369e-04 1.831998e-03 4.117983e-03
N -1.656353e+00 9.025568e-01 4.397878e+00 1.658614e-02 -2.728841e-02 1.673578e-02
N -1.654042e+00 9.036755e-01 -5.858259e+00 -1.913688e-03 1.301319e-03 1.773550e-02
N -1.654322e+00 9.036556e-01 -8.473731e-01 1.306361e-02 9.284549e-03 2.549324e-02
N -3.221495e+00 3.616630e+00 4.398108e+00 1.476137e-02 8.002276e-03 -1.547327e-02
N -3.218843e+00 3.616173e+00 -5.858288e+00 1.553780e-02 -1.315722e-02 1.394690e-02
N -3.219311e+00 3.616456e+00 -8.505145e-01 1.186471e-02 5.951405e-03 2.909798e-02
N -4.678331e-02 -1.885420e+00 4.395961e+00 -3.803044e-03 2.049787e-02 1.379885e-02
N -4.367134e-02 -1.886466e+00 -5.858428e+00 1.471569e-02 9.955056e-03 6.050369e-03
N -4.412507e-02 -1.886527e+00 -8.440482e-01 1.403825e-02 -1.155595e-02 1.543218e-02
N -1.428531e-03 1.808518e+00 1.897190e+00 4.533455e-03 8.744486e-04 -3.554980e-02
N -1.421408e-03 1.807911e+00 6.903048e+00 3.166058e-03 -2.045821e-02 1.335036e-02
N 1.169078e-03 1.807739e+00 -3.352047e+00 -1.470862e-02 -9.767477e-03 6.226655e-03
N 3.173506e+00 -3.696462e+00 1.897440e+00 -1.187577e-02 -2.734336e-02 -3.650435e-02
N 3.173299e+00 -3.694707e+00 6.902913e+00 -1.560300e-02 -8.406481e-03 6.139751e-03
N 3.176211e+00 -3.694625e+00 -3.352329e+00 -1.538710e-02 -8.156027e-03 6.877773e-03
N 1.608256e+00 -9.819833e-01 1.885989e+00 -1.658422e-02 2.777615e-02 -2.578147e-02
N 1.608087e+00 -9.815257e-01 6.902693e+00 -1.694778e-02 2.665835e-02 1.574678e-02
N 1.610957e+00 -9.820070e-01 -3.351195e+00 -1.647389e-02 9.439113e-03 9.739961e-03
N 3.128167e+00 1.808206e+00 1.886179e+00 -1.758110e-02 -1.314033e-02 -3.297450e-02
N 3.128081e+00 1.808196e+00 6.903177e+00 1.286576e-03 -1.309884e-03 2.474114e-02
N 3.130719e+00 1.807827e+00 -3.351556e+00 1.132490e-03 -1.627043e-03 1.630221e-03
N 6.302999e+00 -3.695868e+00 1.885870e+00 -1.810414e-02 -1.094538e-02 -3.221002e-02
N 6.303808e+00 -3.694372e+00 6.902744e+00 1.930175e-02 1.094174e-02 1.725468e-02
N 6.306235e+00 -3.694701e+00 -3.351195e+00 6.588931e-04 -5.726443e-05 1.930780e-03
N 4.738353e+00 -9.820639e-01 1.884095e+00 -5.128826e-04 1.798921e-02 -3.557965e-02
N 4.738754e+00 -9.818158e-01 6.902627e+00 1.800205e-02 2.430178e-02 1.949534e-02
N 4.741075e+00 -9.822284e-01 -3.350642e+00 -3.057329e-04 1.738151e-02 5.736690e-03
N -3.220420e+00 1.809314e+00 1.896934e+00 2.550181e-03 1.949137e-02 -4.765291e-02
N -3.222226e+00 1.807937e+00 6.903192e+00 -1.548188e-02 -1.208384e-02 9.389978e-03
N -3.219166e+00 1.807594e+00 -3.353342e+00 2.851078e-03 -1.347833e-03 -2.107185e-02
N -4.455766e-02 -3.695569e+00 1.896275e+00 2.066761e-02 -1.061241e-02 -4.694779e-02
N -4.704755e-02 -3.694867e+00 6.902934e+00 -1.605853e-02 -1.053457e-02 9.499030e-03
N -4.412011e-02 -3.694718e+00 -3.352045e+00 2.150835e-03 2.316207e-04 2.389130e-03
N -1.610676e+00 -9.816799e-01 1.884952e+00 1.236320e-03 1.824985e-02 -3.572461e-02
N -1.612133e+00 -9.823526e-01 6.902035e+00 -1.726969e-02 6.732761e-03 -1.012104e-02
N -1.608991e+00 -9.823939e-01 -3.351072e+00 1.220812e-03 1.754851e-02 5.619319e-03
