108
Energy=-1.352173e+06 Lattice="9.496437e+00 0.000000e+00 0.000000e+00 -4.761177e+00 8.213060e+00 0.000000e+00 1.280245e-02 2.446847e-02 1.529420e+01" Stress="-6.213596e-03 2.330722e-03 1.429776e-03 2.323895e-03 -9.536840e-03 2.330697e-03 1.457489e-03 2.341465e-03 -1.127325e-02" Properties=species:S:1:pos:R:3:forces:R:3 Config_type=AlGaN_super3_20_2_4.xyz
Al 1.573668e+00 8.708456e-01 2.398185e+00 1.805093e-03 -4.538528e-03 7.731777e-03
Al 1.564426e+00 9.075859e-01 7.438312e+00 1.256168e-02 -8.812790e-03 1.752871e-02
Al 1.547816e+00 8.631485e-01 -2.705316e+00 1.247829e-03 1.341067e-03 6.288802e-04
Al -2.460780e-02 3.596961e+00 2.384644e+00 -1.648068e-03 -2.295781e-03 7.796807e-03
Al -1.299055e-02 3.641241e+00 7.516189e+00 9.153338e-04 -4.040148e-03 2.097708e-03
Al -2.924953e-02 3.614103e+00 -2.692265e+00 1.539675e-04 -5.990915e-03 -1.109706e-02
Al 3.196928e+00 -1.908867e+00 2.409004e+00 -9.371892e-03 1.112827e-02 -7.710110e-03
Al 3.165091e+00 -1.843665e+00 7.536791e+00 2.376597e-04 6.329603e-04 3.997946e-03
Ga 3.141445e+00 -1.863955e+00 -2.749067e+00 8.126065e-04 -2.535064e-03 6.807887e-03
Al -4.775007e+00 9.322090e-01 2.450277e+00 -1.130374e-02 -2.639798e-02 -2.522236e-02
Al -4.783320e+00 8.981285e-01 7.510891e+00 -1.718897e-03 -4.148977e-03 4.214503e-03
Al -4.782018e+00 8.763467e-01 -2.695655e+00 1.660879e-03 1.595491e-03 3.865978e-03
Ga -6.374275e+00 3.587595e+00 2.409294e+00 -1.008495e-04 1.647660e-03 -7.834302e-04
Al -6.343034e+00 3.645346e+00 7.516031e+00 3.749617e-04 -2.110482e-03 2.947735e-03
Ga -6.362897e+00 3.602996e+00 -2.709788e+00 -4.618531e-04 1.305882e-03 1.919766e-03
Ga -3.210443e+00 -1.870675e+00 2.371990e+00 -3.637447e-03 3.818122e-03 3.374938e-03
Al -3.179438e+00 -1.841738e+00 7.528144e+00 -1.206449e-03 -1.783223e-04 1.752164e-03
Ga -3.180311e+00 -1.856464e+00 -2.728632e+00 2.123547e-03 -3.961388e-03 4.715187e-03
Ga -1.648344e+00 8.788443e-01 2.380281e+00 8.242170e-03 -7.346076e-05 4.785240e-03
Ga -1.622217e+00 8.830048e-01 7.515721e+00 5.609952e-03 -4.229896e-03 -3.042122e-03
Al -1.629820e+00 8.769356e-01 -2.693321e+00 4.824230e-03 1.067586e-04 -3.532898e-03
Ga -3.217553e+00 3.607903e+00 2.377658e+00 9.703106e-03 2.987978e-03 2.184623e-03
Al -3.190674e+00 3.649655e+00 7.516732e+00 1.059974e-03 -1.208281e-03 1.431269e-03
Al -3.200198e+00 3.608039e+00 -2.708699e+00 2.803179e-03 -2.944208e-04 1.942814e-03
Ga -2.577639e-02 -1.861674e+00 2.393534e+00 8.250816e-03 4.340223e-03 5.080780e-03
Al 7.968068e-03 -1.844212e+00 7.530152e+00 -6.151959e-03 2.826325e-03 -3.640833e-03
Al -4.921896e-03 -1.859076e+00 -2.702672e+00 -2.816631e-03 -1.184934e-03 -5.328120e-03
Ga -6.703655e-04 1.789228e+00 4.956668e+00 -1.391334e-03 -1.817054e-03 -2.464544e-03
Ga -1.705214e-02 1.761283e+00 -5.242911e+00 1.719017e-03 7.598063e-04 8.654944e-04
Ga -4.042667e-02 1.786936e+00 -1.492037e-01 5.538853e-04 -3.061108e-03 -8.750266e-03
Ga 3.165550e+00 -3.682654e+00 4.960832e+00 -2.177172e-05 -3.412656e-03 3.179438e-03
Al 3.159555e+00 -3.700668e+00 -5.258470e+00 -1.944733e-03 -7.655517e-04 1.266130e-03
Al 3.162346e+00 -3.695684e+00 -1.831737e-01 -7.126468e-03 1.827979e-03 5.004803e-03
Ga 1.577072e+00 -9.668118e-01 4.969637e+00 -5.559073e-03 1.035319e-02 -2.554801e-03
Al 1.570490e+00 -9.890574e-01 -5.203518e+00 -1.923528e-03 8.144370e-03 -3.408498e-02
Ga 1.575659e+00 -9.758094e-01 -1.310979e-01 -1.876288e-03 3.043440e-03 -2.347633e-03
Al 3.263952e+00 1.931943e+00 4.961913e+00 -4.122167e-02 -6.817607e-02 1.917700e-02
Ga 3.133680e+00 1.761856e+00 -5.262746e+00 -3.368337e-03 6.516724e-04 7.331254e-04
Al 3.148926e+00 1.769909e+00 -1.678747e-01 1.786477e-03 -1.008603e-03 5.865769e-03
Al 6.343431e+00 -3.658676e+00 5.013898e+00 -8.433556e-03 -8.656031e-03 -8.660929e-03
Al 6.318260e+00 -3.681808e+00 -5.270695e+00 -1.213989e-03 -3.751986e-03 1.630767e-03
Ga 6.301331e+00 -3.690462e+00 -1.137867e-01 3.334763e-03 -8.239564e-04 -2.528692e-02
Ga 4.728530e+00 -9.427969e-01 4.964654e+00 -2.375037e-03 5.353647e-04 5.085366e-03
Al 4.731298e+00 -9.755988e-01 -5.217829e+00 -5.089585e-04 3.232662e-03 -1.836670e-02
Al 4.736706e+00 -9.540471e-01 -1.893557e-01 -4.935673e-03 6.318775e-03 7.821010e-03
Ga -3.228060e+00 1.803385e+00 4.974283e+00 1.083543e-02 -1.770985e-03 4.585572e-03
Ga -3.205987e+00 1.774126e+00 -5.246970e+00 -3.039961e-03 1.758193e-03 2.170286e-03
Al -3.178261e+00 1.781372e+00 -1.407080e-01 -1.699928e-02 3.445861e-03 -2.198771e-02
Al -3.338918e-02 -3.680986e+00 4.979939e+00 4.474707e-03 8.301317e-03 3.504238e-03
Al -1.376743e-02 -3.675010e+00 -5.257506e+00 -2.087409e-03 -3.392994e-03 2.572193e-03
Al -2.432518e-02 -3.693953e+00 -1.793392e-01 1.585571e-03 -2.114659e-03 2.333945e-03
Al -1.613106e+00 -9.630512e-01 4.951162e+00 4.454145e-04 5.268632e-03 3.213116e-03
Al -1.592014e+00 -9.572120e-01 -5.241955e+00 -1.926128e-03 -9.760898e-03 3.667051e-03
Al -1.615441e+00 -9.543492e-01 -1.864876e-01 -7.230490e-04 1.409356e-03 3.674728e-03
N 1.586608e+00 8.850081e-01 4.320918e+00 1.798746e-02 9.763080e-03 6.097725e-04
N 1.553730e+00 8.142908e-01 -5.895132e+00 6.339758e-04 -5.469148e-03 -7.814873e-03
N 1.571421e+00 8.786374e-01 -7.833698e-01 6.469288e-03 7.385384e-04 -5.598708e-03
N 5.838840e-03 3.628606e+00 4.314302e+00 1.147340e-02 8.456730e-03 -1.120565e-03
N -2.534498e-02 3.622774e+00 -5.863432e+00 8.392520e-05 6.815946e-03 -3.926243e-03
N -5.588781e-02 3.627307e+00 -8.083443e-01 -3.674802e-03 1.785464e-03 1.926196e-03
N 3.148398e+00 -1.863620e+00 4.311040e+00 5.721326e-03 -2.660044e-03 -7.301707e-03
N 3.150108e+00 -1.876492e+00 -5.826216e+00 1.071867e-03 -2.425020e-03 -1.581866e-03
N 3.175220e+00 -1.881068e+00 -7.688209e-01 5.004732e-03 -5.438922e-03 -1.173555e-03
N -4.826654e+00 9.124513e-01 4.323416e+00 9.773355e-03 -1.470646e-03 -2.395714e-03
N -4.785003e+00 8.207017e-01 -5.879953e+00 2.739157e-03 -5.374921e-03 -3.406379e-03
N -4.772216e+00 8.700616e-01 -7.637748e-01 4.268215e-04 5.707291e-05 -5.637543e-03
N -6.343595e+00 3.575558e+00 4.403956e+00 -4.555560e-03 5.802270e-02 -1.000504e-02
N -6.357254e+00 3.630647e+00 -5.862573e+00 1.112004e-03 8.461908e-03 -2.144806e-03
N -6.346347e+00 3.592502e+00 -7.380237e-01 4.648632e-03 -3.799051e-03 2.347216e-03
N -3.171480e+00 -1.868008e+00 4.356142e+00 7.439577e-03 -6.836110e-03 1.493121e-03
N -3.181755e+00 -1.863515e+00 -5.840851e+00 1.264003e-03 -1.591262e-04 -1.615960e-03
N -3.190621e+00 -1.843567e+00 -7.515230e-01 1.032116e-03 4.719619e-03 -3.711764e-04
N -1.640574e+00 8.594612e-01 4.357443e+00 2.344019e-03 -6.997532e-03 3.674810e-04
N -1.625836e+00 8.112640e-01 -5.827692e+00 3.315519e-03 3.590303e-03 -1.190491e-03
N -1.673908e+00 8.647049e-01 -7.776483e-01 7.786218e-03 -6.676999e-03 -1.058352e-03
N -3.235458e+00 3.639610e+00 4.359472e+00 -4.434618e-03 4.001968e-03 -1.949807e-03
N -3.202894e+00 3.636741e+00 -5.861857e+00 2.689315e-03 6.063982e-03 -2.288160e-03
N -3.198221e+00 3.614662e+00 -7.688067e-01 2.605997e-03 2.096995e-04 5.132976e-04
N -6.147126e-02 -1.876253e+00 4.370888e+00 -3.017376e-03 -6.038080e-03 2.217541e-03
N -1.956897e-02 -1.863950e+00 -5.839468e+00 4.810945e-05 -9.154264e-04 -4.180139e-03
N -6.270397e-02 -1.882379e+00 -7.858396e-01 1.621010e-03 -7.915211e-04 -2.442189e-03
N 6.007635e-03 1.786433e+00 1.792591e+00 -2.819596e-04 2.634368e-03 9.955078e-03
N 2.340755e-02 1.810098e+00 6.929048e+00 -8.668323e-03 9.746050e-03 -1.530447e-03
N -1.928505e-02 1.768709e+00 -3.274303e+00 -5.867501e-03 4.322166e-03 9.009428e-03
N 3.194028e+00 -3.701232e+00 1.777878e+00 -1.253810e-03 1.946085e-04 -8.274822e-03
N 3.172061e+00 -3.667416e+00 6.938938e+00 -3.030916e-03 -1.387847e-03 4.025439e-03
N 3.157967e+00 -3.730143e+00 -3.334372e+00 -3.941955e-03 -6.462480e-03 -2.086427e-03
N 1.631118e+00 -9.479694e-01 1.822109e+00 -4.305700e-03 -2.315327e-03 5.636346e-03
N 1.598593e+00 -9.437266e-01 6.936411e+00 -5.796471e-03 2.134732e-04 3.370220e-03
N 1.543169e+00 -9.315149e-01 -3.388526e+00 -8.075657e-03 1.215222e-04 3.257778e-02
N 3.142460e+00 1.751591e+00 1.794350e+00 -2.998190e-04 -2.598290e-03 -9.893325e-03
N 3.163515e+00 1.828591e+00 6.895361e+00 3.713393e-04 1.550377e-03 -4.814563e-03
N 3.132569e+00 1.747732e+00 -3.295262e+00 2.545333e-04 -7.452810e-03 4.055574e-03
N 6.279138e+00 -3.723874e+00 1.768100e+00 -1.690667e-03 -2.071207e-03 2.533467e-02
N 6.327998e+00 -3.661628e+00 6.929582e+00 -8.140610e-04 -1.324239e-03 -5.018034e-03
N 6.284892e+00 -3.708607e+00 -3.355200e+00 -4.868834e-03 -2.042909e-03 -1.357365e-03
N 4.678326e+00 -9.519992e-01 1.730080e+00 5.400516e-03 1.375077e-02 1.285731e-02
N 4.738580e+00 -9.348111e-01 6.941161e+00 -1.418032e-03 1.344619e-03 1.678884e-03
N 4.736477e+00 -9.137326e-01 -3.358956e+00 -2.225972e-03 6.292899e-03 8.000794e-03
N -3.259353e+00 1.762812e+00 1.707979e+00 4.041437e-03 2.645047e-03 1.981654e-02
N -3.228547e+00 1.822283e+00 6.942851e+00 -3.019028e-03 6.528936e-03 -1.029030e-03
N -3.207468e+00 1.784800e+00 -3.281779e+00 9.753160e-04 3.076778e-04 7.620263e-03
N -3.199068e-02 -3.690732e+00 1.760024e+00 -2.901867e-03 1.921960e-04 -1.240716e-02
N -4.295937e-03 -3.662976e+00 6.916495e+00 -4.206094e-05 3.114424e-04 -4.607857e-03
N 7.388152e-03 -3.677700e+00 -3.325096e+00 7.016166e-03 5.444366e-03 -2.547781e-03
N -1.609990e+00 -9.595519e-01 1.749368e+00 -9.384307e-04 1.596745e-03 -1.267957e-02
N -1.627852e+00 -9.860382e-01 6.864983e+00 1.265262e-02 -1.277003e-03 4.906758e-03
N -1.566184e+00 -9.418721e-01 -3.320050e+00 5.091458e-03 5.832947e-03 -1.163399e-03
