108
Energy=-1672601.167670 Lattice="9.497282 0.000000 0.000000 -4.756021 8.221869 0.000000 0.000596 -0.001188 15.328182" Stress="-0.000124 0.000003 -0.000000 0.000003 -0.000119 0.000000 -0.000000 0.000000 -0.000106" Properties=species:S:1:pos:R:3:forces:R:3
Al 1.553848 0.879737 2.435210 0.002370 -0.002418 -0.008918
Al 1.557027 0.867649 7.510078 -0.001309 0.000000 0.003609
Al 1.535707 0.858867 -2.739006 0.006184 0.004595 0.013742
Al 0.050907 3.575528 2.448582 -0.039356 0.005414 -0.012227
Al -0.031167 3.605489 7.520997 -0.001747 -0.000731 0.003866
Ga -0.038532 3.587654 -2.745162 0.001506 0.003820 0.008474
Al 3.177339 -1.865293 2.460361 -0.018866 -0.009099 0.001564
Ga 3.153152 -1.881977 7.511138 -0.002102 -0.002443 0.001124
Ga 3.136633 -1.873478 -2.752712 0.003044 -0.002338 0.009745
Al -4.794426 0.878051 2.429134 -0.001951 0.000095 -0.002519
Ga -4.782847 0.883733 7.531265 0.005273 0.005386 0.003458
Ga -4.787000 0.878941 -2.757809 0.004080 0.003878 0.008512
Al -6.388453 3.599440 2.419795 0.027762 -0.004091 -0.006108
Ga -6.372460 3.598203 7.536277 0.004175 0.002765 -0.000686
Ga -6.352039 3.609569 -2.740485 0.000197 -0.000752 0.007263
Al -3.164768 -1.871764 2.458937 -0.005935 0.000276 -0.000808
Ga -3.185571 -1.871560 7.526222 0.005953 -0.000428 0.002801
Ga -3.170338 -1.855947 -2.747583 0.000185 -0.002240 0.007094
Ga -1.622283 0.877829 2.433614 0.002646 0.004879 0.002592
Ga -1.620364 0.902637 7.503858 -0.001258 -0.001247 -0.000337
Al -1.598254 0.887776 -2.741673 -0.007957 0.000689 0.007902
Al -3.254750 3.636678 2.424496 0.013140 -0.000241 0.004084
Al -3.172844 3.615549 7.504885 -0.002399 -0.001815 0.002803
Al -3.188769 3.631732 -2.760152 -0.001866 -0.007436 0.011386
Al -0.068331 -1.892693 2.427760 0.037202 0.005436 0.003796
Ga -0.002086 -1.844352 7.496962 -0.002082 -0.004274 0.001149
Al -0.003711 -1.843433 -2.732789 -0.003508 -0.005640 0.008557
Ga -0.032493 1.770345 4.969826 0.002237 0.005363 0.003320
Ga -0.027066 1.783192 -5.287295 0.003133 0.004153 0.002913
Al -0.023885 1.780915 -0.165595 0.004591 -0.001333 0.000921
Al 3.146891 -3.718978 4.977666 -0.003086 0.008037 -0.007881
Al 3.154274 -3.713537 -5.294372 0.000190 0.002249 0.003177
Ga 3.127528 -3.714431 -0.111805 -0.000189 0.003663 0.008055
Al 1.566969 -0.955971 4.964943 0.004129 -0.007890 -0.003879
Ga 1.585494 -0.951818 -5.270438 0.002079 0.001730 0.004478
Ga 1.563320 -0.951927 -0.123125 0.001290 0.004262 0.006877
Ga 3.134631 1.766561 4.954644 -0.002263 0.001691 0.003728
Al 3.129161 1.776388 -5.282287 0.001322 0.000936 0.002307
Al 3.128819 1.788524 -0.140466 -0.005191 -0.001518 0.000532
Ga 6.299347 -3.689368 4.961120 -0.002180 0.000138 0.001405
Al 6.297987 -3.696236 -5.281187 -0.000241 -0.000351 -0.000426
Ga 6.322538 -3.706400 -0.084734 -0.001067 -0.001094 -0.006210
Ga 4.750954 -0.939252 4.966459 -0.006492 -0.005242 -0.002155
Al 4.738912 -0.954138 -5.274288 -0.002358 0.000923 -0.002598
Ga 4.733863 -0.941670 -0.091802 -0.004759 -0.002462 -0.006481
Al -3.225195 1.796528 4.954927 0.014093 0.007628 0.004191
Al -3.194821 1.801548 -5.279633 -0.005921 0.002339 0.005698
Ga -3.201539 1.812593 -0.129407 -0.001443 0.001147 -0.012789
Ga -0.000066 -3.684114 4.962383 -0.000118 0.000604 0.002335
Ga -0.005723 -3.697108 -5.279323 -0.001436 -0.001992 0.000773
Al -0.011792 -3.691184 -0.178198 -0.000674 0.002373 -0.003657
Al -1.586350 -0.934395 4.973056 -0.001626 -0.006391 0.000715
Ga -1.604719 -0.933637 -5.261305 -0.003287 -0.003772 0.003013
Ga -1.578975 -0.938475 -0.126455 0.000148 -0.002105 -0.009806
N 1.550170 0.796616 4.321571 0.000199 0.015580 0.002721
N 1.589638 0.881706 -5.918545 0.001155 0.002355 -0.003033
N 1.549174 0.910359 -0.791429 0.003073 0.003237 -0.002298
N -0.081132 3.639426 4.298273 0.008923 -0.009145 0.016229
N -0.028584 3.653341 -5.895236 0.001128 -0.000724 -0.002772
N -0.029692 3.571026 -0.752383 0.002610 0.002993 0.002337
N 3.122579 -1.893596 4.370114 0.001203 -0.000365 0.006358
N 3.189895 -1.896071 -5.846064 0.001364 -0.001197 -0.001527
N 3.152616 -1.871346 -0.768198 0.003020 -0.001045 -0.000172
N -4.727868 0.907688 4.345199 -0.007497 -0.002692 -0.010921
N -4.779300 0.873309 -5.823071 0.002713 0.002428 -0.000946
N -4.824855 0.891852 -0.758710 0.002653 0.001812 -0.000269
N -6.366733 3.613790 4.320362 0.005507 -0.001716 -0.003891
N -6.400642 3.591289 -5.836924 0.001398 0.000063 0.000510
N -6.323442 3.592193 -0.738072 -0.000224 -0.000019 0.000980
N -3.131922 -1.836555 4.352719 0.002218 0.000022 -0.003098
N -3.216217 -1.884200 -5.839289 0.001948 -0.000937 -0.001392
N -3.182580 -1.863330 -0.769059 0.000717 -0.002292 0.006949
N -1.654354 0.850630 4.429077 -0.003750 0.005397 -0.011036
N -1.661151 0.905513 -5.861504 0.000596 -0.000329 -0.005826
N -1.578937 0.911133 -0.809682 -0.001926 -0.001382 0.003690
N -3.147369 3.601782 4.353391 -0.008951 -0.004496 -0.006038
N -3.147296 3.600414 -5.907753 -0.001178 -0.003305 -0.004482
N -3.230203 3.651757 -0.825979 -0.000297 -0.004678 -0.003549
N -0.014983 -1.803547 4.364941 -0.004059 -0.007797 -0.006978
N -0.010884 -1.843909 -5.881429 -0.002664 -0.004078 -0.002271
N -0.011973 -1.894403 -0.813360 -0.001912 -0.002782 0.001803
N 0.014436 1.789480 1.764392 -0.001547 0.002550 0.005530
N 0.017544 1.802191 6.952588 0.001561 0.003149 -0.004535
N -0.028230 1.724552 -3.317095 0.002437 0.003338 -0.003195
N 3.075899 -3.702214 1.917327 0.029184 -0.000672 -0.015260
N 3.150034 -3.756650 6.897132 0.003812 0.003213 -0.005629
N 3.104474 -3.734044 -3.387711 0.004227 0.004669 -0.002648
N 1.614184 -0.901290 1.907487 -0.017219 -0.021848 -0.013567
N 1.578115 -0.909014 6.881833 0.001968 0.000733 -0.007609
N 1.528146 -0.929411 -3.303359 0.001048 0.000375 -0.002964
N 3.121437 1.777703 1.805711 0.003828 0.004957 0.000584
N 3.094364 1.757028 6.929132 0.001193 0.001013 -0.007514
N 3.087855 1.759419 -3.384894 -0.003396 -0.000372 0.001427
N 6.334641 -3.722436 1.945794 -0.006525 0.017093 -0.022071
N 6.268550 -3.721900 6.930428 -0.000402 0.000858 -0.005483
N 6.311081 -3.698700 -3.394677 -0.001660 0.000389 0.003068
N 4.718970 -0.969739 1.893129 0.016449 0.004314 -0.000772
N 4.742241 -0.944388 6.919733 -0.002725 -0.001087 -0.004085
N 4.737210 -0.948857 -3.397907 -0.002380 -0.003019 0.002879
N -3.252785 1.824661 1.822717 0.001163 -0.005785 0.007687
N -3.201590 1.848819 6.857440 -0.003897 -0.003678 0.001360
N -3.157078 1.821642 -3.367584 0.001146 -0.001201 0.002673
N 0.012415 -3.663640 1.719898 -0.021626 -0.006516 0.022382
N 0.023061 -3.715546 6.932195 -0.003152 -0.000221 -0.001056
N 0.026048 -3.664034 -3.319461 -0.002923 0.003495 0.001842
N -1.575167 -1.011251 1.849860 -0.017567 0.007945 -0.004621
N -1.595947 -0.941866 6.867757 -0.003794 -0.001519 -0.001933
N -1.549582 -0.913492 -3.303635 -0.001428 -0.002206 0.001957
