108
Energy=-2496555.396404 Lattice="9.484924 0.000000 0.000000 -4.743912 8.210806 0.000000 0.000660 0.000236 15.288041" Stress="-0.000455 0.000036 0.000000 0.000036 -0.000418 -0.000002 0.000000 -0.000002 -0.000439" Properties=species:S:1:pos:R:3:forces:R:3
Al 1.564705 0.902603 2.469959 -0.001190 -0.013752 -0.008456
Al 1.564899 0.901639 7.504050 -0.001484 -0.013856 -0.003709
Ga 1.564393 0.901543 -2.749460 -0.001257 -0.017378 -0.003961
Al -0.001463 3.612828 2.475337 -0.002067 -0.000972 -0.007872
Ga -0.000942 3.613474 7.504668 -0.003069 -0.002068 -0.001580
Ga -0.002326 3.613079 -2.752947 -0.002556 -0.001255 -0.001410
Ga 3.176297 -1.884305 2.468539 -0.003478 0.001227 -0.008849
Ga 3.175687 -1.884007 7.504970 -0.003423 0.001780 -0.002094
Ga 3.174799 -1.884505 -2.749315 -0.003030 0.002120 -0.001828
Ga -4.787500 0.902178 2.469380 0.000397 -0.016050 -0.009456
Ga -4.787462 0.902265 7.505210 0.000462 -0.016137 -0.003456
Al -4.787678 0.902416 -2.750196 0.001010 -0.012583 -0.002124
Ga -6.353199 3.613385 2.474860 -0.001017 0.000066 -0.007754
Ga -6.353966 3.614171 7.505397 0.000045 -0.000426 -0.000057
Al -6.353281 3.613856 -2.753531 -0.000073 -0.000120 -0.001199
Ga -3.176300 -1.883241 2.474435 -0.000336 0.002183 -0.008870
Ga -3.176040 -1.884235 7.505554 -0.000383 0.003435 -0.000782
Ga -3.176126 -1.883756 -2.752803 -0.000108 0.002998 -0.001748
Ga -1.653247 0.903342 2.469899 0.015941 -0.008669 -0.012020
Ga -1.653885 0.902758 7.504852 0.015944 -0.008802 -0.006974
Ga -1.655205 0.902117 -2.749034 0.015496 -0.009041 -0.005939
Ga -3.220314 3.614816 2.469119 0.014785 0.007813 -0.009495
Ga -3.220849 3.614807 7.505384 0.014584 0.007576 -0.003192
Ga -3.222382 3.614373 -2.749064 0.013941 0.007492 -0.002690
Ga -0.043339 -1.883177 2.469030 0.014566 0.010275 -0.010684
Ga -0.043157 -1.883094 7.505120 0.014609 0.010473 -0.004396
Al -0.044340 -1.884098 -2.750102 0.011631 0.007735 -0.002950
Al -0.000959 1.805100 4.987844 -0.011551 -0.007849 -0.003966
Ga -0.001398 1.805212 -5.267576 -0.014111 -0.010331 -0.004511
Ga -0.001014 1.806467 -0.229516 -0.014301 -0.010275 0.035714
Ga 3.176134 -3.693365 4.988443 -0.014271 -0.007844 -0.004038
Ga 3.175834 -3.693040 -5.266804 -0.014168 -0.007757 -0.003037
Ga 3.177004 -3.693232 -0.229201 -0.014232 -0.007768 0.036877
Ga 1.609591 -0.980144 4.987918 -0.015701 0.008993 -0.006956
Ga 1.608841 -0.981189 -5.266536 -0.015354 0.009346 -0.006178
Ga 1.608819 -0.981420 -0.227388 -0.015751 0.009119 0.032521
Ga 3.130909 1.805429 4.988780 0.000015 -0.003314 -0.001649
Ga 3.130575 1.805807 -5.267139 -0.000199 -0.003028 -0.000631
Ga 3.130352 1.806977 -0.232067 0.000441 -0.003224 0.038517
Ga 6.308785 -3.692933 4.989405 -0.000170 -0.000505 -0.001783
Al 6.308503 -3.693026 -5.267776 0.000072 -0.000116 -0.000043
Al 6.307984 -3.693231 -0.250049 0.000260 -0.000395 0.034412
Ga 4.742310 -0.980129 4.989042 -0.000789 0.016421 -0.003565
Ga 4.741677 -0.980748 -5.266442 -0.000432 0.015790 -0.002851
Ga 4.742370 -0.981741 -0.230149 -0.000614 0.016349 0.036443
Ga -3.220037 1.806590 4.987970 0.003167 -0.002187 -0.002508
Ga -3.221385 1.806016 -5.266537 0.003363 -0.001762 -0.001472
Ga -3.221636 1.805883 -0.229168 0.003260 -0.002014 0.037367
Ga -0.042584 -3.691954 4.988783 0.002867 0.001184 -0.001469
Ga -0.044265 -3.691909 -5.266474 0.002623 0.000879 -0.000124
Ga -0.045722 -3.692123 -0.231885 0.002862 0.001402 0.038144
Ga -1.608962 -0.979301 4.988957 0.001790 0.017871 -0.004665
Ga -1.609785 -0.980633 -5.266597 0.001181 0.017662 -0.003607
Ga -1.610664 -0.981934 -0.230344 0.002011 0.017679 0.035227
N 1.563510 0.902809 4.389139 -0.019017 -0.006537 -0.010221
N 1.564271 0.901492 -5.866134 -0.000934 -0.016922 -0.018033
N 1.564200 0.901645 -0.828813 -0.001339 -0.016996 0.006731
N -0.002035 3.611681 4.391874 -0.002134 -0.020644 -0.013834
N -0.000607 3.614342 -5.864067 0.015703 0.010792 0.007659
N -0.001395 3.614038 -0.834541 0.015284 0.010339 0.010826
N 3.176039 -1.884367 4.389890 -0.003002 0.001605 0.000070
N 3.175090 -1.884657 -5.863976 -0.002800 0.001771 -0.000168
N 3.175170 -1.884907 -0.828182 -0.002812 0.001612 0.002810
N -4.787012 0.902308 4.390325 0.000585 -0.016431 0.004533
N -4.787798 0.902110 -5.864267 0.000461 -0.016861 0.004885
N -4.787956 0.901985 -0.830988 0.000319 -0.016574 -0.014871
N -6.352612 3.613845 4.393064 -0.000146 0.000607 0.001535
N -6.355538 3.614988 -5.863731 -0.018418 0.010998 0.008458
N -6.355206 3.614596 -0.837347 -0.018442 0.010494 -0.010765
N -3.176042 -1.883013 4.392799 -0.000748 0.002066 0.000998
N -3.176645 -1.885992 -5.863292 -0.001164 -0.018738 0.007837
N -3.176844 -1.885569 -0.834521 -0.001458 -0.018489 0.011174
N -1.652675 0.903791 4.390826 0.030578 -0.000941 0.013914
N -1.654924 0.902486 -5.864329 0.015761 -0.009217 0.008094
N -1.654876 0.902261 -0.828412 0.016099 -0.008985 0.010714
N -3.220714 3.614791 4.390048 0.014602 0.008154 0.004152
N -3.221645 3.614622 -5.863787 0.014636 0.008189 0.004702
N -3.221699 3.614751 -0.828412 0.015002 0.008172 0.007311
N -0.043363 -1.883489 4.390106 0.014115 0.009393 0.003893
N -0.043976 -1.883837 -5.864226 0.014308 0.009589 0.004193
N -0.044334 -1.884026 -0.831025 0.014012 0.009608 -0.015481
N 0.001330 1.807382 1.873084 0.003416 0.000602 -0.017129
N 0.000558 1.804525 6.906159 0.003940 -0.019584 -0.010849
N -0.001885 1.804765 -3.348420 -0.014387 -0.009944 0.003830
N 3.179081 -3.694342 1.872076 0.002937 -0.018434 -0.024126
N 3.176213 -3.692942 6.907695 -0.014544 -0.007739 0.004557
N 3.175133 -3.693232 -3.348018 -0.015098 -0.008086 0.004562
N 1.609794 -0.978344 1.869865 -0.016114 0.026261 -0.021604
N 1.609823 -0.978868 6.907651 -0.015967 0.025931 0.013594
N 1.607469 -0.981971 -3.346897 -0.031123 0.000733 0.013512
N 3.129405 1.805554 1.872624 -0.016465 -0.012559 -0.029186
N 3.129884 1.804909 6.908317 -0.016796 -0.012170 0.007994
N 3.132299 1.806137 -3.347471 0.018986 0.008647 0.015279
N 6.307312 -3.693770 1.888615 -0.017754 -0.010562 -0.045074
N 6.308874 -3.692590 6.907996 0.000596 0.000065 0.000913
N 6.309635 -3.693693 -3.351076 0.018608 -0.010874 -0.013496
N 4.743051 -0.980810 1.870579 -0.000444 0.017242 -0.032106
N 4.742357 -0.980368 6.908111 -0.000330 0.016567 0.004486
N 4.741529 -0.978690 -3.347515 -0.000841 0.033705 0.010675
N -3.220256 1.806434 1.869891 0.002638 -0.002109 -0.036102
N -3.220525 1.806469 6.907498 0.002610 -0.001872 0.000120
N -3.222618 1.805272 -3.346760 -0.014802 -0.011755 0.007249
N -0.043738 -3.692295 1.870888 0.002256 -0.000191 -0.035963
N -0.043013 -3.691961 6.908001 0.001945 0.000135 0.000553
N -0.044988 -3.691519 -3.347052 -0.015750 0.010629 0.015257
N -1.609881 -0.980286 1.870963 0.000878 0.017433 -0.032065
N -1.609382 -0.979912 6.908005 0.000987 0.016715 0.004127
N -1.608434 -0.980829 -3.347542 0.019359 0.006770 0.011253
