108
Energy=-1.764153e+06 Lattice="9.558576e+00 0.000000e+00 0.000000e+00 -4.785339e+00 8.274742e+00 0.000000e+00 -2.818667e-03 -2.669900e-03 1.546024e+01" Stress="4.664863e-04 -2.476657e-04 -1.001700e-06 -2.509480e-04 1.166217e-04 -1.597674e-04 -3.409488e-06 -1.625286e-04 8.099020e-04" Properties=species:S:1:pos:R:3:forces:R:3 Config_type=AlGaN_super3_29_2_19.xyz
Al 1.576270e+00 8.787673e-01 2.433286e+00 4.910664e-05 -5.537329e-05 -1.358401e-05
Al 1.577243e+00 8.895152e-01 7.568268e+00 2.110097e-05 -2.510973e-04 -1.645293e-04
Al 1.564829e+00 8.860480e-01 -2.728887e+00 3.051497e-04 3.711890e-05 5.163895e-04
Al -2.563677e-02 3.631227e+00 2.449871e+00 1.455389e-04 2.587520e-04 1.737110e-04
Al -7.222550e-03 3.632612e+00 7.576234e+00 7.540157e-05 3.698278e-04 9.807925e-05
Al -2.244537e-02 3.623021e+00 -2.749086e+00 -2.130187e-05 1.279589e-06 5.614355e-04
Al 3.145379e+00 -1.881519e+00 2.429227e+00 7.116247e-05 -2.346546e-05 3.333225e-04
Al 3.160228e+00 -1.874635e+00 7.583019e+00 -6.705533e-05 -2.631879e-05 3.562579e-04
Ga 3.154890e+00 -1.886403e+00 -2.723925e+00 9.036843e-05 -2.191964e-05 3.272177e-04
Ga -4.819428e+00 9.012743e-01 2.450695e+00 3.856208e-04 -2.991245e-04 -1.160561e-04
Ga -4.830904e+00 8.886815e-01 7.570984e+00 3.318600e-04 2.446071e-05 9.933035e-05
Ga -4.826480e+00 8.872938e-01 -2.729710e+00 1.764074e-04 -9.803915e-05 2.636829e-04
Al -6.405761e+00 3.621421e+00 2.447612e+00 -7.785622e-04 3.829549e-04 4.720088e-04
Al -6.417480e+00 3.627215e+00 7.564158e+00 -2.973432e-04 1.015255e-05 6.610294e-04
Ga -6.405905e+00 3.626638e+00 -2.737303e+00 -2.473612e-05 -6.097659e-05 1.276672e-04
Ga -3.211515e+00 -1.896715e+00 2.456150e+00 1.675782e-04 -4.503990e-05 3.109623e-05
Ga -3.221981e+00 -1.906865e+00 7.587523e+00 4.631619e-05 -1.080728e-04 -6.901571e-05
Ga -3.209285e+00 -1.893586e+00 -2.744252e+00 -1.102072e-04 2.793339e-06 8.320368e-05
Al -1.610819e+00 9.005578e-01 2.444621e+00 1.331139e-04 -1.762228e-04 -8.034017e-05
Ga -1.605635e+00 9.005326e-01 7.588825e+00 2.410859e-04 -2.264486e-04 3.706523e-04
Ga -1.595684e+00 8.971189e-01 -2.733124e+00 4.882617e-04 -2.582990e-04 -2.560151e-04
Al -3.206957e+00 3.637267e+00 2.461750e+00 9.331905e-05 3.937637e-05 -2.230839e-04
Ga -3.217352e+00 3.645336e+00 7.553478e+00 3.954870e-05 1.278462e-05 4.880874e-04
Al -3.206939e+00 3.650659e+00 -2.722686e+00 4.571471e-05 -1.699314e-04 1.749562e-04
Ga 4.886813e-03 -1.875532e+00 2.449578e+00 2.269850e-04 5.165100e-05 5.950661e-04
Ga -1.838219e-03 -1.883942e+00 7.551388e+00 5.056017e-05 -2.087127e-04 3.042446e-06
Al -4.559276e-03 -1.875706e+00 -2.707469e+00 8.826857e-05 -1.429332e-04 2.563416e-04
Ga -7.235452e-03 1.797771e+00 4.989824e+00 -3.254578e-04 3.512793e-04 6.564171e-04
Al 9.348030e-03 1.813277e+00 -5.312942e+00 -2.383443e-04 1.711737e-04 1.393296e-04
Ga -1.226044e-04 1.794597e+00 -1.248753e-01 -1.480113e-05 1.808665e-04 1.434803e-04
Ga 3.163172e+00 -3.710955e+00 4.999253e+00 2.560320e-04 2.884418e-04 2.924621e-04
Ga 3.193166e+00 -3.721638e+00 -5.314216e+00 -1.224408e-04 2.912067e-04 2.383146e-04
Ga 3.165767e+00 -3.723128e+00 -1.272885e-01 -1.252279e-05 2.830140e-04 -2.076590e-04
Al 1.587375e+00 -9.500407e-01 5.008020e+00 3.454131e-05 -2.463800e-04 8.508209e-05
Ga 1.585765e+00 -9.335029e-01 -5.304139e+00 -5.174148e-04 8.230745e-05 5.096408e-04
Al 1.577452e+00 -9.437110e-01 -1.496183e-01 -4.444540e-04 3.519986e-04 2.700220e-04
Al 3.149498e+00 1.811544e+00 5.000913e+00 3.902716e-04 9.087410e-04 1.808915e-03
Al 3.140449e+00 1.800404e+00 -5.327711e+00 -2.743344e-05 7.573007e-04 9.144972e-05
Al 3.142443e+00 1.791405e+00 -1.318011e-01 -1.121732e-04 -7.549464e-05 7.601509e-04
Al 6.365597e+00 -3.740957e+00 5.012054e+00 2.062906e-04 3.135288e-05 -1.932396e-04
Al 6.347058e+00 -3.736746e+00 -5.321407e+00 2.901634e-04 -1.374844e-05 -3.922866e-05
Ga 6.349733e+00 -3.737905e+00 -1.335614e-01 2.927416e-04 3.385915e-05 4.816468e-04
Ga 4.738991e+00 -9.550827e-01 5.008033e+00 3.233545e-05 -1.962340e-04 2.146685e-05
Al 4.751539e+00 -9.594521e-01 -5.318933e+00 -6.898653e-05 8.461939e-05 -1.292492e-05
Ga 4.743309e+00 -9.535088e-01 -1.220281e-01 -2.280600e-04 -8.707559e-06 -7.464936e-05
Al -3.220583e+00 1.810167e+00 4.991265e+00 1.228792e-04 -2.294732e-04 2.097291e-04
Ga -3.221496e+00 1.799314e+00 -5.293145e+00 -2.680105e-04 -1.440257e-04 2.747548e-04
Ga -3.219857e+00 1.810877e+00 -1.294755e-01 3.002239e-06 -1.385914e-04 -3.197819e-04
Al -3.271543e-02 -3.742350e+00 4.989221e+00 -1.362311e-03 2.317359e-03 3.070982e-04
Ga -3.636910e-02 -3.721772e+00 -5.296341e+00 -2.023752e-04 -2.119792e-04 2.221692e-04
Ga -1.718436e-02 -3.721041e+00 -1.334828e-01 -1.278284e-04 1.275564e-04 -1.679262e-04
Ga -1.609780e+00 -9.566786e-01 5.005493e+00 -2.668490e-04 1.046814e-05 4.099779e-05
Ga -1.613732e+00 -9.610315e-01 -5.296518e+00 -4.925122e-04 -2.550600e-07 -8.588298e-05
Ga -1.599236e+00 -9.586886e-01 -1.334655e-01 -2.645602e-04 -7.671784e-05 -8.317569e-05
N 1.617823e+00 8.518782e-01 4.358011e+00 -5.212793e-04 -3.700863e-04 -4.866514e-04
N 1.570968e+00 9.260531e-01 -5.970100e+00 -2.204971e-04 -8.140495e-06 3.221885e-05
N 1.609166e+00 8.604201e-01 -7.916953e-01 5.242199e-04 -9.371927e-05 -7.288489e-04
N 1.570835e-02 3.663821e+00 4.357804e+00 -1.096176e-04 -1.653392e-04 -3.371646e-04
N 2.069820e-02 3.612532e+00 -5.961207e+00 -4.885815e-06 -1.750583e-04 -1.063287e-04
N -2.649089e-02 3.630685e+00 -8.267538e-01 -1.731539e-04 -7.586065e-05 8.128985e-05
N 3.117361e+00 -1.854474e+00 4.340574e+00 -2.468202e-04 1.423834e-05 -2.233788e-04
N 3.200138e+00 -1.855569e+00 -5.958825e+00 2.161287e-05 1.117595e-05 -3.331414e-04
N 3.125858e+00 -1.861182e+00 -7.462369e-01 -8.319793e-05 -3.388685e-05 -1.363047e-04
N -4.815023e+00 9.343706e-01 4.430170e+00 3.240910e-04 -2.295945e-04 -2.862119e-04
N -4.850967e+00 8.634659e-01 -5.901083e+00 7.420828e-04 -3.600743e-04 -3.402382e-04
N -4.852891e+00 9.050893e-01 -7.421446e-01 2.035048e-04 2.547952e-04 -2.064379e-04
N -6.404503e+00 3.631459e+00 4.376480e+00 6.425328e-05 -8.569042e-05 -2.878143e-04
N -6.437200e+00 3.616168e+00 -5.958102e+00 -1.243737e-05 -8.342282e-05 -2.196903e-04
N -6.399034e+00 3.585299e+00 -7.564035e-01 1.596164e-04 -1.445529e-04 -4.243804e-04
N -3.210572e+00 -1.931768e+00 4.424697e+00 1.783610e-05 -1.418226e-04 -1.050115e-04
N -3.246535e+00 -1.907635e+00 -5.887492e+00 -1.436721e-04 2.748525e-06 3.943993e-06
N -3.210269e+00 -1.883233e+00 -7.639475e-01 -4.653977e-05 1.797885e-04 1.916694e-04
N -1.658077e+00 9.091076e-01 4.356121e+00 2.150809e-04 6.542912e-05 -2.870200e-04
N -1.573618e+00 9.140724e-01 -5.892670e+00 5.677365e-04 -1.325617e-04 -2.157931e-05
N -1.613072e+00 8.885610e-01 -7.618509e-01 3.410050e-04 -4.613211e-05 2.883462e-04
N -3.254426e+00 3.620287e+00 4.380747e+00 1.086386e-03 -9.126398e-04 -6.343183e-04
N -3.215222e+00 3.643542e+00 -5.938820e+00 2.093730e-04 -1.709340e-04 -2.699949e-04
N -3.210665e+00 3.642944e+00 -8.138314e-01 9.280488e-05 -1.245248e-04 2.062689e-04
N 3.143474e-02 -1.899347e+00 4.434480e+00 -1.717585e-04 -1.193857e-03 -1.247466e-04
N -1.102595e-02 -1.877157e+00 -5.940281e+00 3.612430e-04 -2.050168e-04 -3.359380e-04
N 2.426429e-02 -1.856016e+00 -7.834558e-01 4.391225e-04 -2.616432e-04 6.804885e-05
N -1.590858e-02 1.798566e+00 1.872119e+00 -3.772235e-04 1.563992e-04 -1.532178e-04
N 2.095337e-02 1.821331e+00 6.973889e+00 -3.150067e-04 4.340808e-05 -2.468896e-04
N 2.949731e-02 1.821432e+00 -3.381701e+00 -5.796366e-05 2.011606e-04 -3.448727e-04
N 3.166086e+00 -3.724839e+00 1.871698e+00 -2.004170e-04 -3.744910e-05 1.834208e-04
N 3.213969e+00 -3.692263e+00 6.988955e+00 -1.019673e-05 -6.841341e-06 -3.584023e-04
N 3.171685e+00 -3.767559e+00 -3.326919e+00 2.554629e-05 1.073635e-04 -2.559858e-04
N 1.611862e+00 -9.290407e-01 1.777633e+00 -8.503124e-05 1.394438e-04 -3.608358e-04
N 1.623346e+00 -9.287151e-01 6.934295e+00 8.470778e-06 2.399582e-04 1.793220e-04
N 1.534307e+00 -9.307008e-01 -3.318226e+00 -4.498204e-04 3.238852e-04 -3.861901e-04
N 3.113255e+00 1.825239e+00 1.794657e+00 -6.151684e-05 -4.703726e-04 -6.029273e-04
N 3.111536e+00 1.828115e+00 6.929310e+00 1.286370e-04 -3.495892e-04 -1.127775e-03
N 3.111219e+00 1.773937e+00 -3.408187e+00 -1.416315e-04 1.618915e-05 8.736359e-05
N 6.350549e+00 -3.772312e+00 1.846344e+00 1.611903e-04 -2.871383e-04 -4.921041e-04
N 6.351792e+00 -3.771791e+00 6.933329e+00 8.385376e-05 -1.480802e-04 1.905369e-04
N 6.311905e+00 -3.749387e+00 -3.401228e+00 -6.178995e-05 -9.480485e-05 -2.677193e-04
N 4.717558e+00 -9.794275e-01 1.851371e+00 -2.608661e-04 2.008186e-04 -5.261168e-05
N 4.714314e+00 -9.829994e-01 6.978277e+00 -3.014002e-04 -4.563877e-05 -2.149083e-04
N 4.752930e+00 -9.590386e-01 -3.404317e+00 -3.048311e-04 3.517676e-05 -1.861063e-04
N -3.172134e+00 1.827996e+00 1.851985e+00 2.732569e-05 3.227996e-04 2.435227e-04
N -3.211976e+00 1.795626e+00 6.903038e+00 4.771021e-06 -1.134196e-05 -4.990461e-04
N -3.216959e+00 1.847969e+00 -3.322067e+00 7.986113e-06 9.893747e-05 1.679892e-04
N -2.102784e-02 -3.768134e+00 1.857924e+00 3.059138e-04 1.673962e-05 -1.769827e-04
N -7.392575e-02 -3.749120e+00 6.908925e+00 1.978188e-04 -1.685247e-04 -5.894415e-04
N 1.634479e-02 -3.691293e+00 -3.308758e+00 1.944535e-04 1.842972e-04 -6.231863e-05
N -1.609376e+00 -9.139572e-01 1.848226e+00 -1.796999e-04 1.586114e-04 -9.310382e-05
N -1.619748e+00 -9.540333e-01 6.971390e+00 -3.018708e-04 -6.313569e-06 -1.150436e-04
N -1.566448e+00 -9.838671e-01 -3.321534e+00 -1.777959e-04 -8.182694e-05 1.191286e-04
