108
Energy=-2.862766e+06 Lattice="9.699553e+00 0.000000e+00 0.000000e+00 -4.849058e+00 8.398416e+00 0.000000e+00 -1.831412e-03 -6.820381e-04 1.575794e+01" Stress="-4.128645e-07 4.886837e-06 -8.008716e-05 4.837833e-06 3.267323e-06 -4.425043e-05 -6.503317e-05 -3.136971e-05 1.406974e-05" Properties=species:S:1:pos:R:3:forces:R:3 Config_type=AlGaN_super3_53_0_12.xyz
Al 1.593143e+00 8.924006e-01 2.478412e+00 -9.038911e-06 -1.788085e-05 2.041847e-05
Ga 1.592566e+00 8.926450e-01 7.730722e+00 2.157532e-05 1.780403e-05 1.235420e-05
Ga 1.593772e+00 8.929876e-01 -2.770990e+00 4.906031e-05 4.971278e-05 2.106019e-05
Ga -1.907756e-02 3.684044e+00 2.479033e+00 4.139151e-06 -1.247433e-05 2.933665e-05
Ga -2.330260e-02 3.690632e+00 7.728524e+00 1.588920e-05 7.246004e-06 2.246207e-05
Ga -2.263678e-02 3.690708e+00 -2.768923e+00 4.556676e-05 3.319720e-05 3.231719e-05
Ga 3.204762e+00 -1.899048e+00 2.479239e+00 4.475550e-06 1.008393e-05 1.269026e-05
Ga 3.207833e+00 -1.905695e+00 7.728598e+00 1.591066e-05 1.593096e-05 2.287198e-05
Ga 3.208860e+00 -1.905553e+00 -2.769001e+00 3.839605e-05 3.827452e-05 1.885959e-05
Ga -4.882711e+00 8.925446e-01 2.479375e+00 3.204957e-05 1.531245e-06 2.362581e-05
Ga -4.875539e+00 8.931747e-01 7.728600e+00 2.656260e-05 1.592953e-05 3.101131e-05
Ga -4.874052e+00 8.940345e-01 -2.768930e+00 5.009568e-05 3.901341e-05 2.544322e-05
Ga -6.494497e+00 3.683984e+00 2.479283e+00 3.472521e-05 1.204693e-05 1.229624e-05
Ga -6.490608e+00 3.690667e+00 7.728607e+00 2.695261e-05 1.049728e-05 2.590260e-05
Ga -6.488958e+00 3.690744e+00 -2.768972e+00 4.745427e-05 3.567466e-05 3.347198e-05
Ga -3.257111e+00 -1.907091e+00 2.480671e+00 1.215078e-05 3.393594e-06 2.151620e-05
Ga -3.257351e+00 -1.906792e+00 7.732864e+00 1.897335e-05 1.691200e-05 2.819332e-05
Ga -3.256149e+00 -1.906543e+00 -2.773937e+00 3.961075e-05 3.761200e-05 2.589974e-05
Ga -1.630913e+00 8.928128e-01 2.479191e+00 1.598749e-05 -1.678096e-05 3.157636e-05
Ga -1.639098e+00 8.932154e-01 7.728690e+00 2.130944e-05 8.861300e-06 1.393785e-05
Ga -1.637984e+00 8.939742e-01 -2.768882e+00 4.206952e-05 3.372564e-05 1.085157e-05
Ga -3.257021e+00 3.692010e+00 2.481262e+00 3.111626e-05 1.040716e-05 2.356792e-05
Ga -3.257055e+00 3.692161e+00 7.732727e+00 1.676990e-05 4.270854e-06 3.196673e-05
Ga -3.255741e+00 3.692578e+00 -2.772264e+00 4.264450e-05 2.405955e-05 2.580702e-05
Ga -1.927627e-02 -1.898994e+00 2.479042e+00 4.278887e-07 1.559398e-05 4.008051e-05
Ga -2.309545e-02 -1.905604e+00 7.728639e+00 1.450194e-05 6.567033e-06 2.929423e-05
Ga -2.144665e-02 -1.905633e+00 -2.768888e+00 3.816307e-05 3.464923e-05 2.229607e-05
Ga -1.663529e-02 1.821826e+00 5.092628e+00 6.022279e-05 2.829001e-05 1.489812e-05
Ga -2.238623e-02 1.826819e+00 -5.399094e+00 4.322860e-05 1.126457e-05 6.810825e-06
Ga -1.755834e-02 1.823576e+00 -1.332544e-01 2.283089e-05 -7.791800e-06 2.327391e-05
Ga 3.208788e+00 -3.773020e+00 5.104767e+00 6.582118e-05 4.975226e-05 2.574525e-05
Ga 3.211077e+00 -3.771950e+00 -5.399026e+00 4.224155e-05 2.434428e-05 2.506373e-05
Ga 3.209816e+00 -3.772749e+00 -1.445135e-01 3.541563e-05 1.677106e-05 4.372540e-05
Ga 1.592427e+00 -9.652753e-01 5.092810e+00 6.392123e-05 4.598154e-05 2.777795e-05
Ga 1.594093e+00 -9.729596e-01 -5.399104e+00 3.770495e-05 1.582246e-05 3.057256e-05
Ga 1.594038e+00 -9.672099e-01 -1.333885e-01 2.304283e-05 1.631685e-05 3.878120e-05
Ga 3.201770e+00 1.821746e+00 5.092757e+00 6.524478e-05 4.149071e-05 1.010532e-05
Ga 3.210834e+00 1.826771e+00 -5.399170e+00 4.674836e-05 1.114685e-05 1.775936e-05
Ga 3.205419e+00 1.823548e+00 -1.334201e-01 3.913221e-05 1.176875e-05 2.779021e-05
Ga 6.441869e+00 -3.772735e+00 5.104798e+00 6.673147e-05 4.124493e-05 2.642515e-05
Ga 6.443501e+00 -3.773513e+00 -5.399292e+00 4.615749e-05 2.127193e-05 2.357133e-05
Ga 6.443390e+00 -3.771941e+00 -1.447145e-01 2.316347e-05 7.936369e-06 2.388868e-05
Ga 4.825872e+00 -9.738172e-01 5.104918e+00 5.608776e-05 3.723531e-05 2.814427e-05
Ga 4.826134e+00 -9.723099e-01 -5.399227e+00 3.984235e-05 1.331307e-05 3.427748e-05
Ga 4.827433e+00 -9.732226e-01 -1.449531e-01 1.963770e-05 -2.836317e-06 5.193749e-05
Ga -3.257245e+00 1.825969e+00 5.104739e+00 6.392485e-05 3.807623e-05 1.602187e-05
Ga -3.255671e+00 1.825933e+00 -5.399035e+00 5.636127e-05 1.039922e-05 1.841748e-05
Ga -3.255965e+00 1.827078e+00 -1.444915e-01 3.236664e-05 9.766190e-06 5.274503e-05
Ga -2.457130e-02 -3.773019e+00 5.104805e+00 6.728057e-05 4.020827e-05 2.158217e-05
Ga -2.356284e-02 -3.771954e+00 -5.399028e+00 5.114478e-05 2.134496e-05 2.561097e-05
Ga -2.271379e-02 -3.772564e+00 -1.446503e-01 4.445371e-05 1.897356e-05 4.423931e-05
Ga -1.640986e+00 -9.736989e-01 5.104867e+00 5.418927e-05 3.906117e-05 2.152461e-05
Ga -1.638157e+00 -9.723009e-01 -5.399166e+00 4.556251e-05 1.472721e-05 2.940584e-05
Ga -1.639653e+00 -9.729143e-01 -1.448325e-01 3.238531e-05 -2.306410e-06 5.628612e-05
N 1.592860e+00 8.927793e-01 4.403493e+00 -6.625489e-05 -5.349768e-05 -2.286891e-05
N 1.594394e+00 8.938672e-01 -6.042856e+00 -4.505449e-05 -2.860001e-05 -1.398759e-05
N 1.593917e+00 8.934508e-01 -7.892352e-01 -3.005720e-05 -1.522532e-05 -2.310033e-05
N -2.333129e-02 3.692666e+00 4.462568e+00 -7.214149e-05 -4.203200e-05 -1.636546e-05
N -2.197945e-02 3.692634e+00 -6.043801e+00 -5.107502e-05 -2.802766e-05 -1.024463e-05
N -2.241662e-02 3.689923e+00 -7.826401e-01 -3.304067e-05 -6.002292e-06 -9.208273e-06
N 3.209337e+00 -1.906185e+00 4.462683e+00 -6.504788e-05 -5.046777e-05 -2.240031e-05
N 3.210203e+00 -1.905429e+00 -6.043573e+00 -4.677168e-05 -2.771546e-05 -3.494234e-05
N 3.207735e+00 -1.904383e+00 -7.827158e-01 -2.413648e-05 -1.256679e-05 -3.708991e-05
N -4.873733e+00 8.930777e-01 4.462628e+00 -5.356914e-05 -4.587429e-05 -1.924550e-05
N -4.872583e+00 8.942320e-01 -6.043628e+00 -4.972610e-05 -2.345063e-05 -2.431995e-05
N -4.874899e+00 8.953998e-01 -7.827011e-01 -3.375033e-05 -5.443766e-06 -2.915685e-05
N -6.490100e+00 3.692580e+00 4.462586e+00 -6.767347e-05 -4.518939e-05 -1.477494e-05
N -6.488286e+00 3.692630e+00 -6.043702e+00 -5.404051e-05 -2.908520e-05 -2.286210e-05
N -6.488454e+00 3.689920e+00 -7.827408e-01 -4.323002e-05 -2.291805e-05 -3.012995e-05
N -3.257091e+00 -1.906320e+00 4.463420e+00 -5.683465e-05 -3.814270e-05 -2.051082e-05
N -3.255606e+00 -1.905687e+00 -6.040127e+00 -4.868916e-05 -2.575942e-05 -3.164561e-05
N -3.255784e+00 -1.905732e+00 -7.896604e-01 -2.480010e-05 -7.168048e-06 -3.015893e-05
N -1.640289e+00 8.932152e-01 4.462444e+00 -4.300527e-05 -5.216812e-05 -2.868416e-05
N -1.638299e+00 8.942389e-01 -6.043704e+00 -4.330668e-05 -2.515611e-05 -2.293177e-05
N -1.636548e+00 8.955371e-01 -7.824818e-01 -1.800751e-05 -1.191403e-05 -4.779613e-05
N -3.256811e+00 3.692674e+00 4.463910e+00 -5.969494e-05 -5.269542e-05 -1.569114e-05
N -3.255208e+00 3.693259e+00 -6.040356e+00 -4.973092e-05 -2.876177e-05 -2.444678e-05
N -3.255520e+00 3.693120e+00 -7.879850e-01 -3.619873e-05 -1.766708e-05 -2.463595e-05
N -2.413571e-02 -1.906264e+00 4.462543e+00 -5.104952e-05 -4.034817e-05 -3.216252e-05
N -2.186491e-02 -1.905427e+00 -6.043669e+00 -4.372158e-05 -2.711075e-05 -2.744423e-05
N -1.988444e-02 -1.904330e+00 -7.826390e-01 -3.106460e-05 -2.272427e-05 -3.119232e-05
N 2.052034e-02 1.800241e+00 1.857795e+00 1.025913e-05 4.953517e-05 -3.262552e-05
N -2.073630e-02 1.823862e+00 7.080025e+00 -1.673912e-05 2.429616e-06 -1.093264e-05
N -2.223850e-02 1.826049e+00 -3.414743e+00 -4.008001e-05 -2.385567e-05 -1.424154e-05
N 3.209927e+00 -3.773031e+00 1.839619e+00 -1.939436e-05 -1.166976e-06 -2.968111e-05
N 3.208716e+00 -3.773359e+00 7.089172e+00 -1.371372e-05 2.778103e-07 -2.745787e-05
N 3.211168e+00 -3.772350e+00 -3.413122e+00 -4.278214e-05 -2.516351e-05 -2.072466e-05
N 1.592944e+00 -9.234619e-01 1.857772e+00 -5.613228e-06 -4.606210e-06 -2.321963e-05
N 1.592588e+00 -9.702995e-01 7.080201e+00 -2.213938e-05 7.468868e-07 -2.272288e-05
N 1.594033e+00 -9.732252e-01 -3.414725e+00 -4.592461e-05 -2.683643e-05 -2.195908e-05
N 3.165875e+00 1.800116e+00 1.857525e+00 -3.960053e-05 -7.796524e-06 -2.332170e-05
N 3.206140e+00 1.823919e+00 7.080136e+00 -2.359861e-05 -8.732383e-06 -1.948363e-05
N 3.210592e+00 1.826117e+00 -3.414770e+00 -4.786063e-05 -3.771212e-05 -1.760205e-05
N 6.442225e+00 -3.773348e+00 1.837449e+00 -1.587127e-05 -2.512029e-06 -3.068316e-05
N 6.442009e+00 -3.772915e+00 7.089010e+00 -1.731479e-05 -3.987548e-06 -2.301250e-05
N 6.443396e+00 -3.774211e+00 -3.413465e+00 -3.804276e-05 -3.045981e-05 -1.584633e-05
N 4.826299e+00 -9.744004e-01 1.837380e+00 -1.650221e-05 -9.686353e-07 -4.231369e-05
N 4.825966e+00 -9.740512e-01 7.089166e+00 -2.081736e-05 -5.166764e-06 -2.906182e-05
N 4.825926e+00 -9.726487e-01 -3.413334e+00 -4.105522e-05 -2.883930e-05 -2.247820e-05
N -3.256761e+00 1.824205e+00 1.839688e+00 -3.002606e-05 6.602752e-06 -5.676401e-05
N -3.257053e+00 1.825803e+00 7.088988e+00 -1.931977e-05 1.477851e-06 -2.642340e-05
N -3.255606e+00 1.825148e+00 -3.413092e+00 -4.070903e-05 -2.804639e-05 -3.014479e-05
N -2.512955e-02 -3.772995e+00 1.839605e+00 -2.507576e-05 -7.665120e-06 -4.991915e-05
N -2.426653e-02 -3.773469e+00 7.089115e+00 -1.304781e-05 5.364967e-06 -3.040318e-05
N -2.378354e-02 -3.772370e+00 -3.413064e+00 -4.076715e-05 -2.646905e-05 -2.779570e-05
N -1.640585e+00 -9.742568e-01 1.837474e+00 -1.676059e-05 1.957007e-06 -3.769209e-05
N -1.640943e+00 -9.740262e-01 7.089048e+00 -1.802577e-05 1.599756e-07 -2.810962e-05
N -1.637954e+00 -9.726846e-01 -3.413276e+00 -4.018728e-05 -2.228725e-05 -3.287354e-05
