108
Energy=-985969.869943 Lattice="9.467621 0.000000 0.000000 -4.741044 8.191731 0.000000 -0.002491 -0.006927 15.268157" Stress="0.000015 0.000005 -0.000001 0.000005 0.000007 -0.000002 -0.000001 -0.000002 0.000039" Properties=species:S:1:pos:R:3:forces:R:3
Al 1.557289 0.869397 2.373460 -0.001797 -0.000738 0.004599
Al 1.546437 0.867597 7.504183 0.000392 -0.000434 0.000979
Al 1.552862 0.863751 -2.715834 0.000576 -0.000491 0.000989
Al -0.007935 3.590747 2.450430 -0.001838 0.005754 -0.002132
Al -0.012377 3.592749 7.479912 0.000715 -0.000051 0.000459
Al -0.030232 3.587655 -2.711654 0.000576 0.000048 -0.001174
Al 3.139990 -1.850362 2.403195 0.001374 -0.002944 -0.005650
Al 3.143003 -1.859334 7.501823 0.000138 -0.001180 0.000272
Al 3.136457 -1.850027 -2.709268 -0.000260 0.000513 0.001037
Al -4.793854 0.869363 2.384015 0.009089 0.000086 -0.001887
Al -4.764393 0.864109 7.506336 0.000516 -0.000001 0.001475
Al -4.769610 0.872461 -2.707012 0.000597 -0.000514 0.000872
Al -6.345352 3.603075 2.390291 0.005352 0.004285 0.000740
Al -6.346442 3.604781 7.498244 -0.000089 -0.000228 0.001004
Ga -6.331299 3.594867 -2.703322 -0.000378 -0.000543 0.002075
Al -3.170150 -1.856296 2.408157 -0.000201 0.000186 0.000487
Al -3.170011 -1.866607 7.498075 -0.000145 -0.000372 0.000466
Ga -3.177202 -1.850693 -2.711667 0.000066 -0.000382 0.001103
Ga -1.615719 0.862346 2.418266 -0.000386 0.000249 -0.001182
Al -1.609533 0.863473 7.491421 0.002563 -0.000310 0.001474
Al -1.608204 0.879561 -2.716384 0.001034 -0.000867 0.002039
Ga -3.193372 3.607491 2.426203 0.000218 -0.000349 -0.001359
Ga -3.191663 3.600914 7.479332 0.001958 0.000558 0.000068
Al -3.183709 3.601238 -2.703251 -0.001573 -0.000438 -0.003075
Al -0.031686 -1.841775 2.381664 0.007167 -0.005399 0.004822
Al -0.030839 -1.855032 7.496428 0.001658 -0.000060 0.001741
Al -0.005787 -1.847362 -2.716314 0.000800 -0.000318 0.000768
Al -0.038439 1.784868 4.965587 0.001110 -0.001765 0.000284
Al -0.020890 1.774387 -5.249034 -0.000946 0.000115 0.001430
Ga -0.025652 1.762805 -0.145258 -0.001125 0.000438 -0.004787
Al 3.151348 -3.679694 4.941543 -0.003248 -0.004875 0.004690
Ga 3.146181 -3.680706 -5.228584 -0.000645 0.000313 0.000375
Ga 3.126387 -3.680449 -0.161180 0.001047 0.000066 0.003199
Ga 1.550777 -0.961574 4.943392 -0.002822 0.001023 0.001876
Al 1.561636 -0.944646 -5.248097 -0.001682 0.000701 0.001593
Al 1.570676 -0.956851 -0.175129 -0.002226 0.001213 0.003930
Ga 3.126211 1.794616 4.945063 0.001061 -0.000124 0.002180
Al 3.129511 1.781276 -5.255779 -0.000061 -0.000078 0.001147
Al 3.144340 1.753143 -0.121803 -0.001458 0.006243 -0.014102
Al 6.299903 -3.681484 4.948929 0.000256 0.000526 0.000296
Al 6.302820 -3.681543 -5.263036 -0.000765 0.000324 0.001988
Ga 6.294035 -3.682049 -0.116626 0.000912 -0.000387 -0.000038
Ga 4.728348 -0.957701 4.950556 -0.000247 0.002045 0.001121
Al 4.720163 -0.937974 -5.255096 -0.000433 0.000308 0.001129
Al 4.718133 -0.932495 -0.150461 -0.000969 -0.000936 0.002985
Al -3.159724 1.767240 4.972286 -0.010131 0.003288 -0.001906
Al -3.189974 1.774815 -5.234766 -0.000277 -0.000238 0.000469
Al -3.201627 1.779765 -0.180478 -0.000535 -0.001163 0.001648
Al -0.039144 -3.664745 4.954098 0.002057 -0.001923 -0.001325
Al -0.026426 -3.666944 -5.242860 -0.000966 0.000028 0.000896
Al -0.002774 -3.666906 -0.161002 -0.006596 -0.001378 0.001261
Al -1.601216 -0.952090 4.968428 0.000723 -0.004632 0.001606
Al -1.589968 -0.942616 -5.256877 -0.000753 0.000447 0.000719
Al -1.587775 -0.954033 -0.162188 -0.000789 0.001271 0.001563
N 1.508799 0.892307 4.303336 -0.000289 0.000623 -0.003346
N 1.548604 0.872881 -5.844576 0.000684 -0.000398 -0.000433
N 1.591425 0.848093 -0.781988 0.002179 -0.001648 -0.000904
N -0.020743 3.596453 4.364765 -0.000487 -0.001225 0.000343
N 0.013427 3.579093 -5.870844 0.001137 -0.001275 -0.001208
N -0.022333 3.594364 -0.813209 0.000186 -0.000050 -0.000888
N 3.140210 -1.904337 4.301312 -0.000473 0.001080 0.001158
N 3.140427 -1.818842 -5.856115 -0.000069 0.001186 -0.000816
N 3.148329 -1.818144 -0.786254 -0.000229 0.002318 0.000781
N -4.727623 0.893377 4.292164 0.002935 0.001071 0.001142
N -4.760174 0.878344 -5.846924 0.001220 -0.000491 -0.000354
N -4.765678 0.869480 -0.772858 -0.000253 -0.001237 -0.000530
N -6.334817 3.644458 4.314614 -0.000811 0.000823 -0.001499
N -6.332437 3.606252 -5.847236 0.000090 0.000103 -0.000748
N -6.304835 3.578935 -0.724295 0.003502 -0.002857 0.002323
N -3.133633 -1.877393 4.334317 0.001178 -0.001360 -0.002008
N -3.170298 -1.857802 -5.846279 0.000331 0.000457 -0.000468
N -3.174854 -1.824608 -0.729468 0.000029 0.002930 0.000587
N -1.616214 0.850388 4.406551 0.005445 0.005792 -0.002003
N -1.610636 0.882261 -5.850045 0.001311 -0.000823 -0.000423
N -1.654207 0.851689 -0.777800 0.002515 -0.002318 -0.004751
N -3.193671 3.594561 4.410065 0.003166 0.001800 0.002293
N -3.223936 3.585136 -5.819796 0.000474 -0.001274 0.001688
N -3.233355 3.581713 -0.798375 0.002769 -0.000691 0.003544
N -0.069297 -1.871972 4.316805 0.000977 -0.001295 -0.002205
N -0.018082 -1.853283 -5.850273 0.000604 -0.000122 -0.000729
N -0.013428 -1.856312 -0.782721 0.000639 0.001199 0.000449
N -0.000499 1.811815 1.817011 0.003093 -0.003852 0.004760
N -0.023963 1.772441 6.889907 -0.001015 -0.000648 -0.001502
N -0.024885 1.775739 -3.318037 -0.000829 -0.000331 0.000119
N 3.187184 -3.673324 1.837155 -0.000674 0.002597 -0.002377
N 3.189370 -3.664430 6.874691 -0.002623 0.002871 -0.003303
N 3.136490 -3.679522 -3.250552 0.000759 0.000042 0.000208
N 1.566807 -0.951494 1.785068 -0.001927 0.001009 -0.004392
N 1.562373 -0.956813 6.929696 -0.001266 0.000491 0.000279
N 1.566867 -0.952579 -3.320276 -0.001506 0.000942 -0.000200
N 3.117749 1.788017 1.764844 0.000929 -0.001563 0.010010
N 3.127874 1.778713 6.932748 -0.000155 -0.000108 0.001009
N 3.127532 1.739610 -3.336414 0.000196 -0.001934 -0.001462
N 6.287274 -3.678562 1.868810 -0.000748 -0.001038 -0.001805
N 6.296840 -3.682700 6.881762 0.000272 0.000305 -0.001533
N 6.255640 -3.703988 -3.347536 -0.000578 0.000322 -0.002681
N 4.715759 -0.950954 1.798259 -0.000553 0.001401 -0.003730
N 4.717971 -0.952390 6.933375 -0.000385 0.000270 0.000210
N 4.680503 -0.926463 -3.336076 -0.001842 0.001403 -0.000944
N -3.218946 1.765392 1.738913 -0.004976 -0.001740 0.001543
N -3.188443 1.729596 6.878634 -0.000379 -0.001858 -0.001400
N -3.190457 1.780562 -3.309477 0.000691 -0.000028 0.000415
N -0.041032 -3.639601 1.763727 -0.005246 -0.003567 0.000032
N -0.067448 -3.653571 6.871290 -0.001259 0.000903 -0.002110
N 0.016782 -3.652024 -3.328377 0.001141 0.001188 -0.000595
N -1.580450 -0.991497 1.772923 -0.008244 0.001839 -0.005208
N -1.597979 -0.954923 6.896579 -0.001025 0.000741 -0.001405
N -1.555765 -0.925942 -3.337009 0.000773 0.001120 -0.000168
