108
Energy=-8.486435e+05 Lattice="9.444824e+00 0.000000e+00 0.000000e+00 -4.722670e+00 8.178607e+00 0.000000e+00 3.139501e-03 1.299653e-03 1.518488e+01" Stress="-1.169947e-04 1.609938e-05 1.572406e-04 2.007131e-05 -1.384556e-04 4.733273e-05 1.532445e-04 4.408276e-05 1.093328e-04" Properties=species:S:1:pos:R:3:forces:R:3 Config_type=AlGaN_super3_9_2_17.xyz
Al 1.554837e+00 8.788472e-01 2.376381e+00 8.527411e-05 -5.022711e-05 5.473680e-05
Al 1.555386e+00 8.780599e-01 7.451063e+00 8.209537e-06 2.358756e-05 6.257030e-05
Al 1.563008e+00 8.758091e-01 -2.688504e+00 4.450677e-05 7.886927e-05 5.093063e-05
Al -2.715831e-02 3.592253e+00 2.397147e+00 -7.791269e-05 -1.192132e-04 -1.603712e-04
Al -1.390401e-02 3.598319e+00 7.439792e+00 -9.066974e-06 -1.271645e-05 9.877067e-06
Al -2.539297e-02 3.591779e+00 -2.693463e+00 4.298413e-05 1.582385e-05 2.271263e-04
Al 3.133108e+00 -1.858295e+00 2.371252e+00 -8.413848e-05 6.347201e-05 6.845215e-06
Al 3.138513e+00 -1.854483e+00 7.454424e+00 -3.327503e-06 1.144135e-05 4.826225e-05
Al 3.125077e+00 -1.855397e+00 -2.683462e+00 5.028993e-06 5.140138e-05 8.821900e-05
Al -4.751959e+00 8.674502e-01 2.372488e+00 -1.617827e-05 -3.073014e-05 -1.090506e-05
Al -4.756176e+00 8.608220e-01 7.452452e+00 9.206222e-05 3.285080e-05 8.160937e-05
Al -4.761466e+00 8.750909e-01 -2.683233e+00 6.922008e-05 5.523386e-05 3.358427e-05
Al -6.310585e+00 3.589870e+00 2.396949e+00 4.475269e-05 -1.138020e-04 -9.707656e-06
Al -6.325179e+00 3.594723e+00 7.438425e+00 -1.620158e-05 6.734203e-05 4.507357e-05
Al -6.319331e+00 3.576764e+00 -2.692946e+00 3.478020e-06 5.067315e-05 3.840026e-05
Al -3.183715e+00 -1.855336e+00 2.404895e+00 -1.166316e-04 4.621107e-05 -1.709640e-04
Al -3.178340e+00 -1.860843e+00 7.449131e+00 1.972654e-05 -1.440106e-06 -2.464021e-05
Ga -3.189315e+00 -1.865142e+00 -2.701104e+00 9.621446e-06 5.920947e-06 3.608177e-05
Al -1.587864e+00 8.832645e-01 2.375406e+00 -3.498579e-04 9.585367e-06 -1.551026e-05
Al -1.584504e+00 8.715167e-01 7.465202e+00 2.752710e-04 -1.866110e-04 1.501249e-04
Ga -1.598414e+00 8.895988e-01 -2.685718e+00 1.097688e-04 -4.481308e-05 -5.513868e-05
Al -3.168977e+00 3.603501e+00 2.374723e+00 -6.138360e-05 -2.538447e-05 -6.324658e-05
Ga -3.166591e+00 3.606575e+00 7.458452e+00 5.071598e-05 4.757985e-06 1.157042e-04
Al -3.174070e+00 3.594052e+00 -2.686249e+00 -1.891583e-06 -6.340774e-05 1.349617e-04
Al -1.341019e-02 -1.864304e+00 2.375060e+00 1.255599e-04 -1.328775e-04 -2.543249e-05
Al -2.095281e-02 -1.857588e+00 7.465792e+00 -4.001335e-05 1.245808e-05 5.915059e-06
Ga -6.315893e-03 -1.865543e+00 -2.685484e+00 8.695735e-05 -1.005312e-04 3.551531e-05
Al -1.144625e-02 1.794625e+00 4.920502e+00 -1.500455e-05 -3.479968e-05 -5.301738e-05
Al -1.692170e-02 1.782626e+00 -5.223331e+00 -2.558990e-05 7.825681e-06 -9.173791e-06
Al -1.685583e-02 1.782454e+00 -1.436662e-01 7.054178e-04 7.317901e-04 -1.440153e-05
Al 3.139969e+00 -3.669819e+00 4.904626e+00 6.186094e-05 8.978456e-05 -7.764857e-06
Al 3.131846e+00 -3.670990e+00 -5.200542e+00 2.429480e-05 6.849706e-05 9.646769e-05
Al 3.116594e+00 -3.676281e+00 -1.576687e-01 1.970982e-04 1.615132e-05 -9.085954e-05
Ga 1.566595e+00 -9.467922e-01 4.917965e+00 -8.082387e-05 9.681706e-06 5.170418e-06
Al 1.558364e+00 -9.456009e-01 -5.225404e+00 -5.821341e-05 4.262734e-05 -5.782615e-06
Al 1.567530e+00 -9.417366e-01 -1.406373e-01 -9.151401e-05 -1.206503e-04 7.943836e-05
Al 3.124236e+00 1.785066e+00 4.914342e+00 -2.406644e-05 5.950365e-06 -1.390267e-05
Al 3.123593e+00 1.777962e+00 -5.213368e+00 -1.222304e-05 -2.101948e-05 1.276444e-04
Al 3.126325e+00 1.771447e+00 -1.547763e-01 1.784998e-04 9.637619e-05 9.974127e-05
Al 6.271696e+00 -3.682825e+00 4.912968e+00 2.425973e-05 -3.755714e-05 -3.368070e-05
Al 6.272243e+00 -3.683450e+00 -5.228906e+00 2.203686e-05 2.878847e-05 -5.646220e-06
Ga 6.268552e+00 -3.693130e+00 -1.314627e-01 -5.161284e-06 -2.325177e-06 9.969551e-05
Al 4.693365e+00 -9.524727e-01 4.919842e+00 -8.213293e-05 -1.786431e-05 5.815570e-06
Al 4.690904e+00 -9.456151e-01 -5.222295e+00 2.315520e-06 -1.140728e-05 1.875667e-05
Al 4.680000e+00 -9.374496e-01 -1.434315e-01 -3.838935e-05 -8.762037e-05 1.248482e-04
Ga -3.175636e+00 1.783371e+00 4.908012e+00 -1.220173e-04 3.049401e-05 -4.764951e-06
Al -3.180114e+00 1.774350e+00 -5.212997e+00 1.523679e-05 -4.094317e-05 1.770685e-05
Al -3.186764e+00 1.789468e+00 -1.387045e-01 2.318142e-04 2.003474e-04 -3.084173e-04
Al -2.581672e-02 -3.679225e+00 4.910626e+00 -8.451869e-05 3.434938e-04 -1.509822e-04
Al -3.067580e-02 -3.679021e+00 -5.209011e+00 2.692900e-06 5.607852e-05 2.599496e-05
Al -1.409391e-02 -3.692986e+00 -1.432664e-01 2.877367e-04 1.583422e-04 -1.329641e-04
Ga -1.596227e+00 -9.517071e-01 4.922813e+00 -2.763046e-05 -4.975366e-05 9.524920e-05
Al -1.597874e+00 -9.488323e-01 -5.244851e+00 -2.537179e-05 -2.587490e-05 -3.848759e-04
Ga -1.595575e+00 -9.419652e-01 -1.144565e-01 -2.651930e-05 -1.801697e-04 4.322106e-05
N 1.553257e+00 9.202622e-01 4.293725e+00 4.288979e-05 -3.548605e-05 -2.960712e-06
N 1.553016e+00 8.738861e-01 -5.819506e+00 9.997428e-05 6.585124e-06 -7.783300e-05
N 1.549268e+00 8.689848e-01 -7.584804e-01 1.576579e-04 1.135105e-04 -3.764012e-05
N -2.232844e-02 3.593785e+00 4.314967e+00 1.913403e-06 -1.449639e-05 -3.992744e-06
N -2.809052e-02 3.597194e+00 -5.825765e+00 -1.625342e-05 -2.117599e-05 -4.388085e-05
N -6.511028e-02 3.571256e+00 -7.783143e-01 1.965234e-04 -2.416313e-06 -6.907663e-05
N 3.170251e+00 -1.878554e+00 4.283617e+00 -5.078586e-06 3.946053e-06 5.227166e-05
N 3.127655e+00 -1.863804e+00 -5.817053e+00 3.494482e-05 -3.592195e-05 -5.323594e-05
N 3.124401e+00 -1.856920e+00 -7.566498e-01 6.634094e-05 -1.575887e-05 -4.182246e-05
N -4.789877e+00 8.441233e-01 4.288999e+00 1.476538e-04 2.574677e-05 -2.785475e-05
N -4.752893e+00 8.689193e-01 -5.818175e+00 2.368783e-05 2.850149e-05 -9.909544e-05
N -4.747513e+00 8.689253e-01 -7.555418e-01 1.542751e-05 7.157980e-05 -8.324506e-06
N -6.314694e+00 3.593155e+00 4.316970e+00 -1.975483e-05 2.567531e-05 -1.010888e-05
N -6.319637e+00 3.591452e+00 -5.826463e+00 -2.613290e-06 -1.085064e-05 -5.516353e-05
N -6.281356e+00 3.570295e+00 -7.757900e-01 1.053867e-06 1.969049e-05 1.872469e-05
N -3.214836e+00 -1.878024e+00 4.315008e+00 1.187291e-04 2.877176e-05 -1.680165e-05
N -3.181166e+00 -1.862063e+00 -5.816554e+00 -2.089449e-05 -7.239396e-06 -3.586439e-05
N -3.213608e+00 -1.836489e+00 -7.355581e-01 8.423112e-05 -9.906921e-05 -2.416090e-05
N -1.550261e+00 8.997275e-01 4.279801e+00 2.351924e-04 -9.876777e-05 2.660275e-04
N -1.596312e+00 8.783726e-01 -5.807327e+00 7.068086e-05 -5.130435e-05 1.311793e-05
N -1.599844e+00 9.201283e-01 -7.127594e-01 -5.657539e-04 -4.505110e-04 3.819261e-04
N -3.167425e+00 3.647734e+00 4.292837e+00 -3.685325e-05 -1.229124e-04 -4.170387e-05
N -3.168991e+00 3.600284e+00 -5.755737e+00 -4.629652e-05 -3.820933e-05 -1.399759e-04
N -3.173000e+00 3.593732e+00 -7.589706e-01 -7.832391e-05 2.333815e-05 -4.044124e-05
N -1.526304e-02 -1.901418e+00 4.278044e+00 -7.741085e-05 -2.998042e-04 9.538194e-05
N -1.771652e-02 -1.864548e+00 -5.806695e+00 3.799622e-05 -8.908419e-05 -5.580683e-05
N 1.910132e-02 -1.880661e+00 -7.097509e-01 -2.732254e-05 -1.152959e-04 1.911805e-05
N -1.334264e-02 1.786716e+00 1.773067e+00 -4.503870e-04 -3.284998e-04 -6.965985e-05
N -1.970087e-02 1.779680e+00 6.843773e+00 1.597405e-05 1.397572e-05 -4.642334e-05
N 2.182081e-02 1.800098e+00 -3.312299e+00 -1.134128e-05 4.736821e-05 1.603598e-05
N 3.130801e+00 -3.675528e+00 1.768765e+00 -1.206056e-04 -3.156520e-05 4.644267e-05
N 3.170175e+00 -3.647622e+00 6.818369e+00 -6.335768e-05 3.438388e-05 -4.759421e-05
N 3.126009e+00 -3.672160e+00 -3.278282e+00 -1.008490e-05 4.827906e-05 -1.277420e-04
N 1.558815e+00 -9.419044e-01 1.782939e+00 3.954797e-06 1.399714e-05 -5.021788e-05
N 1.555854e+00 -9.475829e-01 6.900436e+00 -2.257040e-05 7.930188e-07 -1.006416e-04
N 1.595736e+00 -9.219461e-01 -3.309106e+00 -8.121374e-05 -3.040784e-05 -2.558271e-05
N 3.126700e+00 1.782688e+00 1.768949e+00 -1.446231e-04 -1.366595e-04 -9.696241e-05
N 3.127644e+00 1.778620e+00 6.836904e+00 1.605361e-05 -3.739532e-05 -7.926794e-05
N 3.123883e+00 1.775383e+00 -3.292456e+00 -1.629371e-05 -3.302818e-05 2.131714e-05
N 6.276684e+00 -3.679402e+00 1.848987e+00 -2.355828e-04 3.250925e-04 -1.483174e-04
N 6.276099e+00 -3.674280e+00 6.837924e+00 1.753874e-05 -3.410457e-05 4.043460e-05
N 6.274013e+00 -3.728266e+00 -3.312659e+00 1.143046e-05 -4.759973e-06 -1.682587e-05
N 4.699821e+00 -9.461034e-01 1.772952e+00 1.211256e-05 -1.599133e-05 -5.861546e-05
N 4.699440e+00 -9.460520e-01 6.841791e+00 -2.088667e-05 1.517764e-05 -1.514542e-05
N 4.652137e+00 -9.206686e-01 -3.311001e+00 -3.859266e-05 -2.162497e-05 -5.829214e-06
N -3.175385e+00 1.782414e+00 1.786068e+00 -1.283257e-04 1.990121e-05 -4.619394e-05
N -3.169254e+00 1.731705e+00 6.880668e+00 -4.989802e-04 1.963099e-04 -1.682322e-04
N -3.219475e+00 1.798093e+00 -3.300921e+00 -6.673010e-05 1.698375e-05 6.696724e-05
N -2.411323e-02 -3.681471e+00 1.774895e+00 -1.313621e-04 2.207050e-06 -7.185537e-05
N -6.110785e-02 -3.649022e+00 6.824149e+00 6.511918e-05 -2.963193e-05 -1.863259e-05
N -2.783476e-02 -3.723765e+00 -3.301948e+00 -1.752643e-05 4.329821e-05 2.181932e-05
N -1.600730e+00 -9.491078e-01 1.856603e+00 2.582868e-04 2.013190e-04 2.941738e-04
N -1.594086e+00 -9.464948e-01 6.907201e+00 4.009603e-06 -6.407328e-05 -1.133526e-05
N -1.595192e+00 -9.474523e-01 -3.344107e+00 -1.149793e-04 4.549572e-05 4.239222e-04
