108
Energy=-1672602.238171 Lattice="9.545341 0.000000 0.000000 -4.774113 8.265831 0.000000 -0.001796 0.003054 15.426825" Stress="0.000001 -0.000001 -0.000000 -0.000001 0.000001 0.000001 -0.000000 0.000001 -0.000002" Properties=species:S:1:pos:R:3:forces:R:3
Al 1.574660 0.893992 2.392411 0.000226 -0.000151 0.000282
Al 1.569328 0.903199 7.579643 -0.000156 -0.000165 0.000050
Al 1.559929 0.889667 -2.714714 -0.000203 -0.000028 0.000121
Al -0.012917 3.618690 2.410239 -0.000019 0.000004 0.000033
Al -0.009559 3.612788 7.570879 0.000007 0.000005 -0.000019
Al -0.025538 3.613504 -2.711973 0.000010 -0.000045 -0.000010
Al 3.167810 -1.856608 2.401616 -0.000170 0.000057 -0.000245
Ga 3.168590 -1.858441 7.581560 -0.000029 0.000035 0.000043
Ga 3.165407 -1.869891 -2.711669 0.000042 -0.000041 -0.000013
Al -4.809474 0.877187 2.395736 0.000216 0.000128 -0.000220
Al -4.811271 0.881609 7.566716 -0.000005 0.000009 0.000049
Ga -4.798451 0.876348 -2.699465 0.000087 0.000016 0.000003
Al -6.391718 3.612860 2.390117 0.000033 -0.000028 0.000042
Al -6.399569 3.611719 7.582740 0.000027 -0.000010 0.000073
Ga -6.394268 3.616830 -2.702605 0.000054 0.000036 0.000075
Ga -3.232256 -1.881135 2.424939 -0.000042 0.000047 0.000051
Ga -3.224152 -1.877733 7.561980 -0.000005 0.000043 0.000022
Al -3.218734 -1.871437 -2.709029 -0.000004 -0.000018 -0.000075
Ga -1.606399 0.906703 2.416533 -0.000047 0.000032 -0.000035
Ga -1.603443 0.902661 7.563588 0.000027 -0.000021 -0.000013
Al -1.599705 0.899448 -2.704563 0.000041 0.000036 0.000039
Ga -3.210691 3.623639 2.412478 -0.000013 -0.000041 0.000003
Ga -3.208720 3.620474 7.550950 0.000031 -0.000010 0.000021
Al -3.194053 3.622638 -2.684610 0.000021 -0.000004 0.000031
Ga -0.005754 -1.879776 2.391351 0.000172 -0.000012 0.000043
Ga -0.018269 -1.871829 7.588760 0.000024 0.000025 0.000028
Ga -0.011099 -1.867188 -2.697358 0.000023 -0.000024 0.000022
Al -0.017562 1.803503 4.986764 0.000006 0.000023 0.000024
Al -0.001478 1.789903 -5.270395 0.000321 -0.000089 0.000064
Al -0.011805 1.792131 -0.165747 0.000090 -0.000150 0.000035
Ga 3.177306 -3.715330 4.971852 -0.000008 -0.000005 0.000045
Ga 3.170350 -3.717835 -5.267437 -0.000030 0.000068 -0.000001
Ga 3.157489 -3.715985 -0.146766 -0.000064 0.000035 0.000069
Ga 1.580469 -0.936698 4.980369 -0.000030 0.000058 -0.000001
Al 1.578183 -0.926696 -5.278679 0.000002 0.000060 -0.000017
Al 1.580796 -0.936244 -0.142289 0.000118 0.000313 0.000282
Ga 3.163067 1.786160 4.982709 -0.000042 0.000010 -0.000035
Al 3.144429 1.774025 -5.305347 0.000212 -0.000129 -0.000481
Al 3.156694 1.781495 -0.130529 -0.000121 -0.000077 0.000017
Ga 6.334098 -3.731836 4.992190 -0.000011 -0.000015 0.000017
Ga 6.332474 -3.727311 -5.279605 -0.000018 0.000035 -0.000004
Ga 6.337550 -3.722175 -0.149346 0.000037 -0.000137 0.000080
Al 4.743120 -0.936283 4.976784 0.000010 -0.000009 0.000019
Al 4.740128 -0.943857 -5.279303 -0.000025 0.000039 -0.000027
Al 4.742062 -0.942756 -0.138328 -0.000703 0.000687 0.000601
Al -3.214660 1.779047 4.987558 0.000023 0.000028 -0.000007
Ga -3.212686 1.784676 -5.267203 -0.000084 -0.000019 -0.000000
Al -3.211632 1.796141 -0.163051 -0.000175 0.000008 0.000246
Ga -0.032992 -3.725344 4.993576 -0.000003 -0.000006 0.000014
Ga -0.022509 -3.723481 -5.273819 0.000003 -0.000012 0.000011
Al -0.015030 -3.729359 -0.149953 -0.000011 -0.000041 0.000053
Ga -1.620666 -0.939534 4.989869 -0.000010 -0.000010 0.000035
Ga -1.615853 -0.947946 -5.254655 -0.000017 -0.000009 0.000044
Ga -1.618141 -0.941947 -0.167172 0.000118 0.000064 0.000107
N 1.525939 0.910180 4.313257 0.000020 0.000012 -0.000199
N 1.560360 0.882393 -5.916744 0.000096 -0.000025 0.000039
N 1.572481 0.882021 -0.778618 -0.000033 0.000015 0.000008
N -0.020424 3.579645 4.321460 0.000031 -0.000002 -0.000022
N -0.024404 3.574646 -5.936475 -0.000068 0.000186 -0.000057
N -0.023989 3.582861 -0.805131 0.000028 0.000056 0.000013
N 3.200595 -1.846455 4.323728 -0.000015 0.000029 -0.000031
N 3.159416 -1.830324 -5.858121 0.000006 -0.000016 0.000004
N 3.159858 -1.824068 -0.733061 0.000131 -0.000198 -0.000151
N -4.756720 0.858079 4.325182 -0.000022 0.000002 0.000033
N -4.834870 0.852961 -5.928927 -0.000108 0.000051 0.000120
N -4.803916 0.878980 -0.716471 0.000243 -0.000243 0.000037
N -6.388301 3.626287 4.302287 0.000035 -0.000017 -0.000016
N -6.388850 3.581248 -5.926646 -0.000032 -0.000011 0.000072
N -6.347985 3.598063 -0.726206 0.000008 0.000075 -0.000007
N -3.251856 -1.857556 4.398914 0.000037 -0.000014 -0.000019
N -3.249263 -1.853130 -5.886673 0.000041 -0.000025 -0.000029
N -3.257984 -1.852008 -0.794697 0.000369 -0.000220 -0.000195
N -1.610610 0.938530 4.402536 0.000024 -0.000048 0.000007
N -1.567654 0.908472 -5.882971 -0.000206 -0.000072 -0.000076
N -1.608226 0.937569 -0.786103 0.000030 -0.000083 -0.000109
N -3.207459 3.583094 4.390962 0.000028 -0.000024 0.000004
N -3.200584 3.626547 -5.911728 0.000032 -0.000010 -0.000034
N -3.242880 3.609847 -0.770524 0.000045 0.000010 -0.000024
N -0.017951 -1.876946 4.361977 0.000011 -0.000043 -0.000025
N 0.019801 -1.851315 -5.861736 -0.000003 -0.000023 -0.000044
N 0.028852 -1.898328 -0.716709 -0.000156 -0.000079 -0.000118
N 0.020819 1.820298 1.753964 -0.000159 0.000204 -0.000141
N 0.027008 1.822174 6.912177 -0.000061 0.000056 0.000024
N -0.015021 1.795327 -3.338860 -0.000012 0.000022 0.000006
N 3.203269 -3.690187 1.838418 0.000002 0.000128 -0.000001
N 3.210180 -3.730274 6.958626 -0.000021 0.000010 -0.000033
N 3.161338 -3.762764 -3.282539 -0.000039 0.000026 0.000006
N 1.614297 -0.922715 1.777040 0.000116 -0.000285 0.000094
N 1.570593 -0.899734 6.961640 0.000021 0.000027 0.000004
N 1.571073 -0.900480 -3.363651 0.000029 0.000012 -0.000050
N 3.157213 1.790727 1.793647 -0.000005 0.000030 0.000067
N 3.155980 1.794829 6.985861 0.000128 0.000065 -0.000048
N 3.116990 1.766584 -3.382727 0.000024 0.000050 0.000144
N 6.338314 -3.758978 1.827392 -0.000025 0.000006 -0.000086
N 6.342279 -3.766419 6.981691 -0.000053 -0.000034 -0.000010
N 6.299658 -3.692966 -3.293144 -0.000020 0.000042 -0.000006
N 4.710426 -0.931377 1.774570 0.000134 -0.000100 -0.000301
N 4.741633 -0.901558 6.895209 -0.000026 -0.000030 -0.000024
N 4.790181 -0.972799 -3.371457 -0.000014 -0.000023 0.000034
N -3.244887 1.770909 1.750703 -0.000165 -0.000093 -0.000106
N -3.254491 1.763789 6.906526 -0.000026 -0.000011 -0.000015
N -3.167476 1.817838 -3.286925 -0.000035 -0.000019 -0.000019
N -0.060837 -3.742616 1.758572 -0.000006 0.000019 -0.000064
N -0.075420 -3.736087 6.969551 -0.000012 -0.000014 -0.000017
N 0.020085 -3.741880 -3.301940 -0.000035 0.000014 -0.000039
N -1.622154 -0.951109 1.800895 -0.000162 0.000012 -0.000130
N -1.614494 -0.953557 6.956363 -0.000029 -0.000012 -0.000028
N -1.654165 -0.930331 -3.268354 -0.000058 0.000017 -0.000036
