108
Energy=-802866.411472 Lattice="9.462958 0.000000 0.000000 -4.741842 8.180733 0.000000 -0.003136 -0.002591 15.230969" Stress="0.000017 0.000012 -0.000004 0.000012 0.000011 -0.000007 -0.000004 -0.000007 0.000064" Properties=species:S:1:pos:R:3:forces:R:3
Al 1.550768 0.882583 2.390811 0.001605 -0.005391 0.000862
Al 1.548432 0.880625 7.448352 0.001919 -0.005903 -0.001616
Al 1.554226 0.846624 -2.706394 0.002276 0.023999 0.012866
Al -0.032797 3.589425 2.378664 0.003288 -0.000099 0.006856
Al -0.014286 3.594119 7.460706 -0.002094 -0.000076 -0.000274
Al -0.028263 3.581120 -2.697795 0.000129 -0.001926 0.000565
Al 3.156906 -1.860886 2.394308 -0.021022 -0.012732 0.010925
Al 3.153940 -1.865491 7.440261 -0.000890 -0.000259 -0.000294
Al 3.087595 -1.868365 -2.680912 0.034169 -0.005825 0.007393
Al -4.766398 0.873271 2.389787 -0.001519 -0.000858 0.002077
Al -4.770674 0.893898 7.450287 0.001604 -0.005792 -0.000024
Al -4.757331 0.837811 -2.741475 -0.003451 0.021739 0.022173
Al -6.336952 3.596281 2.380596 0.017984 -0.009596 0.011439
Al -6.341493 3.600724 7.463680 0.001165 -0.001178 -0.000361
Al -6.331927 3.565664 -2.704044 -0.001632 -0.002973 0.004431
Al -3.168531 -1.856458 2.448351 -0.000366 -0.003967 -0.000563
Al -3.166064 -1.853898 7.451679 -0.000192 -0.001254 0.003768
Al -3.136331 -1.877367 -2.690682 -0.016336 0.009037 -0.021786
Al -1.629456 0.891924 2.387797 0.006342 -0.001935 -0.000743
Al -1.630617 0.898581 7.451451 0.006959 -0.003044 -0.001289
Al -1.628456 0.847623 -2.708903 0.005796 0.030577 0.013294
Al -3.200205 3.609232 2.378558 0.004090 0.001179 0.000031
Al -3.198655 3.606249 7.443091 0.006530 0.000129 0.001663
Al -3.204902 3.579202 -2.686278 0.011769 -0.003856 0.006664
Al -0.030810 -1.854112 2.397708 0.007205 -0.000772 -0.001408
Al -0.025538 -1.854626 7.436397 0.008558 0.002447 0.003958
Ga -0.026525 -1.840681 -2.633469 0.007986 0.001814 -0.001270
Al -0.019929 1.782260 4.925051 -0.004100 -0.000598 -0.000500
Al -0.010958 1.784166 -5.250292 -0.005990 -0.001809 0.004376
Al -0.030200 1.767503 -0.146048 -0.004027 -0.003695 -0.008770
Al 3.153505 -3.682610 4.925532 -0.004999 0.000012 -0.000904
Ga 3.150774 -3.690026 -5.239814 -0.004772 0.000341 0.002028
Al 3.140562 -3.695959 -0.131848 -0.006180 0.000927 -0.011750
Al 1.589162 -0.962860 4.923203 -0.005700 0.003765 -0.004784
Al 1.512108 -0.971250 -5.271710 0.046506 0.025461 0.022907
Al 1.570694 -0.969789 -0.155338 -0.003317 0.007991 0.010570
Al 3.127722 1.786109 4.924575 -0.000754 0.001103 0.000032
Al 3.115528 1.778704 -5.252111 0.000737 -0.003031 0.004519
Al 3.094987 1.780565 -0.099536 0.001405 0.000492 -0.017737
Ga 6.297225 -3.673873 4.934746 0.000024 -0.002639 -0.004589
Al 6.296710 -3.686856 -5.232517 -0.000209 -0.001791 0.002479
Ga 6.299354 -3.664902 -0.183047 -0.000075 -0.005808 0.018461
Al 4.729310 -0.949292 4.936627 -0.004092 0.004791 -0.004456
Ga 4.718655 -0.956302 -5.247480 -0.003390 0.007274 0.003813
Ga 4.732694 -0.949330 -0.136737 -0.009806 0.009244 0.006116
Al -3.197405 1.794831 4.920877 -0.000878 0.000133 -0.000684
Al -3.193686 1.803075 -5.246505 -0.001670 -0.012851 0.005180
Al -3.199866 1.774325 -0.141027 0.009048 0.008218 -0.002101
Al -0.021682 -3.672847 4.923679 -0.001753 -0.000301 -0.001720
Ga -0.011727 -3.682973 -5.219338 -0.001841 -0.001283 0.002645
Al -0.023640 -3.684990 -0.144310 0.001035 -0.005406 -0.000710
Al -1.590153 -0.942994 4.934056 0.000063 0.005171 -0.001721
Ga -1.570982 -0.936253 -5.223208 -0.005576 0.006948 -0.001105
Al -1.592976 -0.963716 -0.104830 -0.006846 0.011204 -0.013856
N 1.551066 0.886055 4.325098 0.000505 -0.005942 -0.000799
N 1.542289 0.875992 -5.859218 0.000456 -0.006961 0.002479
N 1.539771 0.870164 -0.756548 0.001198 -0.003648 0.001954
N -0.037450 3.587006 4.314152 -0.012766 -0.007246 -0.004355
N 0.001646 3.586927 -5.846314 0.009528 -0.005078 -0.005456
N -0.041051 3.578258 -0.768607 -0.008095 -0.003298 -0.001171
N 3.160889 -1.867302 4.328204 -0.002770 -0.001303 0.002467
N 3.121217 -1.858871 -5.877426 -0.013064 0.006875 -0.002271
N 3.124996 -1.877573 -0.750357 -0.005591 -0.007022 -0.002353
N -4.769308 0.886989 4.325879 0.002391 -0.004128 -0.000318
N -4.768566 0.909906 -5.862125 0.002102 0.004205 -0.003741
N -4.768993 0.960902 -0.665388 -0.005950 -0.019849 -0.029725
N -6.319499 3.590827 4.314148 0.013863 -0.007362 -0.001518
N -6.353224 3.592807 -5.842249 -0.006949 -0.004114 -0.005099
N -6.320034 3.576415 -0.770609 0.005124 -0.002161 -0.002438
N -3.158678 -1.831054 4.344511 0.000695 0.013315 0.000228
N -3.149020 -1.895162 -5.832300 0.001071 -0.003994 -0.012968
N -3.165121 -1.843127 -0.855250 0.014639 0.004801 0.029213
N -1.629509 0.893283 4.323817 0.007326 -0.004990 -0.001400
N -1.626929 0.921744 -5.858761 0.007460 0.002679 -0.002969
N -1.636041 0.868183 -0.765239 0.006882 -0.003903 0.004085
N -3.199453 3.608953 4.318278 0.006301 0.001559 -0.002108
N -3.199065 3.554054 -5.852243 0.005696 0.005225 -0.014399
N -3.205551 3.587999 -0.753602 0.008333 0.004156 -0.000461
N -0.030917 -1.857824 4.328846 0.004733 0.002899 -0.000394
N 0.056110 -1.827286 -5.797648 -0.028004 -0.013700 -0.029758
N -0.045691 -1.870260 -0.676743 0.007114 0.002860 0.002647
N -0.015643 1.779521 1.756656 -0.007190 -0.002132 0.009259
N -0.015451 1.785247 6.851785 -0.005884 -0.002609 -0.000052
N -0.016923 1.761317 -3.313115 -0.004450 -0.000021 -0.000700
N 3.154982 -3.673051 1.754392 -0.005055 -0.004247 0.012047
N 3.158647 -3.681865 6.850804 -0.005935 -0.002446 0.001492
N 3.139178 -3.686113 -3.281535 -0.005092 0.000307 0.011054
N 1.585918 -0.960172 1.830837 -0.009460 0.003603 -0.010758
N 1.588231 -0.963029 6.844799 -0.009197 0.004511 0.002003
N 1.648594 -0.903574 -3.182765 -0.031648 -0.015230 -0.042277
N 3.124322 1.781221 1.762549 -0.001674 -0.000346 0.017957
N 3.122154 1.790807 6.853349 -0.000924 -0.000544 -0.000400
N 3.128294 1.755544 -3.319746 0.000026 0.005284 -0.001174
N 6.341474 -3.706408 1.964619 -0.026183 0.019503 -0.036995
N 6.296496 -3.675629 6.881139 -0.000204 0.001493 0.012319
N 6.298933 -3.692887 -3.301868 0.001679 0.003398 -0.000806
N 4.667822 -0.996517 1.918235 0.033532 0.018367 -0.022570
N 4.726442 -0.952803 6.855372 -0.000184 0.005488 0.002068
N 4.694779 -0.904921 -3.287659 0.007063 -0.032535 0.010801
N -3.195488 1.790678 1.768837 0.001748 -0.002482 0.009778
N -3.197952 1.796411 6.846029 0.000813 -0.001241 -0.002373
N -3.191845 1.767867 -3.316530 0.000096 0.002777 -0.000050
N -0.028836 -3.667111 1.760872 0.001645 -0.001398 0.008623
N -0.027079 -3.672081 6.850881 -0.000369 0.002281 0.003152
N -0.006744 -3.696210 -3.258005 -0.007158 -0.002299 0.001706
N -1.604196 -0.953809 1.780307 -0.006213 0.004479 0.009589
N -1.592717 -0.947790 6.853706 0.000044 0.004977 0.004758
N -1.601987 -0.874936 -3.262055 -0.006766 -0.030157 -0.004897
