108
Energy=-2.542331e+06 Lattice="9.485408e+00 0.000000e+00 0.000000e+00 -4.744094e+00 8.211103e+00 0.000000e+00 -6.302962e-04 2.876490e-04 1.528929e+01" Stress="-8.579684e-02 6.818395e-03 8.252104e-05 6.812511e-03 -7.903763e-02 -2.925482e-04 8.217273e-05 -2.798077e-04 -8.311797e-02" Properties=species:S:1:pos:R:3:forces:R:3 Config_type=AlGaN_super3_46_2_1.xyz
Al 1.564376e+00 9.017981e-01 2.469796e+00 -9.941871e-04 -1.400533e-02 -8.557235e-03
Al 1.564320e+00 9.026505e-01 7.505102e+00 -1.189766e-03 -1.382258e-02 -3.613171e-03
Ga 1.565289e+00 9.014241e-01 -2.749716e+00 -1.587107e-03 -1.731893e-02 -3.778104e-03
Ga -2.388475e-03 3.613639e+00 2.468734e+00 -3.030232e-03 -1.252246e-03 -7.704345e-03
Al -1.486999e-03 3.613489e+00 7.505003e+00 -2.708134e-03 -1.368757e-03 -1.665841e-03
Ga -1.462946e-03 3.613533e+00 -2.749680e+00 -2.945293e-03 -1.325988e-03 -5.608919e-04
Ga 3.174713e+00 -1.884280e+00 2.468802e+00 -3.215393e-03 1.374939e-03 -8.593783e-03
Ga 3.175653e+00 -1.884349e+00 7.505277e+00 -3.456789e-03 1.344257e-03 -2.571892e-03
Ga 3.176073e+00 -1.884444e+00 -2.749604e+00 -2.918846e-03 1.765947e-03 -1.391196e-03
Ga -4.788444e+00 9.028484e-01 2.469832e+00 8.373582e-04 -1.569637e-02 -9.607972e-03
Ga -4.788539e+00 9.025339e-01 7.505566e+00 2.188910e-04 -1.595416e-02 -3.563920e-03
Al -4.787326e+00 9.018549e-01 -2.750729e+00 1.424947e-03 -1.261456e-02 -1.962315e-03
Ga -6.355027e+00 3.613765e+00 2.475434e+00 6.190002e-04 1.166826e-04 -7.383416e-03
Al -6.355320e+00 3.614020e+00 7.504656e+00 -1.774724e-04 1.194042e-04 -1.312278e-03
Ga -6.354141e+00 3.613495e+00 -2.752845e+00 -3.350242e-04 -4.690428e-04 -4.505858e-05
Ga -3.176990e+00 -1.884062e+00 2.469025e+00 -3.100917e-04 2.987023e-03 -7.489144e-03
Ga -3.177163e+00 -1.884545e+00 7.505714e+00 -4.212702e-04 2.510098e-03 -1.159797e-03
Ga -3.176359e+00 -1.883974e+00 -2.749637e+00 -5.661205e-04 3.142515e-03 -6.961675e-04
Ga -1.654929e+00 9.032140e-01 2.469851e+00 1.537086e-02 -8.570319e-03 -1.257096e-02
Ga -1.654634e+00 9.031604e-01 7.505776e+00 1.607940e-02 -8.518613e-03 -6.507212e-03
Ga -1.654693e+00 9.023716e-01 -2.749475e+00 1.537892e-02 -8.691883e-03 -5.808188e-03
Al -3.221421e+00 3.614940e+00 2.476296e+00 1.102260e-02 5.518488e-03 -8.223058e-03
Ga -3.221691e+00 3.614694e+00 7.504950e+00 1.440860e-02 7.960640e-03 -4.199151e-03
Ga -3.220612e+00 3.613983e+00 -2.752830e+00 1.478616e-02 7.021650e-03 -2.928506e-03
Ga -4.374312e-02 -1.882708e+00 2.475615e+00 1.449264e-02 9.530118e-03 -1.113591e-02
Ga -4.435893e-02 -1.883474e+00 7.504841e+00 1.465318e-02 1.004717e-02 -5.294545e-03
Ga -4.336053e-02 -1.883185e+00 -2.752544e+00 1.442499e-02 1.070551e-02 -3.757427e-03
Ga -1.467819e-03 1.805678e+00 4.988689e+00 -1.432920e-02 -1.070515e-02 -3.828389e-03
Ga -1.092820e-03 1.805282e+00 -5.268466e+00 -1.421630e-02 -1.050124e-02 -4.919232e-03
Ga -1.025721e-03 1.805197e+00 -2.271100e-01 -1.425713e-02 -1.063482e-02 3.522117e-02
Ga 3.175899e+00 -3.693112e+00 4.989098e+00 -1.516699e-02 -7.483097e-03 -3.274744e-03
Ga 3.176613e+00 -3.693362e+00 -5.268356e+00 -1.447655e-02 -7.693408e-03 -3.601093e-03
Ga 3.175216e+00 -3.693403e+00 -2.285133e-01 -1.467304e-02 -7.702090e-03 3.660006e-02
Ga 1.609253e+00 -9.803961e-01 4.989449e+00 -1.583847e-02 8.452792e-03 -6.680784e-03
Ga 1.609918e+00 -9.809680e-01 -5.268227e+00 -1.570762e-02 9.144776e-03 -6.749856e-03
Ga 1.609358e+00 -9.824166e-01 -2.278932e-01 -1.590212e-02 9.083257e-03 3.325311e-02
Ga 3.130519e+00 1.805953e+00 4.989507e+00 3.884714e-04 -3.117343e-03 -1.013316e-03
Ga 3.131633e+00 1.805338e+00 -5.268839e+00 -1.619444e-04 -2.944845e-03 -1.441117e-03
Ga 3.132789e+00 1.806495e+00 -2.305021e-01 2.635046e-04 -3.225252e-03 3.876135e-02
Ga 6.308317e+00 -3.692822e+00 4.989824e+00 4.796720e-04 -1.218201e-04 5.585006e-04
Ga 6.308904e+00 -3.693053e+00 -5.268813e+00 2.038286e-04 -3.517494e-04 -7.477266e-04
Ga 6.310694e+00 -3.693045e+00 -2.290389e-01 3.117194e-04 -4.223997e-04 3.988782e-02
Ga 4.741924e+00 -9.804804e-01 4.988572e+00 -8.546390e-04 1.635362e-02 -3.195832e-03
Ga 4.742554e+00 -9.804419e-01 -5.266934e+00 -7.734998e-04 1.600170e-02 -2.987560e-03
Ga 4.742742e+00 -9.804942e-01 -2.274608e-01 -8.667174e-04 1.628154e-02 3.574109e-02
Ga -3.221475e+00 1.806532e+00 4.988793e+00 2.913376e-03 -1.260064e-03 -2.664860e-03
Ga -3.220940e+00 1.805828e+00 -5.267846e+00 3.334328e-03 -1.671809e-03 -1.741191e-03
Ga -3.221655e+00 1.807100e+00 -2.309094e-01 3.156025e-03 -1.598714e-03 3.775880e-02
Al -4.408306e-02 -3.692282e+00 4.989839e+00 3.265413e-03 1.089459e-03 -2.423329e-03
Ga -4.331543e-02 -3.692472e+00 -5.269462e+00 2.706394e-03 1.044819e-03 -1.720962e-03
Al -4.264980e-02 -3.692717e+00 -2.489175e-01 3.038501e-03 1.158434e-03 3.404766e-02
Ga -1.610558e+00 -9.799360e-01 4.989474e+00 2.134993e-03 1.744909e-02 -4.462850e-03
Ga -1.609792e+00 -9.801152e-01 -5.267753e+00 1.826145e-03 1.769098e-02 -4.183642e-03
Ga -1.608854e+00 -9.816165e-01 -2.288453e-01 2.334570e-03 1.760928e-02 3.549445e-02
N 1.564220e+00 9.020885e-01 4.389207e+00 -9.777707e-04 -1.674288e-02 -1.785830e-02
N 1.565005e+00 9.016080e-01 -5.867223e+00 -1.156128e-03 -1.683603e-02 -1.759830e-02
N 1.565328e+00 9.013947e-01 -8.281034e-01 -1.098960e-03 -1.681020e-02 6.353426e-03
N -2.005994e-03 3.613925e+00 4.390260e+00 -2.082071e-03 3.973340e-04 4.377695e-04
N -1.460126e-03 3.613705e+00 -5.867265e+00 -2.276352e-03 1.181457e-04 -2.162468e-02
N -1.314499e-03 3.613945e+00 -8.276943e-01 -2.182735e-03 2.728393e-04 3.182388e-03
N 3.175349e+00 -1.884421e+00 4.390445e+00 -2.605731e-03 1.725053e-03 -3.471795e-04
N 3.176215e+00 -1.884694e+00 -5.865075e+00 -2.707952e-03 1.752355e-03 3.298358e-04
N 3.176032e+00 -1.884919e+00 -8.278401e-01 -2.539125e-03 1.599511e-03 2.516858e-03
N -4.788248e+00 9.023158e-01 4.390841e+00 3.717490e-04 -1.696521e-02 4.343842e-03
N -4.787378e+00 9.018231e-01 -5.865270e+00 6.648297e-04 -1.685518e-02 5.077773e-03
N -4.787292e+00 9.020241e-01 -8.312357e-01 4.442554e-04 -1.648421e-02 -1.517309e-02
N -6.354118e+00 3.614862e+00 4.394071e+00 1.740611e-02 1.101331e-02 9.108918e-03
N -6.353946e+00 3.614105e+00 -5.867534e+00 -3.966979e-04 3.698590e-04 -2.117240e-02
N -6.352777e+00 3.614597e+00 -8.341344e-01 1.709420e-02 1.084383e-02 1.137910e-02
N -3.177089e+00 -1.884209e+00 4.390658e+00 -1.221561e-03 1.912892e-03 -5.755061e-05
N -3.176544e+00 -1.884243e+00 -5.864833e+00 -1.099973e-03 2.269899e-03 7.266188e-04
N -3.176136e+00 -1.884520e+00 -8.280956e-01 -1.255439e-03 1.990027e-03 2.603064e-03
N -1.654892e+00 9.029160e-01 4.390758e+00 1.580157e-02 -9.343698e-03 8.087443e-03
N -1.654510e+00 9.024890e-01 -5.865022e+00 1.571451e-02 -9.164175e-03 8.344724e-03
N -1.654560e+00 9.022742e-01 -8.283508e-01 1.565196e-02 -9.095744e-03 1.053612e-02
N -3.222348e+00 3.615485e+00 4.392642e+00 -3.262725e-03 1.840713e-02 -9.859035e-03
N -3.220976e+00 3.614569e+00 -5.865584e+00 1.479662e-02 7.980192e-03 4.708285e-03
N -3.221646e+00 3.615116e+00 -8.345412e-01 -2.890694e-03 1.827318e-02 1.443790e-02
N -4.420193e-02 -1.884240e+00 4.394269e+00 1.385815e-02 -1.103240e-02 1.194184e-02
N -4.354449e-02 -1.883849e+00 -5.865715e+00 1.413229e-02 9.696712e-03 4.229983e-03
N -4.328254e-02 -1.885072e+00 -8.338532e-01 1.371150e-02 -1.097005e-02 1.419354e-02
N 4.506615e-05 1.804355e+00 1.870439e+00 3.637732e-03 -1.988604e-02 -2.456969e-02
N -1.571641e-04 1.806455e+00 6.908930e+00 3.604116e-03 9.674376e-04 1.840517e-02
N -1.062760e-03 1.805242e+00 -3.348216e+00 -1.414824e-02 -9.738072e-03 3.887616e-03
N 3.172440e+00 -3.694376e+00 1.872121e+00 -2.923180e-02 -1.620818e-02 -2.552089e-02
N 3.177341e+00 -3.693963e+00 6.908480e+00 3.446777e-03 -1.850873e-02 1.182254e-02
N 3.176775e+00 -3.693440e+00 -3.348751e+00 -1.490720e-02 -7.697244e-03 4.383544e-03
N 1.608428e+00 -9.788058e-01 1.872074e+00 -1.624504e-02 2.653897e-02 -2.200051e-02
N 1.609346e+00 -9.786689e-01 6.908584e+00 -1.596026e-02 2.635251e-02 1.397402e-02
N 1.609959e+00 -9.807854e-01 -3.348719e+00 -1.584029e-02 8.831979e-03 7.841674e-03
N 3.129275e+00 1.805733e+00 1.872749e+00 -1.726554e-02 -1.244082e-02 -2.897213e-02
N 3.129262e+00 1.806637e+00 6.909282e+00 -1.667707e-02 8.405158e-03 1.516598e-02
N 3.132842e+00 1.804461e+00 -3.348684e+00 1.904978e-02 -1.213431e-02 7.521286e-03
N 6.309292e+00 -3.692842e+00 1.871052e+00 3.571453e-04 -5.737818e-04 -3.535701e-02
N 6.308173e+00 -3.694363e+00 6.909467e+00 2.631630e-04 -2.096199e-02 1.544763e-02
N 6.308766e+00 -3.693075e+00 -3.348905e+00 7.080914e-04 -4.799794e-05 7.498453e-04
N 4.741905e+00 -9.802773e-01 1.868722e+00 -6.549447e-04 1.678431e-02 -3.135007e-02
N 4.741983e+00 -9.804057e-01 6.907970e+00 -1.327827e-04 1.700568e-02 4.022573e-03
N 4.742610e+00 -9.788683e-01 -3.347074e+00 -7.658923e-04 3.357672e-02 1.022190e-02
N -3.221769e+00 1.809726e+00 1.873006e+00 3.006519e-03 1.846670e-02 -2.913048e-02
N -3.221391e+00 1.806311e+00 6.908061e+00 2.773673e-03 -2.297238e-03 -1.461503e-04
N -3.221982e+00 1.804886e+00 -3.348218e+00 -1.530616e-02 -1.191833e-02 7.429088e-03
N -4.191840e-02 -3.693266e+00 1.888979e+00 2.008933e-02 -1.031099e-02 -4.482858e-02
N -4.537204e-02 -3.693133e+00 6.907057e+00 -1.600861e-02 -1.052897e-02 -1.430581e-02
N -4.327427e-02 -3.692533e+00 -3.350482e+00 2.193482e-03 2.149359e-04 7.950164e-04
N -1.609816e+00 -9.804736e-01 1.871191e+00 1.342670e-03 1.732812e-02 -3.195481e-02
N -1.610683e+00 -9.798010e-01 6.908349e+00 6.635908e-04 1.731770e-02 4.012246e-03
N -1.609824e+00 -9.799505e-01 -3.348455e+00 1.119400e-03 1.667834e-02 4.001037e-03
