108
Energy=-2.267684e+06 Lattice="9.620322e+00 0.000000e+00 0.000000e+00 -4.809321e+00 8.330155e+00 0.000000e+00 1.321637e-03 -7.809720e-04 1.559716e+01" Stress="-3.350906e-06 6.055423e-06 1.030741e-05 6.560622e-06 3.340438e-05 9.587624e-07 2.051654e-05 1.069212e-06 -4.897189e-06" Properties=species:S:1:pos:R:3:forces:R:3 Config_type=AlGaN_super3_40_0_13.xyz
Al 1.580523e+00 8.954541e-01 2.446510e+00 -2.169810e-05 -3.336650e-06 -1.726376e-07
Al 1.577712e+00 8.790858e-01 7.642792e+00 -2.893616e-06 3.771922e-06 -9.129839e-07
Al 1.574874e+00 8.893179e-01 -2.730953e+00 2.085151e-06 -1.234837e-06 -1.769376e-05
Al -5.802096e-03 3.663136e+00 2.450549e+00 -5.820075e-06 2.529087e-06 -2.615809e-05
Ga -2.024607e-02 3.662247e+00 7.634730e+00 6.168583e-06 1.556679e-06 -3.936991e-06
Ga -1.815518e-02 3.654322e+00 -2.728747e+00 3.063405e-06 3.359478e-06 1.591386e-05
Ga 3.195501e+00 -1.883682e+00 2.478551e+00 2.865950e-05 1.286605e-05 3.104556e-05
Ga 3.180959e+00 -1.892625e+00 7.626992e+00 3.919845e-06 -4.582179e-05 -1.461405e-05
Ga 3.178188e+00 -1.889220e+00 -2.749181e+00 -1.036546e-05 -4.005841e-05 -2.793045e-05
Al -4.838865e+00 8.734766e-01 2.467232e+00 -1.672484e-05 9.257283e-06 -6.813654e-06
Ga -4.844682e+00 8.768250e-01 7.636514e+00 -1.544310e-06 -1.554838e-06 1.056670e-05
Ga -4.844965e+00 8.852089e-01 -2.740174e+00 -4.155251e-06 -6.871389e-06 -4.880736e-05
Ga -6.460193e+00 3.658968e+00 2.457408e+00 3.406829e-05 2.944413e-05 -1.743686e-06
Ga -6.441487e+00 3.664049e+00 7.637244e+00 5.103435e-06 5.497132e-06 2.623409e-05
Ga -6.440337e+00 3.660601e+00 -2.737968e+00 -2.058460e-05 -2.093193e-05 -5.826019e-06
Al -3.244156e+00 -1.901389e+00 2.466485e+00 -1.735997e-05 -2.611843e-05 -1.156145e-05
Ga -3.228067e+00 -1.895838e+00 7.618459e+00 -7.384491e-06 -3.809743e-08 3.928055e-05
Ga -3.231589e+00 -1.896615e+00 -2.727152e+00 -3.786553e-06 3.095236e-06 -1.631397e-05
Ga -1.616620e+00 8.901550e-01 2.446132e+00 2.728013e-05 -2.303765e-05 1.775810e-05
Ga -1.607912e+00 8.775555e-01 7.639406e+00 8.264136e-07 3.570975e-06 -3.179862e-05
Ga -1.609456e+00 8.894326e-01 -2.725289e+00 -1.563506e-05 8.014878e-06 6.812119e-06
Ga -3.222622e+00 3.657402e+00 2.473782e+00 1.156752e-05 -1.275484e-05 -1.700932e-05
Ga -3.221908e+00 3.679346e+00 7.655622e+00 -8.492198e-06 -3.315813e-06 1.103650e-05
Ga -3.229516e+00 3.672362e+00 -2.763959e+00 -1.104106e-06 6.900247e-06 2.976122e-06
Ga -2.409015e-02 -1.881459e+00 2.459173e+00 1.058222e-05 3.375878e-06 5.865053e-06
Al -1.721837e-02 -1.887261e+00 7.656506e+00 -1.704307e-05 -8.245188e-06 1.033841e-05
Ga -1.794985e-02 -1.888875e+00 -2.755053e+00 5.718178e-06 -3.986581e-05 -1.891361e-05
Ga -8.913687e-03 1.831515e+00 5.037457e+00 1.597151e-06 -2.147756e-05 -8.013185e-06
Ga -1.611551e-02 1.816770e+00 -5.347890e+00 6.029364e-06 3.794770e-05 -3.597723e-05
Al -4.485809e-03 1.822369e+00 -1.288856e-01 3.207410e-06 -1.710548e-05 7.176711e-06
Al 3.206675e+00 -3.739388e+00 5.032558e+00 -1.296581e-05 7.092176e-06 -1.118496e-05
Al 3.178102e+00 -3.741667e+00 -5.349636e+00 -7.314557e-07 2.071044e-06 -1.145630e-05
Ga 3.200509e+00 -3.752566e+00 -1.252397e-01 1.711413e-05 -1.026787e-05 5.912789e-06
Ga 1.588588e+00 -9.618468e-01 5.065860e+00 -1.383691e-06 4.751797e-05 -1.317559e-06
Ga 1.577264e+00 -9.706064e-01 -5.364333e+00 -3.271748e-05 1.748117e-05 1.126338e-05
Ga 1.576777e+00 -9.478979e-01 -1.415219e-01 -9.743722e-07 -1.828113e-05 5.073693e-06
Ga 3.177745e+00 1.801956e+00 5.034924e+00 1.254847e-06 1.696933e-06 -1.367789e-05
Ga 3.174065e+00 1.814929e+00 -5.345464e+00 8.140064e-06 4.297775e-05 -9.415975e-06
Ga 3.164475e+00 1.811486e+00 -1.266594e-01 -3.072112e-05 3.856117e-05 -4.727962e-05
Al 6.368403e+00 -3.733278e+00 5.024087e+00 1.138536e-05 -5.418364e-06 -8.685531e-07
Ga 6.386379e+00 -3.743415e+00 -5.351259e+00 3.923882e-06 -8.721403e-06 5.104904e-07
Al 6.378796e+00 -3.747110e+00 -1.177798e-01 -1.736979e-05 -1.366856e-05 -1.511710e-05
Al 4.793081e+00 -9.777141e-01 5.021525e+00 -3.015463e-06 -3.828566e-06 -1.079099e-06
Ga 4.782516e+00 -9.772564e-01 -5.350012e+00 -7.590798e-06 -2.058932e-05 -7.392398e-06
Ga 4.794654e+00 -9.727321e-01 -1.115070e-01 1.699139e-06 1.890796e-05 -1.023005e-05
Ga -3.235377e+00 1.810309e+00 5.044051e+00 3.501568e-06 -9.152050e-06 1.129871e-05
Ga -3.228668e+00 1.826115e+00 -5.350117e+00 -3.516194e-06 4.400353e-07 2.667385e-06
Ga -3.226693e+00 1.813073e+00 -1.268687e-01 -7.707274e-07 -6.967101e-06 -4.989614e-05
Ga -2.253026e-02 -3.739441e+00 5.064000e+00 9.824222e-06 1.569037e-05 6.527492e-06
Al -1.741151e-02 -3.735218e+00 -5.366868e+00 2.083438e-05 2.956675e-06 3.783648e-06
Ga -3.143592e-02 -3.743933e+00 -1.356770e-01 9.745944e-07 -2.137438e-05 -1.379030e-05
Ga -1.640084e+00 -9.805404e-01 5.045678e+00 -1.017771e-06 -2.224402e-05 1.361180e-05
Ga -1.621519e+00 -9.768422e-01 -5.357772e+00 -3.489060e-05 8.942215e-06 4.565840e-06
Ga -1.633655e+00 -9.704109e-01 -1.262509e-01 -1.340393e-06 -9.521755e-06 -3.873881e-05
N 1.576510e+00 8.816263e-01 4.356648e+00 1.351717e-05 -2.311777e-05 3.161943e-05
N 1.579761e+00 8.875408e-01 -6.041332e+00 3.485312e-06 1.134646e-05 9.266670e-06
N 1.537069e+00 9.130977e-01 -8.072119e-01 2.508738e-05 -5.083408e-06 1.554084e-05
N -1.903433e-02 3.707990e+00 4.382120e+00 3.139200e-06 9.161106e-06 6.259059e-06
N -6.702767e-02 3.688276e+00 -5.976330e+00 -1.114633e-05 -3.227949e-05 1.238857e-05
N 2.078541e-02 3.638308e+00 -7.359440e-01 2.780997e-07 -1.889078e-05 -2.986168e-05
N 3.220353e+00 -1.912122e+00 4.463416e+00 -1.184370e-06 1.771149e-06 -8.539520e-06
N 3.184177e+00 -1.941878e+00 -5.979689e+00 4.009347e-05 -2.260419e-05 -1.057737e-05
N 3.184669e+00 -1.893371e+00 -7.661021e-01 2.521816e-05 8.720690e-07 8.553657e-06
N -4.834409e+00 8.380507e-01 4.387119e+00 1.581805e-05 6.717952e-06 1.689207e-08
N -4.837014e+00 8.835403e-01 -5.982739e+00 8.206667e-06 4.860995e-06 7.725650e-06
N -4.837566e+00 8.841288e-01 -7.641891e-01 8.145495e-06 1.166901e-06 2.925775e-05
N -6.480288e+00 3.688060e+00 4.440034e+00 -1.776862e-05 2.403766e-05 8.477756e-07
N -6.398423e+00 3.685886e+00 -5.971800e+00 2.409584e-06 -2.317830e-05 -2.162460e-06
N -6.482741e+00 3.686989e+00 -7.452995e-01 4.213012e-06 -2.595610e-05 2.826633e-05
N -3.270755e+00 -1.918690e+00 4.395030e+00 1.041133e-05 -8.495994e-07 1.596544e-06
N -3.233594e+00 -1.893739e+00 -6.003717e+00 5.188367e-06 2.394934e-06 -3.970491e-05
N -3.233310e+00 -1.943688e+00 -7.466370e-01 -3.478521e-06 -2.209658e-06 1.308184e-05
N -1.619253e+00 8.868871e-01 4.420604e+00 3.012976e-06 -3.060091e-06 -3.226836e-06
N -1.623660e+00 8.867504e-01 -5.982050e+00 -7.405920e-07 2.989818e-06 4.704241e-05
N -1.578070e+00 9.128632e-01 -7.325688e-01 7.491319e-06 8.680404e-06 1.906298e-05
N -3.186785e+00 3.689498e+00 4.447471e+00 -2.269968e-05 -2.917557e-05 -2.693798e-05
N -3.225447e+00 3.715261e+00 -5.948504e+00 9.099837e-06 -3.237004e-06 2.201392e-06
N -3.226971e+00 3.667328e+00 -7.814789e-01 1.914684e-05 -4.255432e-06 4.645793e-05
N -1.759137e-02 -1.889173e+00 4.423094e+00 7.616875e-06 -4.813230e-06 -1.688262e-05
N -2.277480e-02 -1.936337e+00 -6.017044e+00 2.653958e-05 -2.099345e-05 -1.998781e-05
N -2.410720e-02 -1.891237e+00 -7.767522e-01 2.005392e-05 -9.455014e-06 -7.800034e-06
N 2.685081e-02 1.840192e+00 1.805941e+00 2.272711e-05 1.794047e-05 -2.173030e-06
N 2.584512e-02 1.791124e+00 7.018706e+00 -1.128541e-05 5.558153e-06 -3.683699e-06
N 2.238648e-02 1.788994e+00 -3.363884e+00 -4.377467e-06 2.561919e-05 4.036554e-05
N 3.226917e+00 -3.765282e+00 1.853788e+00 -4.112686e-05 5.670405e-05 -2.426356e-05
N 3.188942e+00 -3.746523e+00 6.948222e+00 5.367366e-06 3.680287e-05 1.724681e-05
N 3.192313e+00 -3.743048e+00 -3.427665e+00 -2.362742e-06 4.094273e-05 1.836995e-05
N 1.585126e+00 -9.157783e-01 1.840296e+00 8.790974e-07 -1.104942e-05 -9.048293e-06
N 1.538450e+00 -9.400645e-01 7.055991e+00 -1.069810e-05 -6.841248e-06 -1.211620e-05
N 1.579889e+00 -9.109975e-01 -3.371492e+00 -6.324821e-06 3.645431e-07 2.715199e-06
N 3.185027e+00 1.761208e+00 1.864023e+00 -4.369997e-06 -7.156581e-06 1.092609e-05
N 3.139292e+00 1.784400e+00 7.019469e+00 1.720890e-06 -4.492776e-06 -8.658377e-06
N 3.135445e+00 1.787996e+00 -3.356552e+00 8.705041e-06 -8.718436e-06 6.561796e-06
N 6.345267e+00 -3.715154e+00 1.811170e+00 7.176686e-06 4.739945e-06 6.363026e-06
N 6.386583e+00 -3.745470e+00 6.943590e+00 -5.990323e-06 -9.243250e-07 -2.579067e-06
N 6.387278e+00 -3.743200e+00 -3.379150e+00 7.474296e-06 -3.654730e-06 -3.590876e-06
N 4.828863e+00 -9.435248e-01 1.872972e+00 2.635584e-06 1.746374e-05 3.463063e-06
N 4.789107e+00 -9.654126e-01 6.941939e+00 -3.792897e-07 -1.499072e-07 -2.909590e-06
N 4.788841e+00 -9.678897e-01 -3.376444e+00 -1.374757e-06 1.434911e-05 -2.404695e-06
N -3.274838e+00 1.787690e+00 1.853194e+00 -3.696460e-05 2.930980e-05 5.273370e-05
N -3.230043e+00 1.813728e+00 7.021764e+00 2.390313e-06 4.434548e-06 -2.283660e-06
N -3.226749e+00 1.807615e+00 -3.370842e+00 -1.633686e-06 4.854335e-06 9.759338e-06
N -2.464759e-02 -3.745937e+00 1.834662e+00 -2.175350e-05 -1.894902e-05 9.971996e-06
N -2.132173e-02 -3.693933e+00 7.041119e+00 -9.174397e-06 -1.644862e-05 -1.402807e-05
N -2.960763e-02 -3.740647e+00 -3.440628e+00 2.609213e-06 3.044462e-05 1.373712e-05
N -1.674804e+00 -9.932416e-01 1.852546e+00 -1.471946e-05 -1.847029e-06 6.074150e-05
N -1.581827e+00 -9.943462e-01 7.026545e+00 -6.118551e-06 1.167109e-05 -1.517875e-05
N -1.629943e+00 -9.640660e-01 -3.376083e+00 -9.117591e-06 2.047360e-05 1.188106e-05
