108
Energy=-1.397949e+06 Lattice="9.507973e+00 0.000000e+00 0.000000e+00 -4.756596e+00 8.230832e+00 0.000000e+00 -3.990764e-05 3.062030e-03 1.534590e+01" Stress="-1.317258e-03 -2.125842e-04 9.129095e-05 -2.195826e-04 -1.681610e-03 -5.647878e-05 8.501646e-05 -5.276357e-05 -1.065417e-03" Properties=species:S:1:pos:R:3:forces:R:3 Config_type=AlGaN_super3_21_1_26.xyz
Al 1.565984e+00 8.695798e-01 2.391030e+00 -2.530923e-05 2.758727e-05 -1.895988e-04
Al 1.547521e+00 8.820651e-01 7.535838e+00 1.172268e-04 1.827967e-04 1.963588e-04
Al 1.580948e+00 8.686075e-01 -2.694399e+00 -1.863160e-04 -3.652046e-05 -3.898948e-04
Al -3.543921e-02 3.625727e+00 2.415681e+00 4.251024e-04 2.489564e-04 -9.596172e-05
Al -1.879751e-02 3.608538e+00 7.504361e+00 7.708778e-05 1.670561e-05 3.676683e-05
Ga -2.434563e-02 3.622105e+00 -2.692509e+00 -7.946538e-05 8.474898e-05 5.199029e-05
Al 3.148133e+00 -1.872832e+00 2.369378e+00 -6.399105e-05 1.208442e-04 -7.207547e-05
Ga 3.146792e+00 -1.873111e+00 7.520950e+00 3.032610e-05 4.303149e-05 7.980657e-05
Al 3.144247e+00 -1.860741e+00 -2.663996e+00 -1.622928e-04 2.096386e-05 -4.816545e-05
Al -4.776211e+00 8.714447e-01 2.367257e+00 -5.873049e-04 2.460478e-04 -3.802572e-04
Ga -4.774500e+00 8.807756e-01 7.538371e+00 2.293380e-04 2.266544e-05 1.554844e-04
Al -4.784633e+00 8.794630e-01 -2.674939e+00 -2.281399e-04 -8.266151e-05 1.032638e-04
Ga -6.362881e+00 3.615280e+00 2.414727e+00 -3.703927e-05 -2.352305e-04 -9.576544e-05
Ga -6.374345e+00 3.620742e+00 7.532365e+00 -2.122172e-05 8.445067e-05 2.828601e-05
Al -6.360815e+00 3.603966e+00 -2.711774e+00 1.680339e-04 -6.488148e-05 -4.226952e-05
Al -3.199047e+00 -1.866547e+00 2.387214e+00 1.594732e-04 7.760469e-04 1.590263e-04
Ga -3.188246e+00 -1.877841e+00 7.540012e+00 -7.483028e-05 -4.632050e-07 1.616633e-05
Al -3.188556e+00 -1.858516e+00 -2.694494e+00 4.691836e-05 -1.347510e-04 3.573277e-04
Ga -1.614896e+00 8.810361e-01 2.402426e+00 7.292305e-05 -9.428099e-05 1.260604e-04
Al -1.598192e+00 8.893415e-01 7.505064e+00 1.772479e-04 -8.024337e-05 -7.170864e-05
Al -1.621274e+00 8.673244e-01 -2.676038e+00 2.006646e-05 -2.929731e-04 2.584430e-04
Al -3.185009e+00 3.621794e+00 2.407456e+00 3.941379e-04 -5.584670e-04 2.207470e-04
Ga -3.184359e+00 3.616468e+00 7.504260e+00 8.790676e-06 -1.930028e-04 8.515059e-05
Al -3.194990e+00 3.611493e+00 -2.681322e+00 -2.034600e-04 2.708507e-04 1.698051e-04
Al -1.387274e-02 -1.862184e+00 2.380817e+00 5.908270e-05 -3.754079e-04 9.751362e-06
Ga -1.823124e-02 -1.858523e+00 7.558027e+00 7.830673e-05 -2.183345e-04 2.148103e-04
Ga -2.173973e-02 -1.857042e+00 -2.706730e+00 4.769954e-05 -2.336180e-05 1.216256e-04
Al -2.375404e-02 1.807735e+00 4.964887e+00 1.216324e-04 -7.134632e-05 -8.178604e-05
Ga -1.339553e-02 1.774135e+00 -5.261769e+00 -1.558820e-04 1.985664e-04 1.534430e-04
Ga -2.126655e-02 1.776022e+00 -1.473830e-01 -2.838362e-05 1.030743e-04 1.360417e-04
Al 3.153127e+00 -3.714294e+00 4.930060e+00 -3.475513e-05 1.671830e-04 -2.069864e-05
Ga 3.144237e+00 -3.692852e+00 -5.244247e+00 -9.131188e-05 1.987244e-04 4.765840e-05
Al 3.135067e+00 -3.691590e+00 -1.319518e-01 8.335484e-06 -6.198957e-05 3.107907e-06
Ga 1.557702e+00 -9.579369e-01 4.936615e+00 2.811101e-05 9.466691e-05 -1.289812e-05
Al 1.562924e+00 -9.468702e-01 -5.238324e+00 -1.537790e-04 1.946209e-04 1.453138e-04
Al 1.575209e+00 -9.487841e-01 -1.390485e-01 -5.737286e-05 4.488621e-05 -1.672690e-06
Ga 3.142788e+00 1.793132e+00 4.952402e+00 2.008481e-04 -6.975634e-05 6.118265e-05
Al 3.133787e+00 1.793361e+00 -5.235746e+00 -4.050534e-05 -2.078650e-04 -9.049294e-05
Al 3.152741e+00 1.770820e+00 -1.557360e-01 -1.008856e-04 1.883845e-04 3.269300e-04
Al 6.303283e+00 -3.702153e+00 4.944054e+00 2.976059e-06 2.803031e-04 6.478546e-05
Al 6.332343e+00 -3.699766e+00 -5.239165e+00 5.591877e-06 -2.575602e-04 -4.251221e-04
Ga 6.316742e+00 -3.685420e+00 -1.421547e-01 1.361492e-04 -2.161775e-04 -1.397285e-04
Ga 4.737546e+00 -9.583200e-01 4.923506e+00 -1.190113e-04 -1.967501e-05 3.203550e-05
Ga 4.729940e+00 -9.577467e-01 -5.210403e+00 -1.184873e-04 -1.202824e-04 7.068383e-05
Al 4.729630e+00 -9.472257e-01 -1.583286e-01 2.737563e-07 1.327952e-04 2.783585e-05
Al -3.190382e+00 1.805616e+00 4.943346e+00 -2.433745e-05 1.964694e-05 2.051288e-04
Ga -3.193492e+00 1.787536e+00 -5.226824e+00 1.173802e-04 4.592790e-05 1.854522e-04
Al -3.200950e+00 1.788024e+00 -1.607343e-01 -2.933319e-04 1.526064e-05 3.514239e-04
Al -1.125316e-02 -3.695586e+00 4.933287e+00 1.025010e-04 -1.769093e-04 6.007565e-05
Al -3.443273e-02 -3.697408e+00 -5.224720e+00 1.790104e-05 6.700622e-05 1.210670e-04
Ga -1.017107e-02 -3.703792e+00 -1.489874e-01 1.904027e-04 1.254506e-04 -1.038098e-04
Ga -1.604023e+00 -9.587307e-01 4.952705e+00 -2.235448e-04 -1.282604e-04 8.564726e-05
Al -1.605144e+00 -9.546004e-01 -5.245202e+00 1.773074e-04 -8.370818e-05 -3.362561e-05
Al -1.617624e+00 -9.473181e-01 -1.439899e-01 1.926540e-04 -1.539111e-04 -1.508684e-04
N 1.517118e+00 9.011446e-01 4.299472e+00 9.061906e-05 8.803123e-05 1.570500e-04
N 1.603507e+00 8.494398e-01 -5.888288e+00 2.556177e-04 5.778184e-05 -1.830159e-05
N 1.606051e+00 8.472927e-01 -7.813823e-01 3.146128e-04 -1.839252e-04 3.591254e-04
N -2.448775e-02 3.615120e+00 4.339356e+00 -1.152361e-04 7.036920e-06 1.168855e-05
N 1.885952e-02 3.642165e+00 -5.908862e+00 1.015567e-04 5.682352e-05 -6.970047e-05
N -6.634355e-02 3.644142e+00 -7.350027e-01 -6.674600e-05 4.348385e-05 8.776234e-06
N 3.145812e+00 -1.918069e+00 4.284689e+00 1.060921e-04 -8.686189e-05 6.011295e-06
N 3.109364e+00 -1.845305e+00 -5.855951e+00 -5.475215e-05 3.924978e-05 -1.780888e-04
N 3.143297e+00 -1.870781e+00 -7.378724e-01 -1.091447e-04 -9.785460e-07 1.623870e-04
N -4.736335e+00 9.040198e-01 4.283889e+00 1.590857e-04 -6.105338e-05 1.379822e-04
N -4.817298e+00 8.969206e-01 -5.835406e+00 -5.154041e-05 1.098725e-04 2.505396e-05
N -4.780135e+00 8.764267e-01 -7.543901e-01 1.580984e-05 1.969185e-05 7.720972e-05
N -6.363143e+00 3.665423e+00 4.383213e+00 -1.732251e-04 3.049714e-05 -1.323256e-04
N -6.361739e+00 3.618002e+00 -5.816093e+00 -5.270661e-05 1.128850e-04 -8.208960e-06
N -6.364093e+00 3.568466e+00 -7.952387e-01 -1.830408e-04 -8.172536e-05 2.153741e-05
N -3.186668e+00 -1.914153e+00 4.294680e+00 7.317408e-05 -1.519890e-04 -1.115203e-04
N -3.153803e+00 -1.894809e+00 -5.825181e+00 4.073373e-05 8.723129e-05 3.443130e-06
N -3.188056e+00 -1.820048e+00 -7.771406e-01 -7.303777e-05 -1.723791e-04 -6.089035e-04
N -1.606415e+00 9.256925e-01 4.378737e+00 1.197392e-04 -1.931366e-05 -1.171841e-04
N -1.613425e+00 8.325405e-01 -5.918791e+00 -1.340749e-07 -6.814618e-05 -1.701561e-04
N -1.650765e+00 8.495177e-01 -7.621133e-01 2.666408e-04 -1.004961e-04 4.440394e-08
N -3.190485e+00 3.618432e+00 4.335402e+00 2.075375e-05 -1.114716e-04 -7.941626e-05
N -3.238757e+00 3.641461e+00 -5.863591e+00 -7.163586e-05 -1.766594e-04 -1.781968e-04
N -3.149842e+00 3.596354e+00 -7.730894e-01 1.743142e-04 1.449342e-04 8.858297e-05
N -2.310197e-02 -1.909624e+00 4.289321e+00 -3.129021e-05 -8.497637e-05 -2.690548e-04
N -2.006710e-02 -1.870949e+00 -5.792153e+00 -5.196178e-05 -4.527105e-05 -7.190525e-06
N -2.149207e-02 -1.815368e+00 -7.266768e-01 -2.106403e-06 3.714744e-05 -5.336278e-05
N 1.674599e-02 1.815236e+00 1.820961e+00 2.235809e-04 -1.618978e-04 -7.315921e-06
N -1.682641e-02 1.790680e+00 6.906019e+00 -8.767638e-05 1.379154e-04 -8.135402e-05
N -2.543818e-02 1.734530e+00 -3.274037e+00 3.326748e-04 3.482181e-05 -6.232406e-05
N 3.144607e+00 -3.703606e+00 1.791269e+00 2.945308e-05 3.428105e-05 -4.851316e-05
N 3.192905e+00 -3.721316e+00 6.852780e+00 5.364575e-05 1.770723e-05 5.907632e-05
N 3.104336e+00 -3.670191e+00 -3.272018e+00 6.869591e-05 8.300639e-05 -1.171729e-05
N 1.565820e+00 -9.489050e-01 1.782363e+00 -2.060159e-04 -9.755141e-05 -9.652616e-05
N 1.561337e+00 -9.060627e-01 6.913145e+00 -4.221289e-04 1.834980e-04 -1.310224e-04
N 1.611850e+00 -9.292696e-01 -3.323260e+00 7.261696e-05 8.147941e-05 7.530946e-05
N 3.142471e+00 1.744743e+00 1.763506e+00 2.961389e-04 -8.808051e-05 -3.024886e-04
N 3.104017e+00 1.764207e+00 6.924127e+00 -9.911622e-05 -9.484288e-05 -1.118042e-04
N 3.145090e+00 1.784505e+00 -3.311778e+00 2.073073e-06 -4.635864e-05 8.409948e-05
N 6.276148e+00 -3.675977e+00 1.825132e+00 -3.204208e-04 -7.300643e-04 5.276745e-07
N 6.276179e+00 -3.717866e+00 6.862315e+00 -9.381964e-05 -9.093205e-05 -3.106239e-05
N 6.357539e+00 -3.673964e+00 -3.322166e+00 -1.333313e-04 4.656582e-04 4.729984e-04
N 4.733927e+00 -9.545353e-01 1.771201e+00 -9.237331e-05 -2.435233e-06 -6.923868e-06
N 4.737243e+00 -9.518962e-01 6.892857e+00 -1.754548e-04 -3.216945e-05 -2.432843e-04
N 4.726867e+00 -9.541091e-01 -3.227970e+00 5.590446e-06 -6.444479e-05 2.196741e-05
N -3.233954e+00 1.820039e+00 1.758262e+00 3.355539e-04 1.254121e-04 -2.607683e-04
N -3.158096e+00 1.766500e+00 6.861107e+00 1.756823e-05 3.780111e-05 -2.317724e-04
N -3.192775e+00 1.786499e+00 -3.242993e+00 1.805270e-05 2.943305e-04 -2.340044e-04
N 2.261143e-02 -3.680987e+00 1.821754e+00 -4.480022e-04 7.342321e-04 -1.198899e-04
N -2.275269e-02 -3.687690e+00 6.850142e+00 -2.082617e-05 1.380901e-04 -1.496906e-04
N -1.854262e-02 -3.745922e+00 -3.308517e+00 1.038393e-05 -1.123392e-04 -9.114336e-05
N -1.609745e+00 -9.965241e-01 1.769888e+00 -1.756175e-04 -2.040862e-04 5.323631e-04
N -1.603384e+00 -9.121661e-01 6.925133e+00 -1.046002e-04 -1.624806e-05 4.183288e-05
N -1.651098e+00 -9.213959e-01 -3.330577e+00 -9.170404e-05 -1.803751e-04 -1.461344e-04
