108
Energy=-1.031745e+06 Lattice="9.466856e+00 0.000000e+00 0.000000e+00 -4.736398e+00 8.197394e+00 0.000000e+00 5.607523e-03 3.491279e-04 1.523917e+01" Stress="2.759385e-05 -1.668227e-04 2.172709e-04 -1.685651e-04 -8.961162e-06 3.459601e-05 2.239710e-04 2.836102e-05 6.963040e-05" Properties=species:S:1:pos:R:3:forces:R:3 Config_type=AlGaN_super3_13_0_23.xyz
Al 1.552514e+00 8.772677e-01 2.408826e+00 -2.965391e-05 1.859624e-04 1.695027e-04
Al 1.553897e+00 8.776823e-01 7.443606e+00 2.094674e-04 -9.270985e-05 2.297573e-04
Al 1.540543e+00 8.769689e-01 -2.686197e+00 1.477527e-05 -1.928614e-04 -1.605358e-04
Al -2.415649e-02 3.596461e+00 2.366030e+00 -2.060816e-05 -1.011499e-05 1.704260e-04
Al -1.924633e-02 3.587138e+00 7.487828e+00 -2.919908e-04 -4.354658e-05 1.419812e-05
Al -3.824045e-02 3.594280e+00 -2.683342e+00 -1.749521e-04 -7.721982e-05 6.908735e-05
Al 3.130684e+00 -1.862817e+00 2.404368e+00 3.659330e-04 9.774023e-05 1.262498e-04
Al 3.136630e+00 -1.849758e+00 7.461636e+00 -1.477579e-04 -2.238619e-04 -1.568595e-04
Al 3.124294e+00 -1.875527e+00 -2.690319e+00 2.984146e-04 8.250932e-06 3.435471e-04
Al -4.755566e+00 8.803099e-01 2.402003e+00 7.496552e-05 2.556092e-04 2.093862e-05
Al -4.765626e+00 8.703257e-01 7.447088e+00 4.688873e-05 -1.047116e-04 -5.417104e-05
Ga -4.769601e+00 8.731209e-01 -2.672883e+00 1.244626e-04 -2.610522e-04 1.438252e-04
Al -6.335274e+00 3.599819e+00 2.367236e+00 4.901793e-06 1.763449e-06 1.192313e-04
Al -6.339914e+00 3.587529e+00 7.475086e+00 3.750500e-04 -2.584133e-04 7.047872e-05
Ga -6.345051e+00 3.595284e+00 -2.662860e+00 1.739443e-05 -3.531355e-05 1.480392e-04
Al -3.170075e+00 -1.859376e+00 2.397388e+00 1.894623e-04 -8.036966e-05 2.504746e-04
Ga -3.171582e+00 -1.850508e+00 7.473351e+00 2.651997e-06 1.727710e-04 -3.062727e-05
Ga -3.174200e+00 -1.862513e+00 -2.694042e+00 1.895068e-04 2.550038e-04 1.563999e-04
Al -1.597901e+00 8.747595e-01 2.386254e+00 1.316154e-04 -8.701208e-05 -2.204993e-05
Al -1.584225e+00 8.709514e-01 7.449535e+00 3.427165e-04 -1.518425e-04 3.704544e-04
Al -1.580883e+00 8.739751e-01 -2.669257e+00 -5.181874e-06 -3.196720e-04 -1.116722e-04
Al -3.177070e+00 3.599969e+00 2.372124e+00 3.939343e-05 -1.259250e-04 1.057678e-04
Ga -3.172371e+00 3.599122e+00 7.469611e+00 1.531618e-04 3.253891e-05 -3.514614e-05
Al -3.161583e+00 3.613913e+00 -2.663735e+00 1.039365e-04 1.185126e-04 -9.687034e-05
Al -2.308832e-02 -1.856764e+00 2.390301e+00 -4.225148e-05 6.842498e-05 1.694926e-05
Al -1.778452e-02 -1.842300e+00 7.452148e+00 -5.870284e-06 -1.177977e-04 -2.495806e-04
Al -1.946403e-02 -1.851388e+00 -2.665194e+00 -1.039845e-03 6.111124e-04 -4.752752e-05
Al -2.472954e-02 1.770837e+00 4.920530e+00 -5.604519e-05 -1.699363e-04 2.482886e-04
Al -2.212647e-02 1.786581e+00 -5.229870e+00 -2.558503e-04 -1.108121e-05 1.183155e-04
Al -2.511424e-02 1.788705e+00 -1.451050e-01 -1.440511e-05 -4.016324e-04 -3.241370e-04
Ga 3.144340e+00 -3.685095e+00 4.918456e+00 -1.037301e-04 5.189493e-05 1.601318e-04
Al 3.156975e+00 -3.680497e+00 -5.216620e+00 1.561181e-04 3.414339e-04 -7.578417e-05
Al 3.136480e+00 -3.695305e+00 -1.427809e-01 -8.530274e-05 2.228692e-04 4.199577e-04
Al 1.557493e+00 -9.363993e-01 4.923967e+00 -1.211708e-04 5.544037e-05 1.590328e-04
Ga 1.558057e+00 -9.399710e-01 -5.228358e+00 -3.566559e-04 2.479703e-04 -5.854138e-05
Ga 1.550133e+00 -9.443999e-01 -1.420517e-01 -2.656405e-04 1.523517e-04 6.467485e-04
Al 3.134342e+00 1.770722e+00 4.920516e+00 -9.868628e-06 -1.415669e-04 1.623323e-04
Al 3.117296e+00 1.777182e+00 -5.252229e+00 -1.056474e-04 3.569119e-04 -6.196426e-04
Al 3.122024e+00 1.789485e+00 -1.125240e-01 2.898189e-04 -8.487206e-05 1.475465e-04
Ga 6.289857e+00 -3.691277e+00 4.922037e+00 5.353804e-05 -3.044883e-05 1.493535e-04
Al 6.275058e+00 -3.693200e+00 -5.237550e+00 3.693905e-04 -2.676049e-04 -4.506850e-04
Al 6.285152e+00 -3.690110e+00 -1.251444e-01 3.673339e-04 -1.621861e-04 2.343746e-04
Al 4.710641e+00 -9.335716e-01 4.911740e+00 -1.584327e-04 7.032965e-06 8.364913e-05
Al 4.705006e+00 -9.528130e-01 -5.238980e+00 -2.746992e-04 1.961489e-04 9.489105e-05
Ga 4.716013e+00 -9.540587e-01 -1.119788e-01 -1.937613e-04 1.814145e-04 -1.138357e-04
Al -3.175947e+00 1.762349e+00 4.914066e+00 1.184839e-05 -2.340576e-04 1.801534e-04
Ga -3.171555e+00 1.764585e+00 -5.223058e+00 9.375024e-05 -3.629963e-05 1.440519e-04
Al -3.167978e+00 1.791209e+00 -1.373818e-01 4.337465e-05 -1.901548e-04 2.144163e-04
Ga -2.618760e-02 -3.682412e+00 4.916120e+00 2.427971e-06 -2.737458e-06 7.908640e-05
Ga -3.592099e-02 -3.675468e+00 -5.219947e+00 -2.747640e-05 -6.797221e-05 -1.135540e-04
Al -2.035136e-02 -3.684571e+00 -1.354566e-01 3.552757e-04 2.630298e-04 7.818846e-04
Al -1.594077e+00 -9.310170e-01 4.909989e+00 -7.370257e-05 3.574303e-05 4.080669e-04
Al -1.598344e+00 -9.391777e-01 -5.229546e+00 3.131514e-04 5.412913e-05 2.668833e-04
Al -1.596112e+00 -9.450160e-01 -1.271139e-01 6.611198e-05 1.226856e-04 3.245305e-04
N 1.553605e+00 8.752619e-01 4.330333e+00 9.869826e-05 -4.982645e-05 -1.284944e-04
N 1.545083e+00 9.189677e-01 -5.873702e+00 9.109596e-05 -1.800962e-04 -4.253675e-04
N 1.556195e+00 9.262279e-01 -7.700939e-01 -2.976430e-05 3.262056e-05 1.799247e-05
N -2.200890e-02 3.550167e+00 4.268202e+00 -6.376309e-06 2.805899e-05 -3.556278e-04
N -3.054414e-02 3.596263e+00 -5.832045e+00 -6.556567e-05 -2.180561e-05 -1.459851e-04
N -2.416140e-02 3.603930e+00 -7.515712e-01 7.640101e-05 1.059682e-05 2.849405e-05
N 3.131629e+00 -1.816026e+00 4.310953e+00 3.574509e-05 8.937310e-05 -2.834008e-04
N 3.169806e+00 -1.883975e+00 -5.859262e+00 1.828060e-05 -4.773820e-04 3.477384e-04
N 3.137384e+00 -1.907986e+00 -7.808413e-01 3.917458e-05 -2.752351e-04 -2.279495e-04
N -4.756391e+00 8.775765e-01 4.319441e+00 6.082009e-05 1.156574e-04 -4.558870e-05
N -4.798436e+00 8.489057e-01 -5.867725e+00 2.461301e-05 -9.732224e-05 -2.953986e-05
N -4.762037e+00 9.195994e-01 -7.006979e-01 -2.295052e-04 1.404608e-06 7.951876e-05
N -6.335576e+00 3.552933e+00 4.272195e+00 -8.859221e-06 1.608533e-05 -3.188924e-04
N -6.376340e+00 3.578780e+00 -5.852732e+00 -4.401417e-04 4.190429e-05 6.232467e-04
N -6.337709e+00 3.600795e+00 -6.807653e-01 -7.213764e-04 9.785467e-05 1.766431e-04
N -3.172653e+00 -1.816396e+00 4.313790e+00 1.229822e-04 4.811751e-05 -3.076795e-04
N -3.175911e+00 -1.856143e+00 -5.778903e+00 1.857378e-04 -2.451023e-04 -1.382726e-04
N -3.135330e+00 -1.884718e+00 -7.149444e-01 1.039557e-04 -8.750231e-05 2.730080e-06
N -1.597804e+00 8.758179e-01 4.307004e+00 2.546880e-04 -3.877965e-05 -1.505970e-04
N -1.557720e+00 8.494157e-01 -5.868957e+00 2.371061e-04 1.354128e-04 -2.376313e-04
N -1.597036e+00 8.697460e-01 -7.439836e-01 1.306703e-04 -1.774096e-04 9.451586e-06
N -3.177812e+00 3.553712e+00 4.284014e+00 1.302207e-04 2.628723e-05 -3.537565e-04
N -3.138600e+00 3.625885e+00 -5.806823e+00 -5.455869e-05 7.165473e-06 -3.005424e-05
N -3.177183e+00 3.606813e+00 -7.388240e-01 1.171107e-04 1.071988e-05 1.300861e-04
N -1.944604e-02 -1.812342e+00 4.302019e+00 8.134728e-06 7.864967e-05 -1.590761e-04
N -6.263054e-02 -1.832266e+00 -5.880141e+00 -9.600602e-05 8.700607e-05 3.697064e-04
N -6.744138e-02 -1.880772e+00 -7.538945e-01 1.016733e-04 -2.200995e-04 -7.494666e-06
N -1.970507e-02 1.775009e+00 1.772787e+00 -6.315372e-05 3.545050e-04 3.130679e-04
N -2.211827e-02 1.787373e+00 6.844527e+00 -9.624163e-05 1.383747e-04 -1.227793e-04
N -2.660338e-02 1.782300e+00 -3.297620e+00 -1.305724e-04 -8.539938e-05 -8.205216e-05
N 3.135983e+00 -3.678602e+00 1.780049e+00 -1.060233e-04 6.363825e-05 -3.776557e-04
N 3.185472e+00 -3.660143e+00 6.887411e+00 8.677981e-05 -2.126818e-05 9.796578e-05
N 3.137081e+00 -3.685152e+00 -3.291715e+00 -1.585822e-04 -7.409485e-05 -4.680640e-05
N 1.558143e+00 -9.438437e-01 1.838255e+00 -5.834768e-05 -4.096078e-04 -6.915747e-04
N 1.561924e+00 -9.488759e-01 6.852784e+00 -2.286746e-04 1.319015e-04 -8.630838e-05
N 1.551974e+00 -9.492817e-01 -3.238157e+00 3.298659e-04 5.479874e-04 4.070776e-05
N 3.127595e+00 1.773266e+00 1.798326e+00 -9.406478e-05 -1.316575e-05 -2.944253e-04
N 3.134861e+00 1.784234e+00 6.844568e+00 -5.421873e-05 2.655068e-05 -7.735608e-05
N 3.087175e+00 1.758469e+00 -3.343211e+00 -1.091977e-04 -2.957963e-05 1.576874e-04
N 6.286540e+00 -3.678606e+00 1.790895e+00 -1.837426e-05 -2.622989e-05 -3.544185e-04
N 6.289803e+00 -3.730029e+00 6.898601e+00 -2.379201e-04 8.911903e-05 -1.702863e-04
N 6.245379e+00 -3.714730e+00 -3.326626e+00 4.202055e-05 4.360526e-05 -8.236099e-05
N 4.711746e+00 -9.487530e-01 1.857948e+00 -4.972773e-04 -4.367134e-04 -4.182003e-05
N 4.675447e+00 -9.280126e-01 6.830068e+00 -3.017502e-06 2.803016e-04 -3.062727e-06
N 4.665664e+00 -9.706681e-01 -3.327961e+00 -1.988455e-04 3.705918e-05 -9.908836e-05
N -3.175443e+00 1.778701e+00 1.782743e+00 9.168027e-05 2.495140e-04 -1.515756e-04
N -3.173993e+00 1.731052e+00 6.836630e+00 -3.441421e-04 5.290638e-05 -2.703865e-04
N -3.136467e+00 1.801210e+00 -3.244256e+00 7.887319e-05 1.744818e-04 1.349085e-04
N -1.662780e-02 -3.677175e+00 1.787774e+00 1.460841e-05 9.316423e-05 -7.067409e-04
N -6.325820e-02 -3.660260e+00 6.891669e+00 -5.611878e-05 2.119261e-04 4.704705e-06
N 1.496983e-02 -3.658580e+00 -3.241613e+00 2.422723e-04 -3.956536e-04 1.279375e-04
N -1.597222e+00 -9.462677e-01 1.790491e+00 -1.129749e-04 4.185779e-05 -2.844061e-04
N -1.558209e+00 -9.232997e-01 6.823993e+00 1.578502e-04 -1.468957e-04 -4.432450e-04
N -1.554546e+00 -9.207890e-01 -3.311831e+00 3.925044e-04 3.159049e-05 2.413673e-04
