108
Energy=-1214847.127334 Lattice="9.501047 0.000000 0.000000 -4.757634 8.222438 0.000000 -0.105299 -0.043757 15.273486" Stress="0.000011 -0.000006 -0.000027 -0.000006 0.000008 -0.000016 -0.000027 -0.000016 -0.000011" Properties=species:S:1:pos:R:3:forces:R:3
Al 1.529723 0.862388 2.393996 0.000505 0.007012 -0.000957
Al 1.501503 0.850500 7.455459 0.000827 0.000945 0.003193
Al 1.563219 0.863415 -2.667490 0.007068 0.010164 0.001122
Al -0.040738 3.592431 2.360213 0.000822 -0.002483 0.003958
Al -0.080772 3.578694 7.434086 -0.004080 -0.000293 0.010934
Al 0.001005 3.603634 -2.666065 0.000247 0.000174 0.000535
Al 3.149616 -1.876236 2.347159 -0.006625 0.005100 0.009890
Al 3.090021 -1.877161 7.457129 0.000829 -0.004352 0.003970
Ga 3.182164 -1.852264 -2.682343 0.000783 0.000182 0.002826
Al -4.849493 0.833698 2.390211 0.008476 0.011912 0.002618
Al -4.860557 0.838855 7.483692 0.003507 0.003591 0.002337
Al -4.729013 0.867578 -2.687452 -0.004462 0.007044 0.001749
Al -6.379365 3.574876 2.371963 -0.001306 0.003793 -0.000508
Al -6.404733 3.567113 7.475635 0.001007 0.001044 0.002422
Ga -6.330891 3.617288 -2.664145 0.000505 -0.000375 -0.000479
Ga -3.241577 -1.865077 2.390673 0.006237 -0.001088 0.001310
Ga -3.264204 -1.888642 7.468525 0.000973 -0.000585 0.002071
Al -3.178524 -1.843951 -2.670701 0.002193 -0.000733 0.000678
Al -1.617249 0.877588 2.444660 -0.000306 0.002186 -0.004067
Ga -1.663157 0.879705 7.488578 0.002054 0.000307 0.002921
Al -1.578525 0.911389 -2.692750 -0.000336 -0.000329 -0.001034
Ga -3.198885 3.621219 2.408201 -0.000831 -0.003028 0.002246
Al -3.246606 3.596287 7.451872 -0.001082 0.001007 0.004667
Al -3.159355 3.620863 -2.680693 -0.002562 -0.002125 0.004113
Ga -0.024462 -1.856475 2.415180 -0.001258 -0.001315 0.001483
Ga -0.056276 -1.894848 7.468987 0.000901 -0.001733 0.001228
Ga 0.024553 -1.845143 -2.681782 -0.001187 -0.002178 0.001229
Al -0.062303 1.762132 4.909147 0.003987 0.004155 0.004970
Al 0.015349 1.769223 -5.219624 0.005034 0.014884 -0.002950
Al -0.000895 1.793158 -0.133555 0.002089 0.001238 -0.004437
Al 3.107277 -3.695049 4.912550 0.003658 0.003777 0.006874
Ga 3.173412 -3.688873 -5.250359 0.001953 0.000928 -0.000853
Al 3.173279 -3.688245 -0.124085 -0.000141 0.000387 -0.013108
Al 1.529799 -0.958272 4.905465 0.007145 -0.000746 0.007572
Al 1.608515 -0.931356 -5.261389 0.002074 -0.000547 0.002879
Al 1.591505 -0.937878 -0.109917 -0.000509 0.001483 -0.009938
Al 3.090493 1.752074 4.932365 0.000120 0.002367 0.003179
Ga 3.175863 1.777438 -5.246510 -0.001808 0.002760 0.002893
Al 3.148560 1.777375 -0.123736 -0.002036 0.001486 -0.012072
Ga 6.271000 -3.725661 4.926141 0.000915 0.000508 0.001303
Ga 6.344857 -3.678496 -5.237283 -0.000726 -0.002393 -0.000374
Al 6.319339 -3.700343 -0.129797 0.001221 0.001622 -0.011049
Al 4.663650 -0.959249 4.920352 -0.001654 -0.003128 0.005470
Al 4.765516 -0.919918 -5.241980 -0.002954 -0.004138 0.003370
Al 4.727920 -0.945366 -0.133870 0.001330 -0.001052 -0.012681
Ga -3.248015 1.764027 4.944862 0.000765 0.000673 -0.000754
Al -3.178250 1.817306 -5.220307 0.005412 -0.000213 -0.004939
Ga -3.176214 1.791938 -0.128343 -0.000884 0.000303 -0.000034
Al -0.069364 -3.717735 4.935379 0.000416 0.005429 0.004628
Al 0.034710 -3.683556 -5.251303 -0.002227 0.000362 0.001226
Al 0.002556 -3.687720 -0.119297 -0.001100 -0.000303 -0.011424
Al -1.634944 -0.958841 4.945659 0.000104 -0.001445 -0.001012
Ga -1.560460 -0.918086 -5.212556 -0.000576 -0.002079 -0.000552
Ga -1.582523 -0.937845 -0.143076 -0.001633 -0.000184 -0.002549
N 1.517545 0.860302 4.315623 0.000377 0.001120 -0.002459
N 1.549857 0.854776 -5.883514 0.000157 0.003432 -0.004109
N 1.567855 0.875400 -0.741258 0.000883 -0.000169 0.000001
N -0.106364 3.579280 4.286380 -0.001554 -0.002312 -0.001641
N 0.005857 3.593581 -5.901390 0.001720 -0.009801 -0.000158
N -0.004499 3.614952 -0.738731 -0.002205 -0.001197 0.000409
N 3.111435 -1.877088 4.295119 -0.000586 -0.001332 -0.003569
N 3.188139 -1.804794 -5.871702 0.001117 0.000513 -0.002521
N 3.160454 -1.857362 -0.691417 -0.000805 -0.001584 -0.001086
N -4.868199 0.828664 4.309287 -0.000405 0.001765 -0.003315
N -4.703391 0.857817 -5.862734 0.002878 0.003697 -0.003057
N -4.797223 0.853191 -0.766653 0.000657 0.001339 0.001417
N -6.358372 3.564439 4.299269 0.000160 -0.000119 -0.003494
N -6.280554 3.647923 -5.876972 0.000171 -0.000091 -0.001596
N -6.337436 3.621467 -0.684837 -0.000591 -0.001326 0.001814
N -3.237897 -1.830294 4.372713 0.002049 -0.001071 -0.002699
N -3.186512 -1.816374 -5.832995 0.001322 -0.000078 -0.001668
N -3.215753 -1.878197 -0.749287 -0.000520 -0.000806 0.000928
N -1.599162 0.840352 4.346712 -0.004399 0.000467 -0.004206
N -1.553196 0.949003 -5.805845 -0.011162 -0.000570 0.000806
N -1.538197 0.921012 -0.790076 -0.004882 -0.001405 0.000197
N -3.231461 3.662077 4.392429 -0.000785 -0.004687 -0.009029
N -3.199437 3.618849 -5.891530 0.000748 -0.004770 0.000570
N -3.173890 3.669767 -0.746308 -0.000097 -0.001132 -0.001700
N -0.038672 -1.863648 4.410367 -0.007874 -0.008328 -0.008047
N 0.062056 -1.864483 -5.816357 -0.002193 -0.002650 -0.001387
N 0.050510 -1.874523 -0.701481 -0.001080 -0.002374 -0.000718
N -0.054903 1.763581 1.774204 0.002852 0.003696 0.007317
N -0.037805 1.779431 6.826292 0.000108 0.001390 -0.002163
N 0.012259 1.787120 -3.293924 0.000854 0.003425 -0.000832
N 3.189573 -3.672241 1.763276 -0.003339 -0.003054 0.004317
N 3.096352 -3.714543 6.854262 0.001816 0.002108 -0.000716
N 3.175660 -3.738667 -3.258619 0.002719 0.002116 -0.001749
N 1.589770 -0.912005 1.772299 0.001963 -0.009458 0.008765
N 1.556949 -0.950075 6.836164 -0.000357 0.000729 -0.002190
N 1.603113 -0.883569 -3.337243 -0.000236 -0.006053 -0.003211
N 3.102984 1.764048 1.767047 0.003106 0.001346 0.008515
N 3.084274 1.755355 6.872966 -0.000735 0.000514 -0.003424
N 3.168934 1.746663 -3.261529 -0.001409 -0.002534 0.000544
N 6.290462 -3.745417 1.752871 0.003860 0.000130 0.012635
N 6.263467 -3.776919 6.903090 0.002906 0.002807 -0.003345
N 6.299349 -3.657278 -3.252982 -0.000036 -0.001301 0.000217
N 4.663436 -0.924780 1.735510 0.002383 -0.004427 0.011031
N 4.629806 -0.946898 6.842272 -0.000797 -0.001288 -0.002968
N 4.798111 -0.910744 -3.311681 -0.000333 -0.004242 -0.003777
N -3.208380 1.726687 1.873195 -0.005820 0.000966 -0.004660
N -3.299080 1.781669 6.913557 -0.001193 -0.001328 -0.002089
N -3.163885 1.806038 -3.288507 -0.001799 0.000189 -0.001638
N -0.064864 -3.713670 1.749710 -0.001746 -0.000862 0.012960
N -0.073990 -3.766935 6.845281 -0.003287 0.000328 0.000114
N 0.055217 -3.703251 -3.328946 -0.000910 -0.000696 -0.001750
N -1.621785 -0.892085 1.826595 -0.001887 -0.006782 -0.000051
N -1.654041 -0.962688 6.838409 -0.001893 -0.002015 0.000534
N -1.609307 -0.909381 -3.240360 -0.002770 -0.002217 0.001839
