108
Energy=-1.855698e+06 Lattice="9.476278e+00 0.000000e+00 0.000000e+00 -4.738139e+00 8.206697e+00 0.000000e+00 9.377101e-16 1.624162e-15 1.531397e+01" Stress="-5.298141e-02 6.237387e-03 2.311748e-04 6.226327e-03 -4.631946e-02 -2.235188e-04 2.141425e-04 -2.330374e-04 -4.482154e-02" Properties=species:S:1:pos:R:3:forces:R:3 Config_type=AlGaN_super3_31_1_0.xyz
Al 1.564294e+00 9.031460e-01 2.504900e+00 -1.512272e-03 -1.441504e-02 -1.316086e-02
Al 1.564294e+00 9.031460e-01 7.521855e+00 -1.316166e-03 -1.450117e-02 -4.718134e-03
Al 1.564294e+00 9.031460e-01 -2.775158e+00 -1.695859e-03 -1.497829e-02 -6.547368e-03
Al 2.938992e-08 3.612582e+00 2.504900e+00 -3.089245e-03 -1.299423e-03 -1.215201e-02
Al 2.938992e-08 3.612582e+00 7.521855e+00 -2.792179e-03 -1.655196e-03 -2.534673e-03
Ga 2.938992e-08 3.612582e+00 -2.775158e+00 -3.524044e-03 -2.013466e-03 -3.579132e-03
Al 3.173845e+00 -1.884678e+00 2.504900e+00 -3.292207e-03 1.112403e-03 -1.277269e-02
Al 3.173845e+00 -1.884678e+00 7.521855e+00 -3.389869e-03 2.003863e-03 -4.040329e-03
Ga 3.173845e+00 -1.884678e+00 -2.775158e+00 -3.886186e-03 2.040261e-03 -5.381885e-03
Al -4.783396e+00 9.031460e-01 2.504900e+00 1.836251e-03 -1.277520e-02 -1.121376e-02
Ga -4.783396e+00 9.031460e-01 7.521855e+00 2.045877e-04 -1.708540e-02 -5.331601e-03
Ga -4.783396e+00 9.031460e-01 -2.775158e+00 4.139819e-04 -1.737053e-02 -4.917680e-03
Ga -6.347690e+00 3.612582e+00 2.504900e+00 -3.624421e-04 -5.023055e-04 -1.119111e-02
Al -6.347690e+00 3.612582e+00 7.521855e+00 -2.828735e-04 7.912698e-06 -2.342229e-03
Ga -6.347690e+00 3.612582e+00 -2.775158e+00 3.380011e-04 -3.381349e-05 -1.948952e-03
Ga -3.173845e+00 -1.884678e+00 2.504900e+00 -5.661506e-04 2.878918e-03 -1.199973e-02
Ga -3.173845e+00 -1.884678e+00 7.521855e+00 -2.883108e-04 2.999448e-03 -3.104789e-03
Ga -3.173845e+00 -1.884678e+00 -2.775158e+00 -8.590026e-05 3.776476e-03 -2.266262e-03
Al -1.654808e+00 9.031460e-01 2.504900e+00 1.370143e-02 -7.646941e-03 -1.333112e-02
Al -1.654808e+00 9.031460e-01 7.521855e+00 1.429331e-02 -8.051133e-03 -5.707413e-03
Ga -1.654808e+00 9.031460e-01 -2.775158e+00 1.686677e-02 -9.513621e-03 -8.275308e-03
Al -3.219102e+00 3.612582e+00 2.504900e+00 1.278277e-02 4.864521e-03 -1.130958e-02
Ga -3.219102e+00 3.612582e+00 7.521855e+00 1.510130e-02 8.334553e-03 -4.730160e-03
Ga -3.219102e+00 3.612582e+00 -2.775158e+00 1.521430e-02 8.456993e-03 -5.679120e-03
Ga -4.525702e-02 -1.884678e+00 2.504900e+00 1.531637e-02 1.106632e-02 -1.531963e-02
Al -4.525702e-02 -1.884678e+00 7.521855e+00 1.210784e-02 8.357092e-03 -5.114792e-03
Al -4.525702e-02 -1.884678e+00 -2.775158e+00 1.258148e-02 8.457997e-03 -5.893405e-03
Ga 1.469567e-08 1.806291e+00 5.013378e+00 -1.503048e-02 -1.127815e-02 -6.796771e-03
Al 1.469567e-08 1.806291e+00 -5.283635e+00 -1.194450e-02 -8.355905e-03 -6.603503e-03
Ga 1.469567e-08 1.806291e+00 -2.666800e-01 -1.517460e-02 -1.098113e-02 4.470793e-02
Ga 3.173845e+00 -3.690969e+00 5.013378e+00 -1.563263e-02 -7.798474e-03 -5.748853e-03
Al 3.173845e+00 -3.690969e+00 -5.283635e+00 -1.222868e-02 -5.284847e-03 -5.433474e-03
Ga 3.173845e+00 -3.690969e+00 -2.666800e-01 -1.514580e-02 -8.286139e-03 4.637765e-02
Ga 1.609551e+00 -9.815320e-01 5.013378e+00 -1.633840e-02 9.109731e-03 -8.675283e-03
Al 1.609551e+00 -9.815320e-01 -5.283635e+00 -1.365364e-02 7.834381e-03 -7.324405e-03
Ga 1.609551e+00 -9.815320e-01 -2.666800e-01 -1.658441e-02 9.399062e-03 4.215960e-02
Ga 3.128588e+00 1.806291e+00 5.013378e+00 8.064529e-04 -3.135758e-03 -3.105395e-03
Ga 3.128588e+00 1.806291e+00 -5.283635e+00 -5.549593e-05 -3.295405e-03 -3.985275e-03
Ga 3.128588e+00 1.806291e+00 -2.666800e-01 3.600613e-04 -3.510174e-03 4.899126e-02
Ga 6.302433e+00 -3.690969e+00 5.013378e+00 5.982448e-04 2.929836e-04 -1.529279e-03
Ga 6.302433e+00 -3.690969e+00 -5.283635e+00 -1.071381e-04 -5.805774e-04 -3.170716e-03
Al 6.302433e+00 -3.690969e+00 -2.666800e-01 -5.221535e-05 -6.919195e-06 3.913552e-02
Al 4.738139e+00 -9.815320e-01 5.013378e+00 -1.343430e-03 1.359702e-02 -4.507214e-03
Ga 4.738139e+00 -9.815320e-01 -5.283635e+00 -1.466898e-03 1.696104e-02 -5.984644e-03
Ga 4.738139e+00 -9.815320e-01 -2.666800e-01 -2.856462e-04 1.716995e-02 4.650465e-02
Ga -3.219102e+00 1.806291e+00 5.013378e+00 2.827544e-03 -1.637204e-03 -5.286639e-03
Ga -3.219102e+00 1.806291e+00 -5.283635e+00 3.695100e-03 -1.619364e-03 -4.767829e-03
Al -3.219102e+00 1.806291e+00 -2.666800e-01 3.742169e-03 -1.922471e-03 3.693340e-02
Al -4.525703e-02 -3.690969e+00 5.013378e+00 3.265483e-03 1.066627e-03 -3.229625e-03
Al -4.525703e-02 -3.690969e+00 -5.283635e+00 3.136098e-03 1.360600e-03 -4.165441e-03
Ga -4.525703e-02 -3.690969e+00 -2.666800e-01 3.176635e-03 1.797460e-03 4.831590e-02
Ga -1.609551e+00 -9.815320e-01 5.013378e+00 1.954518e-03 1.822247e-02 -6.194434e-03
Ga -1.609551e+00 -9.815320e-01 -5.283635e+00 2.528331e-03 1.872499e-02 -6.946602e-03
Al -1.609551e+00 -9.815320e-01 -2.666800e-01 1.506804e-03 1.505308e-02 3.514032e-02
N 1.564294e+00 9.031460e-01 4.418497e+00 -1.550040e-03 -1.787520e-02 -1.577702e-02
N 1.564294e+00 9.031460e-01 -5.878516e+00 -1.946985e-02 -2.501808e-02 -2.352710e-03
N 1.564294e+00 9.031460e-01 -8.615610e-01 -1.038245e-03 -1.738832e-02 -1.374334e-02
N 2.938992e-08 3.612582e+00 4.418497e+00 -2.274070e-03 -1.118948e-04 -2.019621e-02
N 2.938992e-08 3.612582e+00 -5.878516e+00 -2.104964e-02 -1.073745e-02 -5.415520e-03
N 2.938992e-08 3.612582e+00 -8.615610e-01 1.639576e-02 1.089547e-02 1.296937e-02
N 3.173845e+00 -1.884678e+00 4.418497e+00 1.614518e-02 1.256984e-02 -1.316840e-02
N 3.173845e+00 -1.884678e+00 -5.878516e+00 -2.135825e-02 -9.236818e-03 -5.925855e-03
N 3.173845e+00 -1.884678e+00 -8.615610e-01 -2.751418e-03 1.767560e-03 5.769370e-03
N -4.783396e+00 9.031460e-01 4.418497e+00 5.121484e-04 -3.567986e-02 -1.028826e-02
N -4.783396e+00 9.031460e-01 -5.878516e+00 6.600832e-04 -1.788477e-02 6.677856e-03
N -4.783396e+00 9.031460e-01 -8.615610e-01 1.886111e-02 -6.763615e-03 1.701750e-02
N -6.347690e+00 3.612582e+00 4.418497e+00 1.821207e-02 1.157839e-02 1.155933e-02
N -6.347690e+00 3.612582e+00 -5.878516e+00 1.888002e-02 1.156339e-02 -1.305621e-02
N -6.347690e+00 3.612582e+00 -8.615610e-01 -1.943487e-02 1.091557e-02 1.343471e-02
N -3.173845e+00 -1.884678e+00 4.418497e+00 -2.007958e-02 1.275286e-02 1.059169e-02
N -3.173845e+00 -1.884678e+00 -5.878516e+00 -9.086403e-04 2.597644e-03 2.480253e-03
N -3.173845e+00 -1.884678e+00 -8.615610e-01 1.697556e-02 -9.261657e-03 2.023636e-02
N -1.654808e+00 9.031460e-01 4.418497e+00 1.695104e-02 -9.627701e-03 -1.134950e-02
N -1.654808e+00 9.031460e-01 -5.878516e+00 3.153008e-02 -1.315716e-03 -6.508621e-03
N -1.654808e+00 9.031460e-01 -8.615610e-01 -1.774041e-03 -1.611459e-02 2.607842e-02
N -3.219102e+00 3.612582e+00 4.418497e+00 -3.321770e-03 1.975575e-02 -8.297731e-03
N -3.219102e+00 3.612582e+00 -5.878516e+00 1.187934e-02 2.801294e-02 2.048969e-02
N -3.219102e+00 3.612582e+00 -8.615610e-01 1.536854e-02 -1.318869e-02 1.713644e-02
N -4.525702e-02 -1.884678e+00 4.418497e+00 1.475110e-02 -1.139607e-02 1.506543e-02
N -4.525702e-02 -1.884678e+00 -5.878516e+00 3.000217e-02 -3.722934e-03 -2.725437e-03
N -4.525702e-02 -1.884678e+00 -8.615610e-01 -3.765946e-03 2.029171e-02 -6.611092e-03
N 1.469567e-08 1.806291e+00 1.910020e+00 -1.152530e-02 -7.928839e-03 -1.849171e-02
N 1.469567e-08 1.806291e+00 6.926975e+00 -1.151236e-02 -7.154476e-03 2.788314e-02
N 1.469567e-08 1.806291e+00 -3.370038e+00 3.927270e-03 -2.054809e-02 -9.239749e-03
N 3.173845e+00 -3.690969e+00 1.910020e+00 -1.251507e-02 -5.652688e-03 -1.771289e-02
N 3.173845e+00 -3.690969e+00 6.926975e+00 3.584107e-03 2.244120e-03 2.230415e-02
N 3.173845e+00 -3.690969e+00 -3.370038e+00 -1.499544e-02 -8.575606e-03 -1.660458e-02
N 1.609551e+00 -9.815320e-01 1.910020e+00 1.810259e-03 1.684632e-02 -2.162985e-02
N 1.609551e+00 -9.815320e-01 6.926975e+00 -1.365307e-02 8.117340e-03 3.099335e-02
N 1.609551e+00 -9.815320e-01 -3.370038e+00 -3.227777e-02 1.873032e-02 -8.068206e-04
N 3.128588e+00 1.806291e+00 1.910020e+00 1.163495e-03 -2.424882e-02 -2.877913e-02
N 3.128588e+00 1.806291e+00 6.926975e+00 -1.795980e-02 8.952324e-03 1.786616e-02
N 3.128588e+00 1.806291e+00 -3.370038e+00 -1.768890e-02 -1.259472e-02 1.023104e-02
N 6.302433e+00 -3.690969e+00 1.910020e+00 -1.827909e-02 -1.122838e-02 -4.717821e-02
N 6.302433e+00 -3.690969e+00 6.926975e+00 1.524773e-04 -2.245007e-02 1.785975e-02
N 6.302433e+00 -3.690969e+00 -3.370038e+00 4.800513e-04 -1.051894e-04 2.992443e-03
N 4.738139e+00 -9.815320e-01 1.910020e+00 -2.027356e-02 2.512673e-02 -2.524711e-02
N 4.738139e+00 -9.815320e-01 6.926975e+00 -1.937345e-02 6.479853e-03 -9.661648e-03
N 4.738139e+00 -9.815320e-01 -3.370038e+00 1.187393e-05 1.751255e-02 6.803318e-03
N -3.219102e+00 1.806291e+00 1.910020e+00 2.277024e-03 -1.689821e-03 -3.275879e-02
N -3.219102e+00 1.806291e+00 6.926975e+00 2.156495e-02 -1.232054e-02 9.608539e-03
N -3.219102e+00 1.806291e+00 -3.370038e+00 3.102763e-03 -2.088263e-03 2.414085e-03
N -4.525703e-02 -3.690969e+00 1.910020e+00 2.142201e-02 -1.070451e-02 -3.589645e-02
N -4.525703e-02 -3.690969e+00 6.926975e+00 -1.688905e-02 1.085349e-02 -5.401107e-03
N -4.525703e-02 -3.690969e+00 -3.370038e+00 1.755131e-03 2.176484e-02 -1.330382e-02
N -1.609551e+00 -9.815320e-01 1.910020e+00 9.828924e-04 3.583781e-02 -4.516479e-02
N -1.609551e+00 -9.815320e-01 6.926975e+00 1.949132e-02 2.496346e-02 1.994774e-02
N -1.609551e+00 -9.815320e-01 -3.370038e+00 1.964122e-02 7.070966e-03 1.463531e-02
