108
Energy=-665539.429198 Lattice="9.465502 0.000000 0.000000 -4.742838 8.187316 0.000000 0.001826 -0.007164 15.189243" Stress="0.000052 0.000018 -0.000000 0.000018 0.000074 -0.000002 -0.000000 -0.000002 0.000039" Properties=species:S:1:pos:R:3:forces:R:3
Al 1.558300 0.887504 2.421837 0.001816 -0.012064 -0.003613
Al 1.556324 0.890180 7.451465 0.000227 -0.010411 -0.002235
Al 1.556393 0.901641 -2.699865 -0.002104 -0.009494 -0.003660
Al -0.022685 3.596967 2.414913 0.002894 -0.005241 0.008173
Al -0.008572 3.599676 7.452226 -0.001630 -0.000796 -0.000563
Al -0.011570 3.609207 -2.704762 -0.002141 -0.002086 -0.043485
Al 3.166609 -1.886070 2.438042 -0.002413 0.001979 -0.005914
Al 3.166613 -1.875547 7.452041 -0.001861 0.001033 -0.001366
Al 3.167306 -1.863207 -2.719086 -0.001467 -0.002694 -0.006086
Al -4.776640 0.884461 2.408948 -0.000486 -0.010978 -0.002231
Al -4.772671 0.892169 7.455118 0.000380 -0.009775 -0.001189
Al -4.773795 0.899254 -2.694472 0.003863 -0.008281 -0.002223
Al -6.337688 3.597377 2.413044 0.000998 -0.003842 0.002806
Al -6.341893 3.604208 7.450733 -0.000077 -0.000388 -0.000239
Al -6.338979 3.605058 -2.702430 -0.000683 0.002062 -0.003038
Al -3.167003 -1.880714 2.430099 -0.000898 0.001158 -0.003239
Al -3.166268 -1.873336 7.452152 -0.000204 0.001722 -0.000759
Al -3.170877 -1.863197 -2.706302 -0.000750 -0.000483 -0.003367
Al -1.639933 0.886940 2.409814 0.010652 -0.007285 -0.002764
Al -1.642526 0.895122 7.456595 0.011413 -0.006331 -0.002087
Al -1.645449 0.902469 -2.694408 0.010251 -0.003280 -0.004596
Al -3.201248 3.606583 2.412284 0.005518 0.001317 0.004174
Al -3.210350 3.604204 7.455625 0.009242 0.004437 -0.000906
Al -3.212417 3.610965 -2.708774 0.009715 0.002534 -0.072739
Al -0.034972 -1.876584 2.424223 0.010675 0.007571 -0.002738
Al -0.035475 -1.871648 7.453398 0.009323 0.005395 -0.001739
Ga -0.041815 -1.869002 -2.702401 0.011460 0.005746 -0.007434
Al -0.005513 1.791725 4.935726 -0.009097 -0.003084 -0.000692
Al -0.011183 1.798504 -5.219970 -0.009607 -0.005079 -0.000512
Al -0.007352 1.775689 -0.144777 -0.008879 -0.000232 -0.005008
Al 3.169009 -3.682030 4.941116 -0.008191 -0.005406 -0.002323
Al 3.167000 -3.676731 -5.224541 -0.009277 -0.003913 0.000278
Ga 3.143989 -3.727105 -0.280748 -0.011409 0.000259 0.024758
Al 1.600711 -0.974044 4.940212 -0.010777 0.006113 -0.003646
Al 1.598109 -0.966273 -5.223521 -0.011156 0.005566 -0.003937
Al 1.597089 -0.980765 -0.214352 -0.008632 0.008667 0.021913
Al 3.123138 1.793676 4.935640 0.000299 -0.000260 0.000406
Ga 3.123105 1.801043 -5.219163 0.000219 -0.001646 -0.000189
Al 3.128717 1.795309 -0.169452 -0.000062 -0.002906 0.010147
Al 6.299954 -3.680753 4.935809 -0.000579 -0.001604 -0.002241
Al 6.298098 -3.672741 -5.221962 -0.000246 -0.000491 0.001139
Ga 6.277070 -3.696851 -0.216545 0.002254 0.002004 0.027856
Al 4.732015 -0.971199 4.940448 -0.000933 0.009480 -0.000700
Al 4.733451 -0.964926 -5.222661 -0.001824 0.009702 -0.001783
Al 4.724359 -0.981035 -0.175545 -0.001796 0.010637 0.011960
Ga -3.207766 1.795996 4.933845 0.001513 -0.000180 0.000311
Al -3.207141 1.802375 -5.219591 0.001984 -0.000779 0.001356
Al -3.206646 1.783991 -0.152437 -0.000371 0.004939 -0.005951
Al -0.033001 -3.679086 4.935872 0.001043 -0.000830 0.000776
Al -0.034642 -3.672390 -5.224447 0.001983 0.001095 0.000183
Al -0.050118 -3.634441 -0.172741 0.010170 -0.021436 0.003127
Al -1.598461 -0.970729 4.938348 -0.000280 0.010152 -0.001013
Al -1.603806 -0.961080 -5.221486 0.000824 0.010712 -0.002807
Al -1.603237 -0.978396 -0.167497 -0.003107 0.013864 0.010647
N 1.558139 0.892941 4.341568 -0.000468 -0.010990 0.000256
N 1.548011 0.893584 -5.821580 -0.014634 -0.019156 -0.004417
N 1.557700 0.891195 -0.778254 -0.000108 -0.010494 0.005110
N -0.010483 3.600477 4.337456 -0.002251 -0.001969 0.002564
N -0.010079 3.607388 -5.819100 -0.000666 -0.000342 -0.000513
N -0.011335 3.599828 -0.929250 -0.001182 -0.025814 0.055168
N 3.168924 -1.874876 4.349941 -0.002032 0.001347 0.000029
N 3.165050 -1.867800 -5.820362 -0.001644 0.001843 0.000041
N 3.159978 -1.878538 -0.809536 -0.001550 0.017209 0.002144
N -4.783340 0.886939 4.332258 -0.013352 -0.019058 -0.006369
N -4.767956 0.894901 -5.819969 0.015676 -0.018918 -0.004303
N -4.774510 0.889206 -0.769224 0.000633 -0.011299 0.004684
N -6.341002 3.601656 4.335711 0.002305 -0.000273 0.000765
N -6.343999 3.618534 -5.823001 -0.000582 0.017132 -0.006523
N -6.334804 3.604289 -0.785984 0.014159 -0.008010 0.000610
N -3.166646 -1.869523 4.343693 -0.000344 0.002285 0.000428
N -3.168678 -1.866443 -5.819509 -0.000368 0.001388 -0.000014
N -3.172862 -1.868595 -0.787223 0.000184 0.017853 -0.001548
N -1.633699 0.888519 4.331994 0.025712 -0.014954 -0.005071
N -1.644386 0.902339 -5.816450 0.011077 -0.006734 0.003137
N -1.642511 0.889531 -0.766580 0.011526 -0.006673 0.007402
N -3.208964 3.614385 4.333833 0.007765 0.020981 -0.004473
N -3.211778 3.611546 -5.818594 0.009148 0.003901 0.001759
N -3.221496 3.578854 -1.005499 -0.010312 -0.000717 0.116902
N -0.037372 -1.874754 4.342538 0.009049 0.005681 0.000511
N -0.037500 -1.864111 -5.817700 0.008784 0.005731 0.001304
N -0.044996 -1.875376 -0.770632 0.011020 0.012964 0.019940
N -0.006636 1.787178 1.805394 -0.009292 -0.002921 -0.009956
N -0.007660 1.792185 6.855027 -0.009500 -0.005597 0.001171
N -0.009385 1.800492 -3.298556 -0.008535 -0.008346 -0.000480
N 3.162748 -3.710836 1.884732 -0.011490 0.000920 -0.025830
N 3.168376 -3.685103 6.857805 -0.009783 -0.004081 0.002104
N 3.166635 -3.675176 -3.309192 -0.008415 -0.001449 -0.001769
N 1.601806 -0.982016 1.854799 -0.011189 0.006371 -0.020057
N 1.600276 -0.974152 6.856724 -0.010865 0.006061 0.003393
N 1.605481 -0.960109 -3.306727 0.000833 0.013877 0.001947
N 3.123676 1.788636 1.805077 0.001413 -0.000293 -0.010744
N 3.125321 1.794626 6.856077 0.000846 -0.001649 -0.001188
N 3.124829 1.801039 -3.289074 0.000622 -0.002691 0.019927
N 6.297772 -3.708745 1.901719 -0.002651 0.006417 -0.024764
N 6.299958 -3.681806 6.853946 0.000158 0.000186 -0.000013
N 6.299695 -3.675005 -3.302220 0.002647 0.000860 -0.000412
N 4.730782 -0.988677 1.812665 -0.000800 0.010800 -0.010417
N 4.733686 -0.970768 6.856741 -0.001053 0.010241 0.001723
N 4.732729 -0.961687 -3.304972 -0.001272 0.011008 0.003485
N -3.205751 1.791970 1.807856 0.001024 0.002601 -0.013611
N -3.207386 1.796295 6.864322 0.001920 -0.001174 0.016991
N -3.208795 1.803179 -3.297374 0.001106 -0.005933 -0.005779
N -0.028940 -3.681418 1.808426 0.003434 -0.001237 -0.016844
N -0.032769 -3.680211 6.855066 0.001764 0.000225 -0.000478
N -0.035330 -3.684445 -3.309029 -0.001387 -0.014383 -0.009167
N -1.599859 -0.981573 1.809352 -0.000886 0.010402 -0.009091
N -1.599885 -0.969122 6.856847 -0.000067 0.010722 0.001295
N -1.611762 -0.957658 -3.304028 -0.013903 0.019278 -0.001960
