108
Energy=-1352173.818778 Lattice="9.499208 0.000000 0.000000 -4.753210 8.227317 0.000000 0.002872 0.002740 15.336348" Stress="-0.000008 -0.000001 0.000001 -0.000001 -0.000009 -0.000002 0.000001 -0.000002 -0.000003" Properties=species:S:1:pos:R:3:forces:R:3
Al 1.571918 0.865012 2.408336 -0.002014 0.000996 -0.001382
Al 1.564624 0.873244 7.532683 0.000569 0.002703 -0.000390
Al 1.564915 0.867850 -2.720756 0.001077 0.000881 0.000489
Al 0.002893 3.611215 2.423520 -0.001234 0.004441 0.002818
Al -0.014309 3.611969 7.504631 0.001854 0.000282 0.000706
Al -0.021294 3.609899 -2.709282 -0.000182 -0.000211 0.000100
Al 3.157926 -1.855294 2.394018 -0.000532 0.002858 0.002198
Al 3.140283 -1.855892 7.526255 0.002011 0.000328 -0.000152
Ga 3.133400 -1.860189 -2.702215 0.000046 -0.000152 0.000927
Al -4.793724 0.853598 2.421242 0.001413 0.001104 -0.000668
Al -4.788733 0.877415 7.496532 -0.001222 -0.001440 0.000028
Al -4.799145 0.874857 -2.686124 -0.000135 0.000499 0.000590
Al -6.367285 3.617643 2.394731 0.000476 0.000742 -0.000218
Al -6.363670 3.610371 7.503478 0.000307 0.000392 -0.000658
Ga -6.364581 3.596401 -2.678663 -0.000084 -0.000472 0.000265
Al -3.194749 -1.881070 2.409629 0.001292 0.001169 -0.000222
Ga -3.186391 -1.872898 7.485592 -0.000535 0.000002 0.000377
Ga -3.179511 -1.865076 -2.678255 -0.000014 -0.000016 0.000421
Ga -1.598548 0.870240 2.438271 0.000226 -0.001124 0.000007
Ga -1.590716 0.872816 7.504323 -0.000027 -0.000037 0.000004
Ga -1.592643 0.866870 -2.706278 0.000427 0.000121 -0.000058
Ga -3.212804 3.635817 2.440126 0.000773 -0.001299 -0.000755
Ga -3.199780 3.629394 7.501386 -0.000250 0.000001 0.000381
Ga -3.188316 3.627889 -2.696898 0.000376 -0.000319 -0.000505
Al -0.013094 -1.880498 2.406709 -0.003775 0.006972 -0.001342
Al -0.018932 -1.861983 7.510635 -0.000130 -0.000378 -0.000477
Al -0.017360 -1.851103 -2.689889 0.000365 0.000543 0.000624
Al -0.015576 1.788941 4.974559 -0.000773 0.002255 -0.003420
Al -0.009599 1.786303 -5.265955 0.000036 0.000727 0.000402
Ga 0.001968 1.789532 -0.146479 -0.000318 -0.000664 0.000720
Ga 3.165297 -3.687679 4.961266 0.000592 -0.000138 -0.000455
Al 3.156994 -3.697315 -5.280672 0.000215 0.000120 0.000182
Ga 3.159597 -3.682678 -0.112568 -0.000116 -0.000146 -0.000562
Ga 1.558255 -0.950893 4.966510 -0.000518 -0.000333 0.000079
Al 1.550702 -0.946148 -5.276389 -0.000964 -0.000406 -0.001644
Al 1.556405 -0.953506 -0.138400 -0.000598 0.001656 0.000816
Ga 3.142605 1.800119 4.956593 0.000612 0.000150 0.000310
Al 3.130091 1.777016 -5.282038 -0.000043 -0.000200 0.000627
Al 3.141952 1.773002 -0.127079 -0.000573 0.001565 0.000729
Al 6.314292 -3.697860 4.949560 0.001170 0.000462 -0.000810
Ga 6.303835 -3.711356 -5.273790 -0.000192 -0.000005 0.000441
Al 6.319785 -3.697750 -0.122079 -0.001186 0.001896 0.000336
Al 4.740110 -0.952447 4.951380 0.000587 0.001294 0.000169
Ga 4.717012 -0.945379 -5.270861 -0.000034 -0.000138 0.000333
Al 4.734803 -0.948937 -0.125829 -0.001631 0.001615 0.000278
Al -3.198807 1.780966 4.964032 0.001642 -0.001569 -0.000329
Ga -3.197023 1.780441 -5.263739 -0.000157 -0.000006 0.000481
Ga -3.212851 1.780693 -0.132897 0.000242 -0.000699 0.001582
Al -0.042323 -3.683509 4.959709 -0.001688 0.000753 0.001965
Ga -0.031162 -3.676632 -5.269076 -0.000009 0.000025 0.000442
Al -0.039072 -3.678318 -0.133226 0.000028 0.000979 -0.000042
Al -1.606463 -0.974275 4.945393 -0.000441 0.004564 -0.002167
Al -1.582835 -0.953357 -5.266219 0.000027 -0.000278 0.000706
Al -1.598759 -0.979154 -0.120886 0.000288 0.002052 0.001067
N 1.521416 0.895975 4.313909 0.000393 -0.000385 -0.000500
N 1.555845 0.873142 -5.878606 -0.000059 0.000127 -0.000495
N 1.607714 0.850079 -0.787994 -0.000493 -0.001966 -0.000653
N 0.021957 3.593082 4.335677 -0.000041 -0.001657 0.000155
N -0.063119 3.586400 -5.912403 -0.000374 -0.000495 -0.000425
N 0.017098 3.645126 -0.796936 -0.000062 -0.000106 0.000148
N 3.187166 -1.830663 4.309954 -0.000668 -0.000901 -0.001666
N 3.102446 -1.889553 -5.890047 -0.000404 0.000102 0.000186
N 3.144096 -1.818844 -0.717544 0.000413 0.000147 -0.000136
N -4.739149 0.853137 4.330176 0.000185 -0.001273 0.000629
N -4.818030 0.897216 -5.933243 0.000335 -0.000013 -0.000223
N -4.824363 0.853052 -0.769823 0.000706 -0.001632 0.000121
N -6.355660 3.667279 4.315929 -0.000496 -0.000588 -0.000794
N -6.358838 3.567914 -5.918725 0.000099 0.000207 -0.000295
N -6.361306 3.609698 -0.688562 0.000917 -0.001487 0.000291
N -3.192241 -1.874689 4.346637 0.000356 0.000706 -0.000818
N -3.145635 -1.843876 -5.873739 0.000097 0.000193 -0.000563
N -3.186865 -1.865752 -0.688182 0.000671 -0.001892 -0.000771
N -1.598443 0.881530 4.417376 -0.001881 -0.002982 0.000966
N -1.564279 0.852537 -5.845164 0.000356 -0.000028 -0.000271
N -1.604202 0.825475 -0.730949 0.000425 -0.001125 -0.000125
N -3.238810 3.607568 4.415889 0.001062 -0.001210 -0.001096
N -3.157805 3.640940 -5.862390 -0.000013 -0.000094 -0.000289
N -3.228010 3.650898 -0.724408 -0.000074 -0.000213 0.000443
N -0.052665 -1.889142 4.317314 0.000099 -0.000551 0.000621
N -0.025324 -1.819657 -5.915458 0.000743 0.000531 0.000057
N -0.021181 -1.862011 -0.757247 0.000489 0.000119 -0.000823
N 0.016498 1.821781 1.829123 0.002593 -0.004810 -0.001153
N 0.025607 1.814161 6.879794 0.001367 -0.001366 0.002700
N 0.023647 1.813403 -3.337512 0.000066 0.000043 -0.000411
N 3.188103 -3.673856 1.860934 0.001605 -0.002834 -0.000295
N 3.194254 -3.663961 6.934462 -0.000329 0.000232 -0.000154
N 3.190953 -3.717531 -3.359675 0.000154 0.000482 -0.000066
N 1.562988 -0.959988 1.793775 -0.000912 0.001459 -0.000524
N 1.566056 -0.949414 6.954182 -0.001494 -0.000141 -0.000519
N 1.517730 -0.932176 -3.353148 -0.000961 -0.000494 0.001452
N 3.143121 1.780225 1.803613 0.000132 0.000362 -0.000321
N 3.138652 1.789991 6.937194 -0.001279 -0.000669 0.000168
N 3.143213 1.741094 -3.352212 -0.000494 -0.000092 -0.000346
N 6.306823 -3.700235 1.798958 0.000453 0.000354 -0.000125
N 6.314639 -3.744387 6.868144 -0.000907 -0.000857 0.000872
N 6.275531 -3.718773 -3.302341 0.000448 0.000087 -0.000271
N 4.735382 -0.953602 1.795706 -0.000314 0.000097 0.000060
N 4.684726 -0.930206 6.872560 -0.000763 0.000055 0.000634
N 4.730284 -0.906360 -3.299484 -0.000109 -0.000354 -0.000264
N -3.234843 1.768407 1.841326 -0.001078 0.000206 -0.002247
N -3.231877 1.763293 6.874298 0.000585 0.000444 -0.000304
N -3.238746 1.762316 -3.288884 0.000001 -0.000151 0.000322
N -0.063254 -3.657635 1.779108 -0.001317 -0.005153 -0.000750
N -0.071246 -3.663532 6.881974 -0.000243 0.000059 -0.000028
N -0.032524 -3.643194 -3.294087 -0.000090 0.000093 -0.000046
N -1.606667 -0.993094 1.792703 0.002160 -0.003620 0.002138
N -1.560804 -0.976581 6.846388 0.000903 -0.000713 0.000684
N -1.560956 -0.982961 -3.352875 -0.000234 -0.000365 -0.000226
