108
Energy=-5.739908e+05 Lattice="9.412581e+00 0.000000e+00 0.000000e+00 -4.706050e+00 8.151864e+00 0.000000e+00 5.158452e-04 -6.481608e-05 1.509487e+01" Stress="4.209234e-05 -5.117310e-06 -1.309647e-05 -2.775960e-06 3.204964e-05 4.810211e-06 -1.080537e-05 5.066124e-06 2.706520e-04" Properties=species:S:1:pos:R:3:forces:R:3 Config_type=AlGaN_super3_3_2_24.xyz
Al 1.546721e+00 8.677470e-01 2.372320e+00 1.039012e-05 -1.066299e-06 -5.702967e-05
Al 1.547537e+00 8.697459e-01 7.391487e+00 7.119156e-06 -5.935377e-06 -6.747543e-07
Al 1.549898e+00 8.737209e-01 -2.667009e+00 -2.756409e-07 -8.004753e-06 2.223982e-05
Al -2.105537e-02 3.584880e+00 2.367903e+00 -4.952431e-07 -4.387214e-06 -6.101090e-05
Al -2.328432e-02 3.584228e+00 7.395686e+00 2.083044e-06 -2.761342e-06 3.172517e-06
Al -2.205390e-02 3.583652e+00 -2.669165e+00 9.535617e-06 -5.302270e-06 1.774169e-05
Al 3.116640e+00 -1.850660e+00 2.372403e+00 -1.241553e-05 -3.673143e-06 -5.877375e-05
Al 3.117250e+00 -1.852532e+00 7.391474e+00 2.247704e-07 7.443862e-07 7.883124e-06
Al 3.123261e+00 -1.849584e+00 -2.666661e+00 -1.280118e-05 -4.080091e-06 2.183735e-05
Al -4.728192e+00 8.666472e-01 2.367355e+00 -8.558264e-07 -7.377595e-06 -6.664879e-05
Al -4.734555e+00 8.646336e-01 7.384639e+00 7.272778e-06 -3.046881e-06 3.432043e-06
Al -4.735854e+00 8.623626e-01 -2.655189e+00 8.707156e-06 4.638768e-06 2.431435e-05
Al -6.299804e+00 3.583729e+00 2.372278e+00 1.729402e-07 3.982873e-06 -6.315532e-05
Al -6.298068e+00 3.581871e+00 7.391084e+00 4.857058e-07 1.958983e-06 4.549371e-06
Al -6.301283e+00 3.577441e+00 -2.667274e+00 3.313570e-06 2.557183e-07 2.974224e-05
Al -3.168419e+00 -1.856331e+00 2.386452e+00 8.520046e-06 1.243213e-06 -6.549666e-05
Al -3.160912e+00 -1.850616e+00 7.390341e+00 3.590040e-06 -1.567897e-06 -5.785592e-06
Al -3.173241e+00 -1.852923e+00 -2.677757e+00 -5.374218e-06 -2.471395e-06 3.238450e-05
Al -1.591559e+00 8.766900e-01 2.385729e+00 1.361020e-05 -1.848699e-05 -5.960576e-05
Al -1.586226e+00 8.654345e-01 7.380241e+00 1.534928e-05 -5.007117e-06 -2.412836e-05
Al -1.588614e+00 8.756444e-01 -2.662669e+00 2.246298e-05 -5.578551e-06 1.743651e-05
Al -3.158374e+00 3.582589e+00 2.371741e+00 8.104034e-06 2.179872e-06 -7.447912e-05
Al -3.157760e+00 3.589346e+00 7.380974e+00 7.243478e-06 -3.565307e-07 -2.739169e-06
Al -3.156894e+00 3.584818e+00 -2.652208e+00 9.584974e-06 -3.372234e-06 2.747802e-05
Al -1.423792e-02 -1.854349e+00 2.383128e+00 5.327512e-06 -3.046207e-06 -8.107489e-05
Al -2.309197e-02 -1.850775e+00 7.392565e+00 9.797826e-06 1.910279e-07 -1.304565e-05
Ga -1.766095e-02 -1.853098e+00 -2.671947e+00 9.091874e-05 2.352791e-05 -1.966113e-05
Al -1.959945e-02 1.775979e+00 4.882572e+00 9.102669e-06 -7.730553e-06 -8.817885e-08
Al -1.321961e-02 1.772749e+00 -5.188036e+00 -7.860426e-07 2.467095e-07 7.283406e-06
Al -1.652166e-02 1.780136e+00 -1.439293e-01 1.513159e-05 1.166181e-05 1.090700e-04
Al 3.117611e+00 -3.662018e+00 4.878465e+00 7.085728e-06 -3.490307e-06 -1.119815e-06
Al 3.118279e+00 -3.654605e+00 -5.184321e+00 -1.952358e-06 -1.847918e-05 7.244842e-06
Al 3.115834e+00 -3.660567e+00 -1.466937e-01 1.207450e-05 -6.426660e-06 1.226007e-04
Al 1.548344e+00 -9.443913e-01 4.885528e+00 -1.679825e-06 4.549945e-06 -1.292512e-05
Al 1.552219e+00 -9.410499e-01 -5.200373e+00 -2.414985e-06 1.590718e-06 -1.160721e-05
Al 1.561762e+00 -9.402193e-01 -1.339745e-01 3.434456e-06 5.272872e-06 1.153235e-04
Al 3.114631e+00 1.772981e+00 4.878086e+00 1.374129e-05 -4.760383e-06 5.929052e-06
Al 3.105974e+00 1.772991e+00 -5.183106e+00 7.867473e-06 -4.655001e-06 1.119202e-05
Al 3.113285e+00 1.773096e+00 -1.461066e-01 8.540759e-06 -1.884965e-06 1.008363e-04
Al 6.251068e+00 -3.664479e+00 4.887355e+00 1.528569e-05 -1.095915e-05 4.477075e-07
Al 6.252782e+00 -3.663151e+00 -5.190559e+00 1.242863e-05 -4.433709e-06 6.532058e-06
Al 6.248308e+00 -3.668772e+00 -1.489019e-01 1.290308e-05 -1.842094e-06 1.245565e-04
Al 4.682328e+00 -9.450999e-01 4.882654e+00 6.157095e-06 4.068459e-08 2.043407e-06
Al 4.678001e+00 -9.515589e-01 -5.187797e+00 9.946440e-06 3.674556e-06 5.708317e-06
Al 4.675076e+00 -9.467295e-01 -1.440969e-01 1.267029e-05 -6.421930e-06 1.096833e-04
Al -3.161854e+00 1.773501e+00 4.884521e+00 1.205869e-05 -9.562290e-06 5.411513e-06
Ga -3.161239e+00 1.773881e+00 -5.181991e+00 2.010735e-05 -4.453691e-06 3.550425e-05
Al -3.163953e+00 1.779599e+00 -1.474673e-01 6.837559e-06 -9.018113e-06 1.491451e-04
Al -2.332811e-02 -3.663046e+00 4.881872e+00 7.867078e-06 -1.159834e-05 -7.230766e-06
Al -2.683458e-02 -3.661819e+00 -5.197861e+00 7.192990e-06 -1.017985e-06 1.063202e-05
Al -2.019889e-02 -3.676380e+00 -1.298560e-01 6.659167e-06 -1.839294e-05 1.489964e-04
Al -1.590986e+00 -9.463322e-01 4.878170e+00 4.467600e-06 -5.033206e-06 -1.325192e-05
Al -1.592045e+00 -9.486245e-01 -5.195717e+00 -7.260657e-06 1.939455e-05 1.334198e-06
Ga -1.598898e+00 -9.425838e-01 -1.256935e-01 3.791880e-05 3.915682e-05 2.356774e-04
N 1.546329e+00 8.664439e-01 4.286773e+00 -3.093224e-05 -2.424946e-05 -5.059709e-06
N 1.547016e+00 8.703961e-01 -5.788630e+00 -2.326222e-05 -2.807419e-05 -8.845256e-06
N 1.545876e+00 8.664184e-01 -7.447788e-01 -1.277554e-05 -1.717438e-05 5.902466e-05
N -2.059206e-02 3.584606e+00 4.283046e+00 -3.562679e-05 -4.479689e-06 -1.574029e-05
N -2.404747e-02 3.584303e+00 -5.780321e+00 -2.491216e-05 1.026270e-05 -9.320023e-06
N -2.281205e-02 3.584012e+00 -7.479665e-01 -2.945326e-05 -6.330280e-07 7.193806e-05
N 3.115318e+00 -1.850385e+00 4.286671e+00 -3.295006e-05 1.882439e-05 -1.283135e-05
N 3.117217e+00 -1.853248e+00 -5.788903e+00 -2.597737e-05 2.105819e-05 -3.168662e-06
N 3.114723e+00 -1.850567e+00 -7.464086e-01 -3.162056e-05 1.815563e-05 6.685484e-05
N -4.728436e+00 8.664566e-01 4.284672e+00 3.136496e-07 -9.996689e-06 -1.797504e-06
N -4.772555e+00 8.432903e-01 -5.800549e+00 -6.296160e-05 -3.870036e-05 -2.601482e-05
N -4.732141e+00 8.641721e-01 -7.362752e-01 -2.264254e-06 -5.140056e-06 7.137943e-05
N -6.299287e+00 3.584522e+00 4.286940e+00 -9.352340e-06 1.023817e-05 2.675281e-07
N -6.299679e+00 3.581089e+00 -5.787268e+00 -1.654877e-05 8.502830e-06 -4.940911e-06
N -6.296930e+00 3.584621e+00 -7.448610e-01 -6.610983e-06 -4.558322e-07 7.059837e-05
N -3.164447e+00 -1.854822e+00 4.296913e+00 -1.152454e-05 2.937124e-05 -9.010300e-06
N -3.162714e+00 -1.851388e+00 -5.786032e+00 -1.199072e-05 1.599291e-05 -4.502887e-06
N -3.202333e+00 -1.874407e+00 -7.650658e-01 -6.212817e-05 -7.595677e-06 2.977583e-05
N -1.590939e+00 8.721535e-01 4.298017e+00 2.144188e-05 -1.269825e-05 9.192399e-06
N -1.549433e+00 8.459872e-01 -5.805611e+00 7.999383e-05 -3.220977e-05 -3.214707e-05
N -1.587430e+00 9.131689e-01 -7.543510e-01 1.022856e-05 -3.292331e-05 4.663771e-05
N -3.159140e+00 3.583550e+00 4.288053e+00 1.677728e-05 6.263892e-06 -9.955767e-07
N -3.156394e+00 3.631864e+00 -5.806956e+00 1.258856e-05 7.034512e-05 -3.329697e-05
N -3.160419e+00 3.588548e+00 -7.363316e-01 -1.596690e-06 1.137875e-05 7.196948e-05
N -1.738536e-02 -1.852400e+00 4.295206e+00 5.510929e-06 3.742869e-05 2.483111e-06
N -2.254340e-02 -1.850433e+00 -5.782012e+00 8.375674e-06 2.666885e-05 1.174619e-06
N 1.912080e-02 -1.874887e+00 -7.022237e-01 1.235451e-05 1.423768e-05 1.183518e-04
N -2.189057e-02 1.772847e+00 1.774660e+00 -2.473683e-05 -4.548150e-05 -1.244655e-04
N -1.884800e-02 1.776248e+00 6.794708e+00 -1.455356e-05 -2.928013e-05 6.727927e-06
N -2.033971e-02 1.773099e+00 -3.268251e+00 -1.947775e-05 -2.706155e-05 -2.600030e-05
N 3.115684e+00 -3.661383e+00 1.773070e+00 -2.249598e-05 3.437705e-06 -1.338853e-04
N 3.119141e+00 -3.661333e+00 6.791274e+00 -2.143762e-05 -3.722153e-06 7.334066e-06
N 3.113699e+00 -3.661777e+00 -3.261711e+00 -1.027037e-05 6.313044e-06 -1.164395e-05
N 1.550204e+00 -9.427716e-01 1.780990e+00 -3.430800e-05 1.868436e-05 -1.185075e-04
N 1.547534e+00 -9.441767e-01 6.802255e+00 -2.667509e-05 1.847451e-05 1.340406e-05
N 1.591321e+00 -9.184316e-01 -3.289080e+00 -2.611481e-05 1.802616e-05 -1.618561e-05
N 3.114236e+00 1.773312e+00 1.772819e+00 -1.713002e-06 -2.330021e-05 -1.191550e-04
N 3.113625e+00 1.773857e+00 6.790666e+00 1.002829e-06 -2.015950e-05 8.418377e-06
N 3.115335e+00 1.772380e+00 -3.262515e+00 4.390192e-06 -1.517823e-05 -1.658580e-05
N 6.252786e+00 -3.661187e+00 1.770453e+00 -1.759871e-05 8.186774e-06 -1.293947e-04
N 6.251492e+00 -3.663534e+00 6.802003e+00 -8.438026e-07 5.387046e-07 -7.993123e-07
N 6.253145e+00 -3.664584e+00 -3.270211e+00 -6.713245e-06 -3.646572e-06 -1.700512e-05
N 4.684669e+00 -9.463080e-01 1.774312e+00 -1.796354e-05 2.041828e-05 -1.185062e-04
N 4.683443e+00 -9.462174e-01 6.794557e+00 -1.036566e-05 1.950832e-05 3.422928e-06
N 4.681088e+00 -9.422615e-01 -3.269867e+00 -6.986738e-06 1.985818e-05 -2.074553e-05
N -3.159111e+00 1.772528e+00 1.773079e+00 2.227178e-05 -1.298075e-05 -1.507146e-04
N -3.161621e+00 1.772594e+00 6.800035e+00 1.450351e-05 -1.953279e-05 9.636603e-06
N -3.163592e+00 1.773535e+00 -3.206960e+00 9.123741e-06 -1.274892e-05 2.313888e-05
N -2.320439e-02 -3.665642e+00 1.784451e+00 2.577120e-05 2.426166e-05 -1.472353e-04
N -2.519941e-02 -3.661681e+00 6.795771e+00 1.000478e-05 6.250777e-06 1.048528e-05
N -2.220111e-02 -3.713966e+00 -3.287672e+00 4.294421e-06 -6.550381e-05 -3.135245e-05
N -1.594261e+00 -9.438206e-01 1.847018e+00 3.444964e-05 4.866910e-05 -1.777758e-04
N -1.591365e+00 -9.476364e-01 6.794157e+00 1.077356e-05 2.879713e-05 1.963520e-05
N -1.633289e+00 -9.195233e-01 -3.281710e+00 -5.640894e-05 4.414399e-05 -2.205288e-05
