108
Energy=-6.655415e+05 Lattice="9.437993e+00 0.000000e+00 0.000000e+00 -4.737810e+00 8.170266e+00 0.000000e+00 -7.943164e-04 -1.899175e-03 1.518045e+01" Stress="6.163263e-03 -1.290273e-03 -1.177059e-04 -1.293027e-03 6.230024e-03 -4.718198e-04 -1.206021e-04 -4.759655e-04 8.859827e-03" Properties=species:S:1:pos:R:3:forces:R:3 Config_type=AlGaN_super3_5_2_6.xyz
Al 1.528223e+00 8.558168e-01 2.363323e+00 3.662139e-03 1.799147e-03 5.310695e-04
Al 1.542497e+00 8.635130e-01 7.446936e+00 5.886806e-05 2.633247e-03 1.250574e-03
Al 1.548490e+00 8.571441e-01 -2.675112e+00 9.408001e-04 1.283551e-02 5.470453e-03
Al -4.380221e-02 3.579268e+00 2.363110e+00 1.798444e-03 1.492934e-03 4.681985e-04
Al -3.020448e-02 3.577505e+00 7.442498e+00 -3.959306e-04 4.882907e-05 -1.526361e-04
Al -2.766936e-02 3.580517e+00 -2.675633e+00 2.472047e-03 -3.768487e-04 2.046882e-03
Al 3.127746e+00 -1.855993e+00 2.378023e+00 1.750759e-03 -7.450688e-04 -9.391422e-04
Al 3.142189e+00 -1.847249e+00 7.425806e+00 8.819301e-04 -3.414979e-03 1.331025e-03
Al 3.139476e+00 -1.855953e+00 -2.665080e+00 -1.508030e-03 3.260273e-03 2.433771e-04
Al -4.746607e+00 8.612438e-01 2.371921e+00 8.507228e-04 2.112011e-03 -1.676133e-03
Al -4.745973e+00 8.619026e-01 7.456248e+00 2.130242e-03 1.722756e-03 -3.837997e-04
Al -4.749924e+00 8.646047e-01 -2.686284e+00 9.919215e-04 1.841005e-03 1.057957e-03
Al -6.326769e+00 3.591198e+00 2.341254e+00 1.645490e-03 7.331133e-04 5.185411e-03
Al -6.323082e+00 3.584457e+00 7.468220e+00 7.916572e-04 1.444262e-03 -7.572824e-04
Al -6.324291e+00 3.579945e+00 -2.681915e+00 -8.745916e-04 5.329744e-04 1.384506e-03
Al -3.165110e+00 -1.839484e+00 2.370070e+00 9.328851e-04 -1.602868e-03 -1.110316e-03
Al -3.170012e+00 -1.842204e+00 7.452177e+00 1.198231e-03 -1.692650e-03 8.734858e-04
Al -3.171662e+00 -1.847069e+00 -2.688986e+00 9.295998e-04 -2.738532e-03 2.252529e-03
Al -1.605545e+00 8.767466e-01 2.374153e+00 -1.459225e-03 -1.555745e-03 5.047891e-04
Al -1.609767e+00 8.805738e-01 7.438836e+00 1.123479e-03 8.073126e-04 1.667271e-03
Al -1.612297e+00 8.791820e-01 -2.687361e+00 1.277057e-03 7.959341e-04 3.484067e-03
Al -3.180815e+00 3.597970e+00 2.380362e+00 -1.114037e-03 -2.364266e-03 -1.479305e-03
Al -3.181460e+00 3.584999e+00 7.431880e+00 4.282450e-04 -3.358145e-04 5.910501e-04
Al -3.177290e+00 3.585618e+00 -2.669041e+00 -1.509043e-03 -2.072649e-03 1.636513e-03
Al -1.855794e-02 -1.842459e+00 2.381000e+00 -1.713782e-03 -2.831955e-03 -3.105952e-03
Ga -1.623778e-02 -1.843069e+00 7.452725e+00 1.926114e-04 -3.091961e-03 7.716699e-04
Ga -2.184749e-02 -1.840363e+00 -2.647316e+00 1.534037e-03 -1.340554e-03 1.290528e-04
Al -4.529455e-02 1.754760e+00 4.902658e+00 2.852483e-03 4.441765e-03 3.151438e-03
Al -2.393249e-02 1.756554e+00 -5.213069e+00 -2.803928e-04 2.996654e-03 3.610949e-03
Al -2.940505e-02 1.761861e+00 -1.573019e-01 6.974402e-04 2.664967e-03 -1.907529e-03
Al 3.124625e+00 -3.680493e+00 4.913166e+00 1.700459e-03 3.160071e-03 -6.481881e-05
Ga 3.133706e+00 -3.674821e+00 -5.209763e+00 2.808328e-05 1.634591e-03 7.996175e-04
Al 3.135722e+00 -3.677300e+00 -1.371322e-01 3.284139e-04 1.336525e-03 -8.873783e-03
Al 1.559618e+00 -9.515660e-01 4.903880e+00 -7.993389e-05 -1.086713e-03 3.376817e-05
Al 1.560285e+00 -9.315643e-01 -5.223490e+00 2.730441e-03 -8.649742e-04 1.230925e-02
Al 1.563154e+00 -9.490910e-01 -1.218623e-01 1.208375e-03 1.201998e-03 -8.528052e-03
Ga 3.123832e+00 1.768893e+00 4.916358e+00 -1.756281e-03 1.468477e-03 5.918946e-04
Al 3.115789e+00 1.769058e+00 -5.209647e+00 -3.672887e-04 1.190166e-03 1.354322e-03
Al 3.121036e+00 1.767173e+00 -1.382131e-01 -1.431913e-03 -1.499059e-04 -1.115949e-02
Ga 6.282274e+00 -3.659392e+00 4.916846e+00 -7.471148e-04 -8.304096e-04 -3.711858e-04
Al 6.288534e+00 -3.671193e+00 -5.211179e+00 -6.997823e-04 1.447047e-03 7.776889e-04
Al 6.285349e+00 -3.669779e+00 -1.382413e-01 -1.874179e-03 4.956065e-04 -1.181032e-02
Al 4.710812e+00 -9.396640e-01 4.910657e+00 -3.182365e-03 -3.714087e-03 1.201619e-03
Al 4.705904e+00 -9.351355e-01 -5.211795e+00 -5.443752e-04 -3.103576e-03 2.577760e-03
Al 4.708443e+00 -9.456467e-01 -1.486598e-01 -1.737743e-03 -1.429367e-03 -5.042552e-03
Al -3.166037e+00 1.775273e+00 4.908301e+00 -2.003105e-03 2.038647e-03 1.659474e-03
Al -3.179292e+00 1.771789e+00 -5.217869e+00 -4.892589e-04 7.618157e-04 3.546692e-03
Al -3.172304e+00 1.771809e+00 -1.457495e-01 -1.293167e-03 9.252633e-04 -6.560304e-03
Al -4.432394e-03 -3.664453e+00 4.905938e+00 4.193789e-03 4.381284e-03 2.581931e-03
Al -1.652111e-02 -3.680815e+00 -5.204676e+00 -6.883522e-04 2.702520e-03 3.259394e-03
Al -7.497189e-03 -3.690679e+00 -1.205408e-01 -1.395472e-03 6.855088e-03 -1.261074e-02
Al -1.588015e+00 -9.219385e-01 4.906632e+00 -5.066173e-04 -4.248750e-03 6.950287e-04
Al -1.596038e+00 -9.255303e-01 -5.207201e+00 -6.752507e-04 -3.709618e-03 1.909265e-03
Al -1.594512e+00 -9.349194e-01 -1.332162e-01 -4.896373e-03 5.989438e-04 -4.925484e-03
N 1.502499e+00 8.400418e-01 4.289248e+00 1.352597e-03 2.464612e-03 -3.716946e-03
N 1.540349e+00 8.609715e-01 -5.813778e+00 1.419356e-03 3.270350e-03 -2.148681e-03
N 1.545982e+00 8.602835e-01 -7.429313e-01 1.129068e-03 1.175557e-03 -4.003504e-04
N -6.851637e-02 3.563761e+00 4.292888e+00 1.717945e-04 -6.257514e-04 -2.745881e-03
N 5.948758e-03 3.561955e+00 -5.825554e+00 1.948355e-03 -9.667998e-04 -3.577529e-04
N -2.685884e-02 3.585428e+00 -7.471577e-01 5.743206e-04 -2.126744e-04 6.108179e-04
N 3.132689e+00 -1.855766e+00 4.306619e+00 1.581311e-03 -1.225544e-03 -5.703251e-05
N 3.131244e+00 -1.807665e+00 -5.838018e+00 5.398226e-04 -9.254349e-05 -2.756204e-04
N 3.132922e+00 -1.855150e+00 -7.484682e-01 -5.122923e-04 -1.311712e-03 3.333443e-03
N -4.709942e+00 8.417922e-01 4.293779e+00 2.523306e-03 2.827137e-03 -3.937664e-03
N -4.747339e+00 8.620384e-01 -5.806655e+00 6.977882e-04 3.003441e-03 -1.131283e-03
N -4.747329e+00 8.621771e-01 -7.610844e-01 1.308503e-03 2.023693e-03 1.655974e-03
N -6.262899e+00 3.626627e+00 4.283537e+00 -8.727128e-03 -5.563247e-03 -1.147163e-02
N -6.319249e+00 3.591913e+00 -5.801594e+00 -2.882896e-04 -9.335922e-04 6.028884e-05
N -6.320088e+00 3.584868e+00 -7.535130e-01 3.455766e-04 6.609159e-04 2.660993e-03
N -3.160866e+00 -1.801662e+00 4.290086e+00 1.063649e-03 -1.108152e-04 -2.755307e-03
N -3.162071e+00 -1.844447e+00 -5.810269e+00 5.895955e-04 -1.674722e-03 2.307415e-04
N -3.160559e+00 -1.850579e+00 -7.623834e-01 7.254839e-04 -1.410671e-03 2.568469e-03
N -1.605500e+00 8.749969e-01 4.309039e+00 -1.027679e-03 2.029234e-04 -5.248694e-03
N -1.604056e+00 8.762438e-01 -5.816191e+00 3.223991e-04 4.410082e-04 -2.239105e-03
N -1.604157e+00 8.705308e-01 -7.571349e-01 -3.982476e-04 2.484476e-04 -7.278721e-04
N -3.178339e+00 3.598251e+00 4.308976e+00 6.290586e-05 -2.971253e-03 -2.450806e-03
N -3.217832e+00 3.573222e+00 -5.833505e+00 -6.584569e-04 -2.096650e-03 -2.111304e-03
N -3.175669e+00 3.590692e+00 -7.494665e-01 -7.914184e-04 -7.120478e-04 1.592618e-03
N -1.699430e-02 -1.842041e+00 4.313311e+00 -8.002815e-04 -2.030755e-03 -2.021335e-03
N -6.655309e-03 -1.842928e+00 -5.741699e+00 -4.552828e-03 -3.214859e-03 -2.941582e-03
N -2.839159e-02 -1.828809e+00 -6.534907e-01 4.307213e-03 -1.170724e-02 -8.277900e-03
N -3.677937e-02 1.761725e+00 1.766084e+00 1.026244e-03 3.332699e-03 1.464221e-03
N -2.943724e-02 1.761064e+00 6.834917e+00 8.635196e-04 2.264754e-03 -1.979693e-03
N -2.832418e-02 1.760786e+00 -3.282928e+00 4.353321e-04 3.489928e-03 -6.766668e-04
N 3.124874e+00 -3.677267e+00 1.763233e+00 1.391240e-03 2.327424e-03 7.332604e-03
N 3.132912e+00 -3.680345e+00 6.841990e+00 1.022691e-03 2.606029e-03 -1.285799e-03
N 3.131857e+00 -3.680471e+00 -3.232424e+00 6.779096e-04 3.496218e-03 1.068453e-03
N 1.555520e+00 -9.537158e-01 1.767352e+00 2.113143e-03 1.902645e-04 1.053951e-02
N 1.600113e+00 -9.245635e-01 6.821918e+00 -1.630376e-04 -3.800571e-05 -3.194732e-03
N 1.592805e+00 -8.908155e-01 -3.264252e+00 3.847081e-03 -1.837353e-02 -1.224936e-02
N 3.113105e+00 1.762873e+00 1.752709e+00 -3.540822e-04 2.143186e-03 1.177680e-02
N 3.117155e+00 1.772203e+00 6.897145e+00 -2.784288e-05 3.406936e-04 1.596806e-04
N 3.116360e+00 1.770175e+00 -3.286938e+00 -3.063914e-04 7.352775e-04 2.931429e-06
N 6.267826e+00 -3.664084e+00 1.753393e+00 1.138788e-03 -1.011632e-03 1.129498e-02
N 6.282136e+00 -3.669732e+00 6.894288e+00 -1.577246e-04 7.755102e-04 6.367461e-04
N 6.280476e+00 -3.672076e+00 -3.288093e+00 -6.022806e-04 5.489389e-04 1.004150e-03
N 4.701134e+00 -9.422798e-01 1.762716e+00 -1.791217e-03 -2.498179e-03 3.966190e-03
N 4.710016e+00 -9.401885e-01 6.838122e+00 -1.231656e-03 -1.225223e-03 -2.977213e-03
N 4.702638e+00 -9.443922e-01 -3.288027e+00 -1.920684e-03 -2.026985e-03 -6.282007e-04
N -3.177143e+00 1.777671e+00 1.758445e+00 -8.041827e-04 1.295141e-03 8.463923e-03
N -3.176071e+00 1.774845e+00 6.836588e+00 -1.921098e-03 -2.205012e-04 -1.821752e-03
N -3.175392e+00 1.778669e+00 -3.290329e+00 -1.573591e-03 4.893293e-04 -4.608862e-04
N -1.008586e-02 -3.664139e+00 1.755064e+00 -1.027085e-03 -1.794790e-03 1.423566e-02
N -1.648179e-02 -3.709706e+00 6.825490e+00 -9.602763e-04 -3.171406e-04 -1.495685e-03
N -9.720953e-03 -3.709821e+00 -3.288491e+00 -2.128385e-04 8.623423e-06 4.566638e-04
N -1.590610e+00 -9.329202e-01 1.763526e+00 -2.290796e-03 -1.405923e-03 1.057749e-02
N -1.624027e+00 -9.134819e-01 6.829035e+00 -3.089065e-03 -1.972097e-03 -2.706409e-03
N -1.627583e+00 -9.134093e-01 -3.295152e+00 -3.095565e-03 -1.676663e-03 -6.813695e-04
