108
Energy=-1.352174e+06 Lattice="9.500545e+00 0.000000e+00 0.000000e+00 -4.752385e+00 8.228495e+00 0.000000e+00 2.225306e-03 3.045100e-03 1.533750e+01" Stress="-8.660948e-04 -9.768592e-05 1.124996e-04 -1.011527e-04 -9.952384e-04 1.675888e-04 1.072776e-04 1.612305e-04 -3.143427e-04" Properties=species:S:1:pos:R:3:forces:R:3 Config_type=AlGaN_super3_20_1_21.xyz
Al 1.569852e+00 8.719290e-01 2.403807e+00 1.299222e-05 4.095275e-04 1.780898e-04
Al 1.567001e+00 8.790963e-01 7.530925e+00 -1.151701e-04 5.397911e-04 4.970592e-05
Al 1.570417e+00 8.692657e-01 -2.720011e+00 -1.909177e-04 -1.154465e-05 -2.903074e-05
Al 1.504239e-03 3.622177e+00 2.432858e+00 4.461298e-04 3.636513e-04 -7.484435e-04
Al -9.750232e-03 3.612012e+00 7.505449e+00 2.896330e-04 -9.999088e-05 4.333604e-04
Al -1.958592e-02 3.608838e+00 -2.707886e+00 -8.179197e-05 1.368158e-05 1.161295e-04
Al 3.148604e+00 -1.845380e+00 2.399425e+00 7.946816e-04 -1.951987e-04 -6.407023e-04
Al 3.141113e+00 -1.855755e+00 7.525483e+00 6.830325e-04 -5.191094e-05 4.336858e-05
Ga 3.131993e+00 -1.861523e+00 -2.697803e+00 -9.164793e-05 9.434718e-05 2.973152e-04
Al -4.790986e+00 8.603058e-01 2.418249e+00 -2.768514e-04 -3.276792e-04 5.700525e-05
Al -4.792980e+00 8.741501e-01 7.497524e+00 4.571203e-05 -5.550753e-05 4.758199e-05
Al -4.799532e+00 8.741091e-01 -2.683218e+00 8.019557e-05 8.581785e-05 9.736433e-05
Al -6.365111e+00 3.623657e+00 2.391718e+00 -5.899018e-04 -1.517717e-05 5.091428e-05
Al -6.362945e+00 3.612453e+00 7.500029e+00 -1.643686e-04 -3.293269e-04 8.514695e-04
Ga -6.363793e+00 3.596119e+00 -2.676051e+00 1.771286e-05 -5.764159e-05 1.580749e-04
Al -3.197045e+00 -1.875228e+00 2.409710e+00 -1.415742e-04 -1.309809e-04 6.336810e-05
Ga -3.188598e+00 -1.873314e+00 7.487202e+00 -2.236467e-04 1.143723e-04 1.592124e-04
Ga -3.180239e+00 -1.866519e+00 -2.676326e+00 -8.630893e-05 9.928237e-05 1.013911e-04
Ga -1.598373e+00 8.642526e-01 2.434181e+00 4.665651e-04 -8.115120e-05 -6.225844e-05
Ga -1.589027e+00 8.711774e-01 7.506472e+00 4.059685e-05 1.474499e-04 2.819435e-04
Ga -1.589399e+00 8.646683e-01 -2.707314e+00 3.484090e-04 3.096926e-05 -1.035227e-04
Ga -3.208645e+00 3.629578e+00 2.434102e+00 2.717040e-04 2.661348e-04 -1.761242e-05
Ga -3.199061e+00 3.628044e+00 7.502417e+00 -7.445300e-07 -1.454481e-04 2.450913e-04
Ga -3.186315e+00 3.626241e+00 -2.696588e+00 1.268767e-04 -3.370422e-05 -1.207616e-04
Al -2.107444e-02 -1.869230e+00 2.402141e+00 -5.445900e-04 6.116703e-04 7.953974e-04
Al -2.037227e-02 -1.862445e+00 7.509880e+00 6.631841e-04 -3.004963e-04 -4.651404e-04
Al -1.650411e-02 -1.851089e+00 -2.685973e+00 -1.156428e-05 2.186175e-04 3.287191e-06
Al -1.443234e-02 1.795540e+00 4.965862e+00 -6.020804e-04 -5.415965e-04 -3.083813e-04
Al -7.766668e-03 1.788255e+00 -5.265630e+00 -5.101566e-05 -3.594169e-05 2.083771e-05
Ga 4.012439e-03 1.785615e+00 -1.441318e-01 -2.796856e-04 3.683362e-04 8.060686e-06
Ga 3.164832e+00 -3.691278e+00 4.959467e+00 -1.840289e-04 5.664179e-05 -2.806779e-06
Al 3.156985e+00 -3.697331e+00 -5.279949e+00 -1.480070e-05 4.566847e-05 2.891123e-05
Ga 3.159424e+00 -3.685686e+00 -1.124115e-01 -7.205260e-05 -4.857749e-06 -2.975775e-04
Ga 1.553524e+00 -9.517193e-01 4.965828e+00 -1.684839e-04 -4.353550e-05 1.107209e-04
Al 1.547538e+00 -9.467723e-01 -5.280230e+00 -8.073367e-05 6.229339e-05 -2.170256e-04
Al 1.553559e+00 -9.477503e-01 -1.356220e-01 1.968230e-04 -3.437304e-04 -3.013222e-04
Ga 3.144550e+00 1.799673e+00 4.954692e+00 9.128642e-05 4.261756e-05 -3.378912e-05
Al 3.131547e+00 1.776180e+00 -5.281000e+00 5.202089e-05 1.905444e-04 -1.325245e-04
Al 3.140610e+00 1.776571e+00 -1.243576e-01 6.258593e-04 8.723349e-04 3.518069e-05
Al 6.320732e+00 -3.691514e+00 4.948088e+00 3.039563e-04 -6.172269e-05 -7.947937e-04
Ga 6.304237e+00 -3.712714e+00 -5.272481e+00 4.420580e-05 -8.295748e-05 1.544932e-04
Al 6.316634e+00 -3.692516e+00 -1.199293e-01 -3.270001e-04 -8.353638e-05 3.029035e-04
Al 4.739446e+00 -9.501679e-01 4.951676e+00 -5.849848e-04 -4.630098e-04 -6.698362e-04
Ga 4.716613e+00 -9.471257e-01 -5.268872e+00 -8.477890e-05 -7.725134e-05 2.571537e-04
Al 4.728435e+00 -9.456598e-01 -1.235219e-01 -4.922469e-05 -2.469813e-04 2.216910e-04
Al -3.196735e+00 1.774629e+00 4.963185e+00 -5.795365e-05 1.562404e-04 5.939620e-04
Ga -3.196286e+00 1.778960e+00 -5.261953e+00 -2.749192e-05 -3.232343e-05 5.365318e-05
Ga -3.210923e+00 1.775499e+00 -1.330183e-01 1.776921e-05 4.275647e-06 -6.042000e-04
Al -4.598280e-02 -3.685066e+00 4.961313e+00 2.390823e-05 2.409440e-04 1.246745e-04
Ga -3.104571e-02 -3.677631e+00 -5.267307e+00 -9.262555e-05 -5.239996e-05 1.586675e-04
Al -4.010292e-02 -3.676528e+00 -1.320265e-01 7.211061e-04 -1.198105e-04 -3.361464e-04
Al -1.608220e+00 -9.591715e-01 4.942731e+00 3.160550e-07 -7.365335e-04 -1.037669e-04
Al -1.582341e+00 -9.554658e-01 -5.264697e+00 -5.937226e-05 -5.407769e-05 2.019479e-04
Al -1.600465e+00 -9.772072e-01 -1.189136e-01 5.119761e-04 4.773125e-05 2.861480e-04
N 1.522926e+00 8.960251e-01 4.309365e+00 -1.907473e-04 -1.741329e-04 1.030711e-04
N 1.557214e+00 8.742036e-01 -5.880904e+00 9.093252e-06 6.725580e-05 -4.429077e-05
N 1.610569e+00 8.474636e-01 -7.887525e-01 -5.818266e-04 -2.211756e-04 -3.816434e-04
N 2.707240e-02 3.594163e+00 4.337915e+00 -4.125954e-04 -8.230030e-05 2.285624e-04
N -6.320875e-02 3.586504e+00 -5.912600e+00 1.329202e-04 1.182570e-05 -4.080632e-04
N 1.823387e-02 3.642374e+00 -7.947474e-01 1.202157e-04 9.453329e-05 -1.263529e-04
N 3.182073e+00 -1.835174e+00 4.305150e+00 4.983465e-04 5.430659e-04 1.031047e-03
N 3.101259e+00 -1.889605e+00 -5.890620e+00 -1.533751e-04 -4.733996e-05 1.000856e-05
N 3.141482e+00 -1.820036e+00 -7.141348e-01 4.619088e-05 2.270291e-04 6.039081e-05
N -4.739113e+00 8.497149e-01 4.330054e+00 1.136379e-04 1.893973e-04 -2.052941e-04
N -4.817502e+00 8.956088e-01 -5.932685e+00 8.738259e-05 4.714396e-05 -3.177841e-04
N -4.824830e+00 8.497437e-01 -7.675536e-01 -1.000148e-04 3.464621e-05 -2.324360e-04
N -6.356944e+00 3.665673e+00 4.311524e+00 9.416254e-05 1.954239e-04 4.905688e-04
N -6.357934e+00 3.568533e+00 -5.919702e+00 -8.311407e-05 -2.959669e-05 -5.733637e-04
N -6.360671e+00 3.610047e+00 -6.859541e-01 -1.785131e-04 -5.024227e-04 -1.656065e-05
N -3.191820e+00 -1.867024e+00 4.344256e+00 -7.176203e-05 -8.875027e-05 1.323629e-04
N -3.146653e+00 -1.844834e+00 -5.874010e+00 4.484418e-05 1.543390e-04 -2.874998e-04
N -3.187053e+00 -1.866421e+00 -6.875612e-01 -6.496398e-04 -3.577173e-04 -7.385083e-05
N -1.604365e+00 8.781300e-01 4.414170e+00 1.274836e-03 2.031551e-04 2.352292e-04
N -1.562167e+00 8.514951e-01 -5.843911e+00 1.323547e-04 -2.153738e-06 -1.741495e-05
N -1.600667e+00 8.202459e-01 -7.307247e-01 -4.142157e-07 1.774686e-04 -1.637487e-04
N -3.235865e+00 3.599327e+00 4.410475e+00 -3.063298e-04 2.928270e-04 -1.256560e-04
N -3.157017e+00 3.640063e+00 -5.862137e+00 4.047434e-05 -6.051812e-05 -9.087754e-05
N -3.227299e+00 3.647155e+00 -7.226197e-01 -3.594919e-04 2.804022e-04 1.614638e-04
N -5.809636e-02 -1.888926e+00 4.318773e+00 2.517102e-04 -6.935013e-05 -4.982909e-04
N -2.481820e-02 -1.820840e+00 -5.917341e+00 1.505107e-04 1.993310e-04 2.315638e-04
N -2.118304e-02 -1.860182e+00 -7.556113e-01 9.561571e-05 -6.453784e-05 -7.991501e-05
N 1.981818e-02 1.815908e+00 1.828970e+00 1.064266e-04 -1.102097e-04 1.095011e-04
N 2.869163e-02 1.811858e+00 6.882123e+00 8.350173e-05 -6.409313e-05 4.042454e-05
N 2.649439e-02 1.812934e+00 -3.338245e+00 4.968001e-05 9.539244e-05 1.371716e-04
N 3.191780e+00 -3.675930e+00 1.860983e+00 -3.780598e-04 -2.420457e-05 2.474088e-04
N 3.194583e+00 -3.665151e+00 6.933726e+00 -1.931291e-04 9.779717e-05 -1.825720e-04
N 3.191876e+00 -3.717972e+00 -3.358302e+00 1.374029e-04 1.870518e-04 -8.819903e-05
N 1.555628e+00 -9.500136e-01 1.791876e+00 -1.780577e-04 -4.867790e-05 -1.488199e-06
N 1.565105e+00 -9.472448e-01 6.952872e+00 -1.131466e-03 -5.066483e-04 -1.078573e-04
N 1.515324e+00 -9.331290e-01 -3.349764e+00 1.601117e-05 4.101147e-05 5.616190e-05
N 3.144575e+00 1.785753e+00 1.802812e+00 2.345877e-05 -1.318645e-04 -1.700529e-05
N 3.137506e+00 1.790152e+00 6.935091e+00 9.569676e-06 -2.252411e-05 1.487841e-04
N 3.145424e+00 1.741788e+00 -3.352952e+00 -5.339475e-05 -1.932590e-04 2.485978e-04
N 6.306554e+00 -3.694691e+00 1.801512e+00 9.393732e-05 -1.504093e-04 -8.546633e-05
N 6.313761e+00 -3.745301e+00 6.866938e+00 -3.008013e-05 -1.007936e-04 6.546705e-04
N 6.277257e+00 -3.720245e+00 -3.301282e+00 1.155316e-04 -3.336208e-05 -1.151171e-04
N 4.731430e+00 -9.491636e-01 1.797827e+00 -1.373532e-04 4.688210e-05 -1.425473e-04
N 4.682409e+00 -9.305957e-01 6.872397e+00 -9.148312e-05 -2.214190e-04 3.663920e-04
N 4.729698e+00 -9.084806e-01 -3.297624e+00 -8.438074e-05 -4.595137e-05 -8.937633e-05
N -3.232910e+00 1.763736e+00 1.831174e+00 -1.223664e-04 1.842983e-04 2.951024e-04
N -3.230783e+00 1.761067e+00 6.874244e+00 -1.046221e-04 2.916652e-05 -1.049436e-04
N -3.237533e+00 1.760093e+00 -3.286616e+00 7.520928e-07 -1.800474e-04 2.751291e-04
N -6.321651e-02 -3.664607e+00 1.778577e+00 -1.215586e-06 -7.970228e-04 -1.780927e-04
N -7.267510e-02 -3.665860e+00 6.882681e+00 4.526793e-04 4.084488e-04 -5.096555e-04
N -3.233358e-02 -3.643936e+00 -3.292081e+00 7.011862e-05 -4.685579e-05 7.610395e-05
N -1.605868e+00 -1.002986e+00 1.795977e+00 2.218103e-05 1.593225e-04 4.129398e-05
N -1.560809e+00 -9.790993e-01 6.848733e+00 -6.689515e-05 2.962576e-04 -6.396606e-04
N -1.561088e+00 -9.859987e-01 -3.352253e+00 -2.344797e-04 -1.530517e-04 -7.541990e-05
