108
Energy=-940194.506378 Lattice="9.455236 0.000000 0.000000 -4.729976 8.185696 0.000000 -0.001194 0.000445 15.220847" Stress="0.000002 -0.000001 0.000000 -0.000001 -0.000001 0.000001 0.000000 0.000001 0.000006" Properties=species:S:1:pos:R:3:forces:R:3
Al 1.550829 0.873936 2.397341 -0.000087 -0.000076 0.000022
Al 1.550346 0.876710 7.447294 0.000004 0.000066 -0.000107
Al 1.542967 0.867417 -2.684487 -0.000019 -0.000042 -0.000141
Al -0.011462 3.594674 2.376959 0.000107 -0.000014 -0.000007
Al -0.010501 3.587773 7.447434 0.000020 -0.000026 -0.000048
Al -0.024132 3.582746 -2.658689 -0.000017 -0.000019 -0.000012
Al 3.140893 -1.845229 2.373938 -0.000006 0.000109 -0.000084
Al 3.142919 -1.836061 7.463899 0.000019 -0.000084 -0.000073
Al 3.125148 -1.847362 -2.673023 -0.000026 -0.000043 -0.000018
Al -4.748676 0.860675 2.400526 -0.000034 0.000007 0.000002
Al -4.751644 0.858948 7.443325 -0.000107 -0.000005 0.000003
Al -4.746087 0.868976 -2.683011 0.000083 -0.000099 0.000037
Al -6.348383 3.592721 2.412926 -0.000080 0.000104 0.000046
Al -6.338154 3.592732 7.439667 0.000022 -0.000026 -0.000050
Al -6.325659 3.594068 -2.678067 0.000061 0.000036 -0.000055
Al -3.181795 -1.858354 2.382567 0.000003 -0.000014 -0.000014
Al -3.186701 -1.852283 7.446010 -0.000012 -0.000036 -0.000062
Ga -3.176584 -1.851350 -2.667919 -0.000008 0.000026 -0.000028
Al -1.598600 0.871694 2.385213 0.000021 -0.000109 0.000002
Al -1.599138 0.872420 7.460087 0.000132 0.000003 0.000076
Al -1.592548 0.878083 -2.685222 -0.000012 -0.000059 -0.000010
Ga -3.164852 3.583561 2.390292 -0.000102 0.000082 -0.000060
Ga -3.183173 3.584226 7.471622 0.000049 -0.000015 0.000019
Al -3.174939 3.589470 -2.685012 0.000009 -0.000003 0.000036
Ga -0.023317 -1.838365 2.404783 -0.000016 0.000025 0.000029
Ga -0.025934 -1.850071 7.463455 -0.000008 -0.000020 -0.000058
Al -0.014698 -1.848874 -2.696994 0.000057 -0.000012 0.000022
Al -0.022654 1.770368 4.914666 0.000004 -0.000038 0.000030
Al -0.032176 1.764596 -5.221566 0.000025 0.000052 -0.000005
Al -0.032424 1.775639 -0.145198 -0.000031 0.000004 -0.000083
Ga 3.140274 -3.668124 4.929942 0.000021 0.000028 0.000033
Ga 3.132902 -3.671641 -5.206650 0.000057 -0.000003 0.000024
Al 3.143139 -3.674140 -0.161741 0.000005 0.000043 -0.000070
Al 1.560367 -0.935269 4.926878 -0.000131 -0.000037 -0.000066
Al 1.552851 -0.944196 -5.213086 -0.000031 0.000197 0.000061
Al 1.555411 -0.943505 -0.159217 -0.000028 -0.000031 -0.000090
Al 3.126955 1.777304 4.918947 -0.000026 0.000013 0.000000
Ga 3.134408 1.769700 -5.223873 0.000022 -0.000010 -0.000037
Ga 3.124854 1.769361 -0.140275 0.000028 -0.000029 -0.000069
Al 6.287050 -3.674274 4.920646 -0.000021 -0.000010 -0.000040
Ga 6.285320 -3.673094 -5.230556 0.000009 -0.000032 -0.000026
Al 6.271020 -3.676757 -0.131066 -0.000039 -0.000030 0.000017
Al 4.708197 -0.943342 4.914499 0.000049 -0.000006 0.000000
Al 4.706880 -0.937934 -5.231767 0.000213 0.000019 0.000085
Al 4.705385 -0.950567 -0.130768 -0.000076 0.000155 -0.000039
Al -3.175242 1.758875 4.926655 -0.000003 -0.000044 -0.000083
Al -3.169442 1.761117 -5.213489 -0.000020 -0.000096 0.000061
Al -3.160478 1.763875 -0.157391 -0.000101 -0.000169 -0.000100
Al -0.038251 -3.679986 4.922485 -0.000083 0.000077 -0.000065
Al -0.024561 -3.672938 -5.195549 -0.000037 -0.000139 0.000104
Ga -0.021403 -3.668685 -0.159462 -0.000010 0.000046 -0.000052
Al -1.609903 -0.939264 4.924177 0.000061 -0.000091 -0.000112
Al -1.597660 -0.934746 -5.226412 0.000018 0.000030 0.000052
Al -1.599150 -0.933578 -0.145517 -0.000026 0.000019 -0.000052
N 1.549395 0.870422 4.316878 0.000038 -0.000053 -0.000001
N 1.509679 0.847089 -5.852091 -0.000022 -0.000119 0.000188
N 1.507216 0.850021 -0.773232 -0.000034 -0.000007 0.000221
N 0.018694 3.573141 4.294729 0.000010 0.000137 -0.000061
N -0.023008 3.545982 -5.867145 -0.000009 -0.000015 0.000060
N -0.018772 3.591942 -0.740078 0.000000 0.000001 0.000061
N 3.128656 -1.807712 4.287025 -0.000036 -0.000027 -0.000038
N 3.129396 -1.805729 -5.842807 -0.000029 -0.000068 -0.000069
N 3.133070 -1.850446 -0.751782 -0.000033 -0.000014 0.000027
N -4.749641 0.869690 4.319636 0.000048 -0.000022 0.000032
N -4.707023 0.848357 -5.859917 0.000054 0.000031 0.000050
N -4.708359 0.841559 -0.770357 0.000018 0.000067 0.000110
N -6.334899 3.597609 4.325914 0.000021 -0.000033 0.000050
N -6.281954 3.620768 -5.870960 -0.000014 0.000031 -0.000007
N -6.372498 3.620402 -0.780595 0.000053 -0.000006 0.000060
N -3.175394 -1.858385 4.310164 0.000017 -0.000030 0.000044
N -3.174164 -1.808563 -5.853144 -0.000082 0.000036 0.000040
N -3.175202 -1.856875 -0.688729 0.000118 -0.000010 -0.000075
N -1.598579 0.871922 4.305017 0.000047 -0.000050 0.000053
N -1.598286 0.873075 -5.836185 0.000027 -0.000007 0.000013
N -1.594439 0.870882 -0.765038 0.000000 -0.000027 0.000051
N -3.211676 3.571358 4.361168 0.000056 -0.000002 -0.000005
N -3.218674 3.572081 -5.773256 0.000022 -0.000002 -0.000078
N -3.133503 3.570212 -0.766645 -0.000057 0.000015 -0.000106
N -0.021833 -1.849814 4.382250 -0.000016 0.000081 0.000064
N -0.020446 -1.859410 -5.770699 -0.000053 0.000016 -0.000087
N -0.023754 -1.804101 -0.778405 -0.000005 -0.000025 -0.000055
N -0.023242 1.775477 1.779141 -0.000019 0.000020 0.000008
N -0.027557 1.775132 6.836939 -0.000009 0.000006 0.000026
N -0.023945 1.781677 -3.296725 -0.000019 -0.000002 -0.000009
N 3.174258 -3.652286 1.761145 -0.000057 -0.000025 0.000079
N 3.170658 -3.649137 6.902676 -0.000017 0.000118 -0.000036
N 3.138118 -3.674247 -3.223165 0.000012 0.000096 -0.000001
N 1.593575 -0.921254 1.756465 0.000071 0.000098 0.000156
N 1.597048 -0.923947 6.836836 0.000029 -0.000057 0.000097
N 1.560300 -0.946262 -3.293111 -0.000029 0.000047 0.000011
N 3.129915 1.778576 1.843677 0.000067 -0.000082 -0.000001
N 3.127144 1.776096 6.847838 0.000024 -0.000026 -0.000009
N 3.128797 1.775700 -3.239311 0.000011 0.000024 -0.000051
N 6.284993 -3.679018 1.787626 -0.000032 -0.000002 0.000098
N 6.279149 -3.673691 6.845852 0.000020 0.000022 0.000022
N 6.277541 -3.723544 -3.259954 -0.000081 0.000040 -0.000033
N 4.706230 -0.944068 1.785019 -0.000032 0.000005 0.000078
N 4.703396 -0.949937 6.834601 0.000002 -0.000010 0.000012
N 4.664447 -0.926401 -3.315651 0.000004 0.000023 -0.000068
N -3.175911 1.726213 1.757245 0.000022 0.000021 0.000016
N -3.172833 1.726813 6.835071 0.000004 0.000042 -0.000070
N -3.173159 1.771855 -3.291751 -0.000016 0.000014 0.000003
N -0.065335 -3.698278 1.806105 0.000116 -0.000068 0.000065
N -0.062949 -3.698683 6.819847 -0.000021 -0.000006 0.000097
N -0.023678 -3.678381 -3.273627 -0.000022 0.000012 0.000062
N -1.636971 -0.922892 1.768551 -0.000018 0.000104 0.000011
N -1.642880 -0.921073 6.837961 -0.000025 -0.000008 0.000000
N -1.563061 -0.921061 -3.310523 -0.000022 0.000025 -0.000048
