108
Energy=-5.282149e+05 Lattice="9.419941e+00 0.000000e+00 0.000000e+00 -4.715278e+00 8.151147e+00 0.000000e+00 4.421347e-02 -1.967225e-02 1.507681e+01" Stress="4.180353e-03 1.055981e-03 2.186589e-03 1.056142e-03 1.516006e-03 -1.462233e-03 2.182776e-03 -1.461080e-03 -2.107014e-03" Properties=species:S:1:pos:R:3:forces:R:3 Config_type=AlGaN_super3_2_0_6.xyz
Al 1.552686e+00 8.618686e-01 2.360921e+00 2.565877e-04 7.239419e-04 3.372887e-04
Al 1.568898e+00 8.536939e-01 7.385616e+00 7.632799e-04 -9.672627e-04 -1.380360e-04
Al 1.535941e+00 8.776563e-01 -2.664428e+00 4.784412e-04 -1.033909e-03 -6.916525e-04
Al -1.757810e-02 3.571805e+00 2.357824e+00 -1.388385e-03 -1.011631e-03 2.988203e-04
Al 3.428313e-03 3.566973e+00 7.387821e+00 2.072296e-04 -4.399683e-04 3.100451e-05
Al -3.263290e-02 3.584026e+00 -2.663201e+00 -3.578176e-04 -4.065686e-04 -1.953828e-03
Al 3.134944e+00 -1.858934e+00 2.367151e+00 4.227095e-04 -9.129859e-04 -4.228928e-05
Al 3.155618e+00 -1.869305e+00 7.384513e+00 2.734119e-04 -1.698059e-04 -8.595947e-06
Al 3.123944e+00 -1.850161e+00 -2.667485e+00 1.883026e-04 -9.715809e-04 2.545239e-04
Al -4.729721e+00 8.632762e-01 2.355934e+00 1.976533e-03 -5.724381e-04 -3.901330e-04
Al -4.716356e+00 8.578818e-01 7.387552e+00 1.222804e-03 -9.303014e-04 -3.121040e-04
Al -4.754710e+00 8.756604e-01 -2.662196e+00 1.409725e-03 -1.338952e-03 -1.766649e-03
Al -6.301770e+00 3.582238e+00 2.366569e+00 9.214627e-04 -8.194788e-04 -6.502538e-04
Al -6.281756e+00 3.571064e+00 7.386971e+00 -5.376961e-05 -4.286189e-06 -4.874055e-04
Al -6.321513e+00 3.582489e+00 -2.663924e+00 -3.364045e-04 1.077283e-04 -1.047579e-03
Al -3.161709e+00 -1.866085e+00 2.370466e+00 2.875860e-03 6.231280e-03 5.866813e-03
Al -3.131257e+00 -1.863992e+00 7.386758e+00 3.172209e-04 -1.490706e-05 -5.888594e-04
Al -3.181935e+00 -1.850182e+00 -2.671749e+00 1.197897e-03 2.567964e-04 -3.479577e-03
Al -1.592627e+00 8.604256e-01 2.366614e+00 -2.792530e-04 3.752351e-02 1.367150e-02
Al -1.582498e+00 8.637021e-01 7.387753e+00 2.482973e-03 -1.247487e-03 -9.477324e-04
Al -1.624822e+00 8.878713e-01 -2.632353e+00 2.699442e-03 -5.559624e-04 -2.561112e-02
Al -3.166568e+00 3.584651e+00 2.356651e+00 9.953493e-04 -1.169961e-03 -3.983780e-04
Al -3.145175e+00 3.575932e+00 7.387192e+00 1.577764e-03 -6.839570e-04 -3.969093e-04
Al -3.182801e+00 3.586619e+00 -2.660691e+00 2.457229e-03 -1.988961e-04 -1.592317e-03
Al -9.396583e-03 -1.834614e+00 2.400146e+00 8.884007e-04 -1.121317e-03 -2.609297e-03
Al 4.565529e-03 -1.858454e+00 7.389516e+00 1.526424e-03 -1.638514e-04 -8.441259e-04
Ga -3.266025e-02 -1.846935e+00 -2.662013e+00 2.093048e-03 1.268901e-03 -3.015425e-03
Al -3.146267e-03 1.758676e+00 4.876646e+00 -4.170105e-03 -4.357614e-04 4.092919e-05
Al -3.972575e-02 1.773272e+00 -5.176352e+00 -1.823689e-03 1.607627e-04 2.823236e-04
Al -2.432404e-02 1.786340e+00 -1.472566e-01 -3.155725e-03 -2.507721e-03 -7.187842e-03
Al 3.147598e+00 -3.679778e+00 4.875272e+00 -2.228096e-03 5.490976e-05 -5.418885e-04
Al 3.111438e+00 -3.662553e+00 -5.177671e+00 -1.826780e-03 3.610097e-04 -6.226818e-04
Al 3.120201e+00 -3.663558e+00 -1.434757e-01 -2.056201e-03 4.901103e-04 -5.561547e-03
Al 1.587272e+00 -9.625677e-01 4.879878e+00 -2.906197e-03 2.178563e-03 1.482089e-05
Al 1.553091e+00 -9.432599e-01 -5.185402e+00 -3.273594e-03 1.140196e-03 -9.263843e-04
Al 1.565298e+00 -9.440992e-01 -1.445900e-01 -3.964395e-04 2.232970e-03 3.242296e-03
Al 3.131552e+00 1.764090e+00 4.873958e+00 -1.538622e-04 -3.420792e-04 -2.029866e-04
Al 3.095538e+00 1.779349e+00 -5.178423e+00 -2.764323e-04 -1.058583e-04 -1.862796e-04
Al 3.107573e+00 1.777114e+00 -1.440616e-01 -1.799163e-04 -7.071227e-05 -4.900587e-03
Al 6.280005e+00 -3.674604e+00 4.877836e+00 -1.130358e-03 1.148188e-03 -1.036532e-04
Al 6.245710e+00 -3.658000e+00 -5.178914e+00 -2.399377e-04 1.758510e-04 -1.158111e-03
Al 6.251827e+00 -3.664377e+00 -1.457332e-01 8.466399e-04 -2.195572e-03 -4.280379e-03
Al 4.718186e+00 -9.582308e-01 4.878165e+00 -3.471354e-04 1.302455e-03 -6.664160e-04
Al 4.680643e+00 -9.416168e-01 -5.180436e+00 -1.164712e-03 1.370025e-03 -6.551002e-04
Al 4.681039e+00 -9.476636e-01 -1.443580e-01 -2.369359e-03 3.280855e-03 -4.177950e-03
Al -3.152930e+00 1.766947e+00 4.872904e+00 1.490425e-03 -6.458033e-04 1.095480e-04
Al -3.188182e+00 1.783358e+00 -5.175955e+00 -5.061994e-04 2.000405e-04 1.087035e-03
Al -3.183715e+00 1.788937e+00 -1.485378e-01 -2.999502e-03 9.601689e-04 -5.563737e-03
Al -1.056583e-03 -3.671356e+00 4.880498e+00 -2.640039e-04 3.099096e-04 -3.663890e-04
Al -3.883103e-02 -3.658221e+00 -5.185486e+00 -1.700719e-04 7.878377e-04 -1.122568e-03
Al -2.939726e-02 -3.663140e+00 -1.379668e-01 6.203453e-05 -2.575956e-03 -9.629533e-04
Al -1.564677e+00 -9.554558e-01 4.881186e+00 -2.644171e-03 3.199215e-03 -4.588646e-03
Al -1.608140e+00 -9.318633e-01 -5.180628e+00 -7.080914e-04 9.583385e-04 -3.557025e-05
Ga -1.609796e+00 -9.322516e-01 -1.417414e-01 1.607138e-03 5.655984e-03 1.192122e-02
N 1.560600e+00 8.590898e-01 4.279684e+00 1.660498e-03 -1.714829e-03 -6.131426e-04
N 1.527011e+00 8.730679e-01 -5.776773e+00 9.483851e-04 -7.962791e-04 3.392126e-04
N 1.537468e+00 8.725081e-01 -7.443505e-01 -4.306848e-04 -2.411369e-03 1.957539e-04
N -4.016549e-03 3.569352e+00 4.274003e+00 8.132312e-04 -4.121877e-05 -5.568082e-04
N -3.813173e-02 3.586507e+00 -5.774400e+00 2.684857e-04 -4.408827e-04 6.061733e-04
N -2.502408e-02 3.589636e+00 -7.485949e-01 -1.398208e-03 -1.589872e-04 8.157328e-04
N 3.149537e+00 -1.866151e+00 4.281958e+00 2.871510e-04 -1.307801e-04 -3.314217e-04
N 3.114231e+00 -1.850806e+00 -5.778887e+00 3.705154e-04 -5.589495e-04 4.085223e-04
N 3.119340e+00 -1.851061e+00 -7.470062e-01 -2.779196e-05 -8.217884e-04 -8.857489e-05
N -4.722263e+00 8.601300e-01 4.273334e+00 3.909002e-04 -1.320966e-03 -1.700281e-04
N -4.758607e+00 8.754131e-01 -5.773619e+00 1.266070e-03 -9.194903e-04 4.881787e-04
N -4.750675e+00 8.727429e-01 -7.474277e-01 1.449325e-03 -2.503119e-03 1.578837e-03
N -6.289116e+00 3.576063e+00 4.278629e+00 5.754158e-04 -1.702174e-04 1.474966e-04
N -6.324185e+00 3.589104e+00 -5.778260e+00 1.389963e-04 -7.756236e-05 5.006253e-04
N -6.313534e+00 3.587761e+00 -7.489954e-01 1.309524e-04 1.101967e-03 1.532910e-03
N -3.139276e+00 -1.864386e+00 4.282683e+00 -1.818268e-03 -2.254930e-03 2.847038e-03
N -3.174602e+00 -1.845875e+00 -5.776785e+00 6.082655e-04 -2.288770e-04 7.720870e-04
N -3.199516e+00 -1.868716e+00 -7.649513e-01 -1.625066e-03 -1.131455e-03 3.893137e-03
N -1.587277e+00 8.656226e-01 4.282602e+00 2.974008e-03 3.137359e-03 5.009651e-03
N -1.624718e+00 8.832208e-01 -5.772764e+00 2.886427e-03 -1.249627e-03 -7.480505e-04
N -1.632637e+00 9.290434e-01 -8.035861e-01 9.808747e-03 -1.433360e-03 2.586420e-02
N -3.153285e+00 3.578615e+00 4.274733e+00 1.490436e-03 3.795402e-05 -4.488888e-04
N -3.185619e+00 3.595032e+00 -5.776628e+00 1.845951e-03 -4.513423e-04 3.402021e-04
N -3.182149e+00 3.596767e+00 -7.464771e-01 2.408719e-03 5.556566e-04 1.470230e-03
N 6.348786e-03 -1.859171e+00 4.299583e+00 1.973372e-03 -1.172086e-03 2.348190e-03
N -3.802189e-02 -1.838809e+00 -5.770500e+00 1.664429e-03 -3.302745e-04 7.390816e-04
N 3.172278e-03 -1.862815e+00 -7.027781e-01 1.881979e-03 1.297395e-03 4.119124e-03
N -2.009666e-02 1.761220e+00 1.743702e+00 2.517038e-04 1.975532e-03 7.357206e-03
N 1.545368e-03 1.756128e+00 6.791851e+00 -1.149372e-03 3.755780e-04 5.248477e-04
N -3.499513e-02 1.772775e+00 -3.257789e+00 -1.901513e-03 -3.378122e-04 6.187919e-04
N 3.131168e+00 -3.669752e+00 1.757116e+00 -1.711666e-03 1.985515e-04 5.109175e-03
N 3.151763e+00 -3.682386e+00 6.790022e+00 -1.583105e-03 6.789112e-04 -9.738388e-05
N 3.113120e+00 -3.664403e+00 -3.260787e+00 -1.566508e-03 6.600819e-04 1.452884e-03
N 1.571772e+00 -9.503702e-01 1.786501e+00 -3.121681e-03 1.765706e-04 -3.262599e-03
N 1.589560e+00 -9.645669e-01 6.794332e+00 -2.537752e-03 1.437959e-03 5.773770e-04
N 1.586153e+00 -9.263880e-01 -3.274911e+00 1.183720e-04 2.798246e-03 -4.121574e-04
N 3.120671e+00 1.772547e+00 1.755713e+00 -3.815127e-04 1.593959e-05 5.632048e-03
N 3.137207e+00 1.761706e+00 6.788729e+00 -2.681590e-04 -2.843406e-04 -9.535847e-05
N 3.099513e+00 1.780062e+00 -3.262251e+00 -3.584127e-05 -6.462688e-04 5.743101e-04
N 6.262690e+00 -3.669611e+00 1.758253e+00 2.234291e-03 2.729332e-03 3.053616e-03
N 6.285459e+00 -3.675732e+00 6.790522e+00 -2.677419e-04 -1.252700e-04 6.132754e-04
N 6.248825e+00 -3.660141e+00 -3.265828e+00 -6.382428e-05 2.327481e-04 1.537665e-03
N 4.701039e+00 -9.560929e-01 1.758280e+00 -5.656428e-04 1.334844e-03 3.530850e-03
N 4.723068e+00 -9.582439e-01 6.791503e+00 -1.488805e-03 1.183012e-03 3.155057e-04
N 4.682674e+00 -9.412299e-01 -3.266059e+00 -1.120516e-03 1.437347e-03 1.169724e-03
N -3.158077e+00 1.766439e+00 1.740339e+00 -2.179405e-03 3.510758e-03 8.744263e-03
N -3.148842e+00 1.765286e+00 6.788786e+00 -7.117471e-04 2.421680e-04 5.145749e-04
N -3.187407e+00 1.782242e+00 -3.256728e+00 -2.859718e-04 -1.285089e-04 -1.252289e-03
N -2.922535e-02 -3.649767e+00 1.767137e+00 9.862391e-04 1.113038e-03 4.805231e-03
N 2.055832e-03 -3.672957e+00 6.793238e+00 -2.744539e-04 4.778829e-04 6.780170e-04
N -3.715136e-02 -3.694455e+00 -3.278182e+00 1.585161e-04 -3.776676e-03 -3.520985e-04
N -1.586408e+00 -8.529615e-01 1.951135e+00 -1.524085e-03 -5.374756e-02 -3.855540e-02
N -1.562708e+00 -9.549797e-01 6.794645e+00 -9.262296e-04 8.656597e-04 8.156219e-04
N -1.634425e+00 -9.191412e-01 -3.264906e+00 -4.457961e-03 3.325762e-03 -1.031342e-03
