108
Energy=-1855704.180286 Lattice="9.570770 0.000000 0.000000 -4.793616 8.283449 0.000000 -0.014729 0.028727 15.459272" Stress="-0.000004 -0.000000 -0.000003 -0.000000 -0.000007 0.000006 -0.000003 0.000006 -0.000014" Properties=species:S:1:pos:R:3:forces:R:3
Al 1.565418 0.891100 2.440007 0.000433 -0.000941 0.000441
Al 1.546812 0.894334 7.592854 0.000469 -0.000924 0.000231
Al 1.561488 0.857623 -2.760381 0.000297 -0.000690 0.001102
Al -0.033833 3.644920 2.427479 -0.000073 0.000174 0.000464
Al -0.035941 3.642174 7.593987 -0.000337 -0.000035 0.000063
Ga -0.020923 3.619226 -2.738718 -0.000309 -0.000058 0.001797
Al 3.169675 -1.866011 2.441793 -0.000293 -0.000180 0.000441
Al 3.158182 -1.865863 7.585415 -0.000019 0.000103 0.000864
Ga 3.154624 -1.892354 -2.745448 -0.000228 -0.000075 0.001065
Al -4.813009 0.891499 2.435384 0.000303 -0.000494 0.000178
Ga -4.829685 0.891166 7.566508 0.000593 -0.000751 0.000439
Ga -4.812969 0.876718 -2.708550 0.000409 -0.000047 0.000501
Ga -6.409916 3.644212 2.436374 -0.000493 0.000386 0.000172
Al -6.412431 3.661753 7.577620 0.000460 0.000084 0.000322
Ga -6.401761 3.636059 -2.723816 0.000467 -0.000003 0.001240
Ga -3.222891 -1.864903 2.431565 0.000998 -0.000478 0.001191
Ga -3.221291 -1.866082 7.565615 0.000092 0.000486 0.000089
Ga -3.190453 -1.894804 -2.705486 0.000149 0.000221 0.000629
Al -1.626574 0.903788 2.405356 0.000865 -0.001216 0.000380
Al -1.607585 0.904188 7.587258 0.000764 -0.000387 0.000571
Ga -1.604357 0.870206 -2.712708 0.001238 -0.000538 0.000655
Al -3.215231 3.647064 2.438600 0.000679 -0.000288 0.000738
Ga -3.229517 3.674820 7.581707 0.000716 -0.000108 0.000925
Ga -3.215300 3.643320 -2.737808 0.000585 0.000222 0.000328
Ga -0.014031 -1.862002 2.440854 0.000491 0.000467 0.000388
Al -0.018953 -1.866567 7.580457 0.000809 -0.000004 0.000840
Al -0.007481 -1.881472 -2.744031 0.000695 0.000138 0.001204
Ga -0.031628 1.812127 5.003720 -0.000965 0.000063 0.002034
Al -0.017302 1.785238 -5.326109 -0.000737 0.000208 0.000783
Ga -0.020061 1.788553 -0.125714 -0.000822 0.000455 -0.002512
Ga 3.171808 -3.700035 4.998431 -0.001140 0.000066 0.000989
Al 3.176236 -3.731870 -5.332019 -0.000391 0.000053 -0.000058
Ga 3.176030 -3.740323 -0.110814 -0.000339 0.000919 -0.001126
Ga 1.583547 -0.955112 5.024923 -0.000828 0.000956 0.000644
Al 1.574828 -0.983359 -5.331589 -0.001074 0.000799 0.000419
Ga 1.568589 -0.965082 -0.142828 -0.001480 0.000962 -0.000914
Ga 3.159572 1.812935 5.011759 -0.000117 -0.000574 0.000825
Ga 3.154361 1.791198 -5.318482 -0.000483 0.000300 0.000706
Ga 3.157005 1.790703 -0.128979 -0.000198 0.000750 -0.001967
Ga 6.354499 -3.710779 5.025019 -0.000426 -0.000102 0.000743
Ga 6.365296 -3.745968 -5.330826 -0.000130 -0.000153 0.000901
Al 6.360530 -3.721696 -0.133285 0.000433 -0.000551 0.001208
Al 4.748231 -0.947595 4.995860 -0.000686 0.000759 0.000581
Ga 4.756034 -0.984348 -5.303381 -0.000469 0.000539 0.000808
Ga 4.778049 -0.969196 -0.120541 -0.000616 0.001098 -0.002927
Ga -3.224573 1.813225 4.986053 -0.000503 0.000274 0.001219
Ga -3.197131 1.802360 -5.317740 -0.000004 0.000146 0.000450
Al -3.214300 1.796458 -0.118117 -0.000030 -0.000630 0.001355
Al -0.025518 -3.706107 5.015950 0.000564 -0.000323 0.000762
Al -0.006229 -3.716234 -5.315094 -0.000337 0.000086 0.000976
Ga -0.020379 -3.720488 -0.147156 -0.000697 0.001039 -0.001201
Ga -1.618546 -0.942285 5.019806 -0.000841 0.001035 0.000428
Ga -1.581309 -0.971133 -5.317907 -0.000618 0.001063 0.000933
Al -1.615062 -0.964737 -0.149724 0.000420 0.000058 0.001630
N 1.560801 0.891168 4.350967 0.000838 -0.001050 -0.001615
N 1.532442 0.843985 -5.945070 -0.000238 -0.001248 -0.000470
N 1.565597 0.870885 -0.835671 0.000447 -0.000021 -0.001298
N -0.027877 3.652255 4.339402 0.000276 0.000102 -0.001749
N -0.061513 3.602204 -5.944372 -0.000995 -0.000675 -0.000649
N 0.009234 3.653330 -0.750394 0.001102 0.000499 -0.001002
N 3.200227 -1.844439 4.356253 0.000684 0.000066 -0.001625
N 3.138883 -1.913393 -5.945874 -0.000744 -0.000702 -0.000943
N 3.168689 -1.895413 -0.768934 0.000589 -0.000074 -0.000703
N -4.821067 0.851572 4.359241 0.000530 -0.001035 -0.001385
N -4.806939 0.867633 -5.928628 0.000495 -0.000356 -0.000781
N -4.771826 0.900911 -0.732293 0.001110 -0.000027 -0.000367
N -6.375902 3.680171 4.410789 0.000764 0.000476 -0.000574
N -6.353190 3.654870 -5.962143 0.000968 0.000296 -0.001229
N -6.446001 3.656080 -0.742381 -0.001103 0.000779 -0.000772
N -3.253155 -1.846097 4.416318 0.000105 0.000182 -0.000525
N -3.204029 -1.886174 -5.930154 0.000404 -0.000057 -0.000877
N -3.169843 -1.910915 -0.718888 0.001005 -0.000193 -0.000158
N -1.628321 0.895551 4.321449 0.001270 -0.001033 -0.001577
N -1.577536 0.894960 -5.959664 0.001944 -0.000292 -0.000767
N -1.662140 0.859417 -0.722244 0.000186 -0.000536 0.000197
N -3.265697 3.682229 4.364291 0.000089 0.000327 -0.001403
N -3.218821 3.682283 -5.898171 0.000791 0.000621 -0.000147
N -3.214732 3.591175 -0.753469 0.000579 -0.000536 -0.000031
N -0.027010 -1.907707 4.414927 0.001045 -0.000894 -0.000315
N 0.024481 -1.918770 -5.956070 0.001807 -0.000437 -0.000914
N -0.055786 -1.862079 -0.811499 -0.000564 0.000549 -0.001318
N -0.018566 1.810401 1.852176 -0.001029 -0.001005 0.003001
N -0.029552 1.816214 6.998392 -0.000519 0.000059 -0.000341
N 0.015267 1.765858 -3.395890 -0.000218 -0.000258 -0.001462
N 3.170350 -3.709717 1.874898 -0.001079 -0.001001 0.001961
N 3.209078 -3.684088 6.987368 0.000377 0.000144 -0.000027
N 3.183284 -3.735568 -3.414615 -0.000617 0.000097 -0.001261
N 1.614253 -0.925959 1.837829 0.000081 0.000370 0.001756
N 1.574872 -0.946015 7.014344 -0.001062 0.000569 0.000321
N 1.541985 -0.954160 -3.392573 -0.001799 0.001045 -0.001152
N 3.157898 1.765342 1.847488 0.000207 -0.002024 0.002481
N 3.110194 1.837376 6.996576 -0.001254 0.000546 -0.000145
N 3.128786 1.770375 -3.336775 -0.000864 -0.000379 -0.000572
N 6.319903 -3.736130 1.791505 -0.000558 -0.000082 -0.002240
N 6.348481 -3.758428 7.004766 0.000101 -0.000973 0.000141
N 6.366387 -3.732378 -3.360662 0.000010 0.000017 -0.001254
N 4.722431 -0.928243 1.843210 -0.001156 0.000661 0.003446
N 4.710599 -0.971308 6.916151 -0.000979 0.000156 -0.001304
N 4.773922 -0.974213 -3.334012 -0.000319 0.000339 -0.000505
N -3.222481 1.813983 1.822995 -0.000170 0.000649 -0.000726
N -3.180745 1.796662 6.969938 0.000596 -0.000209 -0.000642
N -3.207139 1.788802 -3.351364 -0.000347 -0.000038 -0.000329
N 0.018069 -3.727295 1.820080 0.001578 -0.001536 0.001808
N -0.064516 -3.682278 6.939443 -0.001163 0.000567 -0.000968
N -0.017044 -3.682436 -3.384163 -0.000247 0.000791 -0.001165
N -1.612221 -0.913208 1.780778 -0.000701 0.001775 -0.002385
N -1.577324 -0.915774 7.000756 0.000330 0.000513 -0.000082
N -1.569138 -0.990076 -3.337129 0.000167 0.000116 -0.000306
