108
Energy=-1260622.887353 Lattice="9.491517 0.000000 0.000000 -4.746639 8.217130 0.000000 0.001209 0.004271 15.311527" Stress="-0.000003 -0.000001 0.000001 -0.000001 -0.000006 0.000001 0.000001 0.000001 -0.000001" Properties=species:S:1:pos:R:3:forces:R:3
Al 1.560308 0.877669 2.387753 0.000156 -0.000094 0.000170
Al 1.559839 0.884468 7.500146 -0.000296 -0.000262 0.000322
Al 1.563001 0.884315 -2.681973 0.000048 -0.000136 -0.000058
Al -0.008381 3.606739 2.427741 -0.000022 0.000164 0.000021
Al -0.014791 3.613796 7.494975 -0.000190 -0.000185 0.000061
Al -0.026236 3.605814 -2.712902 0.000107 0.000087 -0.000026
Al 3.146026 -1.856357 2.413213 -0.000035 0.000022 -0.000315
Al 3.151391 -1.862625 7.507679 -0.000131 0.000046 -0.000181
Ga 3.154298 -1.867355 -2.704687 -0.000031 0.000013 0.000152
Al -4.775362 0.870668 2.404584 0.000139 -0.000029 0.000229
Al -4.772008 0.872954 7.518848 -0.000317 0.000263 -0.000066
Al -4.765778 0.878048 -2.718017 0.000030 -0.000095 -0.000041
Al -6.357191 3.610033 2.387868 -0.000023 -0.000042 -0.000110
Al -6.368254 3.605528 7.521673 0.000104 0.000119 0.000175
Ga -6.362100 3.594610 -2.695583 -0.000102 0.000131 0.000079
Al -3.197621 -1.874883 2.439430 -0.000440 0.000015 0.000042
Ga -3.191067 -1.867984 7.512432 0.000058 -0.000026 0.000084
Al -3.192769 -1.858187 -2.741594 -0.000003 -0.000182 0.000005
Ga -1.601705 0.885798 2.402339 0.000069 -0.000176 0.000130
Al -1.599403 0.881812 7.510849 -0.000099 -0.000255 -0.000004
Al -1.614430 0.882064 -2.702983 0.000150 0.000302 -0.000020
Ga -3.194338 3.609734 2.418985 -0.000076 -0.000109 0.000225
Ga -3.171752 3.609144 7.504769 0.000026 -0.000122 0.000051
Al -3.174378 3.592104 -2.706827 -0.000177 0.000048 0.000065
Al -0.015775 -1.869297 2.381565 0.000015 -0.000061 0.000084
Al -0.022151 -1.850651 7.525649 -0.000045 -0.000040 0.000152
Ga -0.028125 -1.852580 -2.685939 0.000043 -0.000174 0.000178
Al -0.026518 1.806041 4.972007 0.000001 -0.000037 0.000151
Ga -0.026715 1.793362 -5.253845 0.000071 0.000058 0.000268
Al -0.015045 1.784710 -0.166531 -0.000233 0.000010 -0.000354
Al 3.167282 -3.690780 4.951813 -0.000162 -0.000084 -0.000174
Al 3.159920 -3.695171 -5.255381 -0.000282 -0.000261 0.000095
Ga 3.135471 -3.708743 -0.137600 -0.000079 0.000163 0.000112
Ga 1.569683 -0.952699 4.961961 -0.000339 0.000126 0.000008
Ga 1.571506 -0.945881 -5.268898 -0.000258 0.000193 0.000223
Al 1.559493 -0.937339 -0.126957 -0.000260 0.000138 -0.000037
Ga 3.143936 1.789001 4.952956 0.000169 -0.000111 -0.000012
Al 3.145436 1.778994 -5.264903 -0.000086 0.000200 -0.000059
Al 3.143066 1.775943 -0.136028 -0.000034 -0.000047 0.000001
Al 6.291370 -3.699476 4.947647 0.000119 -0.000147 -0.000071
Al 6.294735 -3.691894 -5.257100 -0.000195 0.000151 0.000459
Ga 6.302686 -3.698349 -0.132808 -0.000126 -0.000124 0.000092
Al 4.722121 -0.952276 4.952587 -0.000010 0.000386 -0.000174
Al 4.729321 -0.946664 -5.257419 0.000037 0.000016 -0.000079
Ga 4.725344 -0.932384 -0.136791 -0.000076 0.000002 -0.000017
Al -3.185734 1.777664 4.975279 -0.000024 -0.000088 0.000022
Al -3.191628 1.771204 -5.245240 -0.000025 0.000281 -0.000078
Al -3.199826 1.792641 -0.174178 -0.000012 -0.000161 -0.000392
Ga -0.031238 -3.692797 4.969856 -0.000013 -0.000038 0.000165
Ga -0.029610 -3.699166 -5.260045 0.000105 -0.000135 0.000093
Al -0.014068 -3.703714 -0.142168 0.000007 -0.000049 -0.000056
Ga -1.610112 -0.944196 4.957312 -0.000060 -0.000040 0.000099
Al -1.621231 -0.943111 -5.251885 0.000076 0.000185 -0.000038
Ga -1.606247 -0.944515 -0.139745 -0.000109 0.000040 -0.000076
N 1.512657 0.900154 4.308683 0.000179 0.000062 -0.000238
N 1.594395 0.903616 -5.910232 0.000171 -0.000078 -0.000225
N 1.565044 0.873446 -0.752859 0.000176 0.000080 0.000210
N -0.020620 3.605355 4.348124 -0.000052 -0.000020 -0.000179
N -0.021397 3.657200 -5.898011 -0.000037 0.000116 0.000008
N -0.021412 3.570421 -0.805221 0.000013 -0.000005 -0.000113
N 3.181259 -1.884568 4.328140 0.000104 -0.000134 0.000258
N 3.189730 -1.893987 -5.882735 0.000160 0.000106 0.000040
N 3.103914 -1.843447 -0.735011 -0.000051 -0.000075 -0.000041
N -4.724804 0.855087 4.323791 0.000082 -0.000078 -0.000346
N -4.766906 0.872849 -5.867308 0.000067 0.000078 -0.000047
N -4.776720 0.920623 -0.796708 0.000300 0.000097 0.000059
N -6.389607 3.634951 4.298968 -0.000063 0.000126 0.000035
N -6.401016 3.586778 -5.874084 0.000068 -0.000195 0.000117
N -6.315505 3.583197 -0.716330 0.000156 0.000061 -0.000096
N -3.228697 -1.889796 4.353454 -0.000067 0.000115 -0.000128
N -3.188440 -1.868532 -5.815309 -0.000150 -0.000014 0.000029
N -3.189551 -1.867212 -0.829778 -0.000021 0.000122 -0.000119
N -1.601660 0.931918 4.377615 -0.000096 0.000015 -0.000054
N -1.647613 0.855914 -5.881596 0.000099 -0.000244 -0.000070
N -1.608150 0.921439 -0.779674 0.000071 0.000081 0.000069
N -3.147163 3.587357 4.400454 0.000026 0.000024 -0.000059
N -3.138888 3.583264 -5.832518 0.000071 -0.000118 0.000042
N -3.224472 3.591097 -0.785192 0.000059 -0.000157 -0.000112
N -0.017477 -1.865648 4.286097 0.000133 -0.000079 -0.000265
N -0.067288 -1.837148 -5.883161 0.000037 -0.000172 -0.000078
N 0.018730 -1.885333 -0.709595 0.000126 -0.000192 0.000155
N 0.018454 1.815448 1.754596 0.000034 0.000088 0.000241
N -0.022266 1.791139 6.899078 -0.000131 -0.000026 -0.000036
N -0.020016 1.780727 -3.266587 -0.000186 -0.000082 0.000029
N 3.186638 -3.675355 1.840102 -0.000073 0.000239 -0.000092
N 3.190946 -3.662169 6.868214 0.000051 0.000109 0.000084
N 3.144110 -3.740065 -3.334884 0.000111 -0.000035 -0.000055
N 1.565556 -0.948943 1.796511 -0.000063 0.000200 0.000008
N 1.562828 -0.952572 6.950127 0.000080 0.000157 -0.000016
N 1.561157 -0.901627 -3.302491 -0.000107 0.000311 0.000013
N 3.143472 1.779357 1.792038 0.000057 0.000013 0.000143
N 3.145625 1.790159 6.937286 0.000590 -0.000428 -0.000138
N 3.136147 1.734364 -3.343360 0.000069 -0.000019 -0.000047
N 6.298012 -3.687852 1.847986 -0.000004 0.000208 -0.000144
N 6.309000 -3.738231 6.867064 0.000054 0.000062 0.000013
N 6.262925 -3.675431 -3.338802 0.000067 0.000002 -0.000238
N 4.728188 -0.951026 1.845656 0.000420 -0.000166 0.000150
N 4.682752 -0.921673 6.875120 0.000009 -0.000170 -0.000134
N 4.758307 -0.922298 -3.343744 0.000018 0.000073 0.000090
N -3.232040 1.763429 1.738327 -0.000127 -0.000057 0.000158
N -3.190975 1.734065 6.886550 -0.000048 0.000016 -0.000129
N -3.188108 1.781814 -3.319899 0.000056 -0.000012 -0.000011
N -0.058614 -3.675702 1.773549 0.000152 0.000038 -0.000088
N -0.068212 -3.665361 6.949230 0.000035 0.000027 -0.000071
N 0.014795 -3.714560 -3.293163 0.000145 -0.000086 -0.000018
N -1.617070 -0.997717 1.836726 -0.000042 0.000093 -0.000011
N -1.564414 -0.926807 6.928815 0.000144 0.000145 -0.000047
N -1.640539 -0.921403 -3.331753 -0.000033 -0.000069 -0.000078
