108
Energy=-1626826.693749 Lattice="9.539356 0.000000 0.000000 -4.769545 8.260758 0.000000 -0.014069 0.001994 15.414838" Stress="-0.000000 0.000000 -0.000003 0.000000 0.000001 0.000000 -0.000003 0.000000 -0.000001" Properties=species:S:1:pos:R:3:forces:R:3
Al 1.568538 0.867861 2.435802 0.000000 0.000144 0.000028
Al 1.555457 0.883110 7.548070 0.000051 -0.000132 -0.000137
Al 1.576001 0.869546 -2.723657 -0.000035 0.000017 0.000044
Al -0.017098 3.648202 2.428265 0.000063 -0.000642 -0.000028
Al -0.009493 3.631828 7.514983 -0.000031 -0.000035 -0.000007
Ga -0.011960 3.631247 -2.683593 -0.000046 -0.000002 0.000041
Al 3.162235 -1.865193 2.407564 -0.000287 0.000199 -0.000099
Ga 3.150215 -1.868883 7.550554 -0.000067 0.000072 0.000031
Ga 3.166144 -1.850124 -2.697895 0.000010 -0.000001 0.000015
Al -4.800004 0.858547 2.396346 -0.000055 0.000051 0.000043
Ga -4.813706 0.871540 7.585443 -0.000050 0.000016 0.000005
Al -4.791744 0.862735 -2.715257 0.000025 0.000052 -0.000022
Ga -6.410614 3.631842 2.440468 -0.000007 -0.000029 0.000031
Al -6.403401 3.640805 7.537817 0.000097 -0.000009 -0.000285
Ga -6.395221 3.618015 -2.710740 -0.000047 0.000001 0.000048
Al -3.222396 -1.880001 2.398698 -0.000079 -0.000132 0.000071
Al -3.207867 -1.891613 7.553133 -0.000030 0.000017 0.000013
Al -3.207535 -1.858820 -2.690447 -0.000027 0.000009 0.000024
Ga -1.616701 0.873576 2.413118 0.000025 0.000062 -0.000016
Ga -1.594554 0.875130 7.546134 -0.000020 0.000031 0.000005
Al -1.616241 0.867696 -2.687714 -0.000035 0.000017 0.000024
Ga -3.192413 3.630075 2.427755 -0.000060 -0.000018 0.000116
Ga -3.208643 3.647344 7.533524 -0.000099 0.000011 0.000010
Ga -3.191771 3.617319 -2.682700 -0.000019 -0.000001 0.000025
Ga -0.018033 -1.858004 2.426511 -0.000012 0.000013 0.000037
Al -0.025937 -1.872366 7.541785 -0.000003 0.000013 0.000011
Ga -0.020194 -1.844953 -2.698011 -0.000042 0.000017 0.000020
Al -0.008247 1.807789 4.974009 -0.000198 0.000128 0.000338
Ga 0.004853 1.790591 -5.279374 -0.000058 -0.000019 0.000053
Ga -0.021175 1.790078 -0.139461 -0.000018 -0.000009 0.000081
Al 3.164663 -3.704307 4.965838 -0.000229 -0.000003 -0.000449
Ga 3.172597 -3.697770 -5.294088 -0.000048 -0.000006 0.000051
Al 3.167006 -3.699200 -0.111513 -0.000035 -0.000044 -0.000223
Al 1.561750 -0.959524 4.983297 -0.000051 0.000106 0.000126
Al 1.581592 -0.942234 -5.303852 -0.000045 -0.000012 0.000016
Al 1.577682 -0.953132 -0.129132 -0.000188 0.000158 0.000096
Ga 3.137692 1.793880 4.987373 -0.000039 -0.000003 0.000035
Al 3.153343 1.779922 -5.293046 -0.000002 -0.000042 0.000042
Ga 3.157690 1.773568 -0.136833 -0.000057 -0.000015 0.000043
Al 6.322438 -3.710724 4.993393 -0.000180 0.000121 0.000055
Ga 6.338786 -3.705836 -5.309712 -0.000087 0.000030 0.000077
Al 6.321539 -3.688269 -0.127387 -0.000033 -0.000012 0.000019
Ga 4.738174 -0.974814 4.959325 -0.000022 0.000004 0.000034
Al 4.749218 -0.955269 -5.268496 -0.000033 0.000011 0.000028
Al 4.753566 -0.963577 -0.137056 0.000017 0.000146 -0.000125
Ga -3.208239 1.803001 4.981005 -0.000046 0.000038 0.000002
Ga -3.207913 1.785764 -5.258427 -0.000039 -0.000006 0.000037
Al -3.204229 1.777311 -0.154165 0.000061 0.000045 -0.000007
Al -0.028262 -3.698425 5.003928 0.000009 -0.000030 0.000050
Ga -0.022908 -3.705396 -5.300179 -0.000005 0.000031 0.000029
Ga -0.020337 -3.703422 -0.137492 -0.000044 -0.000008 0.000003
Ga -1.613446 -0.977459 4.997411 -0.000050 0.000027 0.000021
Ga -1.612047 -0.965672 -5.284089 -0.000035 0.000006 0.000030
Al -1.631724 -0.958634 -0.151587 -0.000017 0.000005 0.000008
N 1.522093 0.847464 4.350663 0.000103 -0.000127 -0.000094
N 1.611808 0.855691 -5.940693 -0.000020 0.000037 0.000034
N 1.569995 0.825500 -0.809806 0.000076 -0.000019 -0.000058
N -0.020384 3.635785 4.362375 0.000010 0.000021 -0.000034
N -0.017088 3.624980 -5.982506 0.000067 0.000005 -0.000023
N -0.023557 3.680317 -0.711730 0.000037 0.000026 -0.000047
N 3.106117 -1.894752 4.335160 0.000114 -0.000221 -0.000095
N 3.166197 -1.822905 -5.878643 0.000049 -0.000013 -0.000038
N 3.156803 -1.871908 -0.703120 0.000147 -0.000122 0.000029
N -4.799256 0.876237 4.302708 -0.000004 -0.000030 -0.000029
N -4.828949 0.851030 -5.853125 0.000033 -0.000002 -0.000026
N -4.757227 0.846278 -0.786447 -0.000089 -0.000142 0.000053
N -6.391072 3.682591 4.419832 0.000169 -0.000054 -0.000109
N -6.378764 3.581295 -5.950073 -0.000026 -0.000008 0.000149
N -6.432749 3.649299 -0.735106 0.000034 0.000013 -0.000038
N -3.203970 -1.928010 4.314142 0.000016 -0.000009 -0.000015
N -3.243997 -1.848267 -5.948430 0.000045 -0.000019 -0.000020
N -3.209915 -1.876130 -0.760747 0.000030 0.000009 -0.000028
N -1.573373 0.895634 4.388614 0.000074 -0.000009 0.000027
N -1.601971 0.881730 -5.902354 0.000046 0.000004 -0.000019
N -1.649654 0.852910 -0.766942 0.000044 -0.000011 -0.000053
N -3.207964 3.682811 4.407928 0.000237 0.000058 0.000119
N -3.193596 3.629525 -5.913015 0.000054 0.000011 -0.000038
N -3.152960 3.608558 -0.705217 0.000088 0.000043 0.000065
N 0.015605 -1.895770 4.402123 0.000032 0.000003 -0.000020
N 0.027335 -1.847319 -5.948929 0.000034 0.000005 -0.000021
N -0.017931 -1.818585 -0.718660 0.000063 0.000007 0.000020
N 0.021930 1.821111 1.841930 -0.000013 0.000304 0.000119
N 0.022062 1.821160 6.899424 -0.000057 0.000044 -0.000130
N -0.020331 1.750905 -3.286701 0.000041 -0.000004 -0.000031
N 3.199399 -3.685832 1.805708 -0.000105 0.000248 0.000153
N 3.199199 -3.725490 6.883119 0.000002 -0.000023 0.000168
N 3.164258 -3.706246 -3.326980 0.000033 0.000010 -0.000040
N 1.606774 -0.926230 1.787025 0.000271 -0.000435 0.000065
N 1.524589 -0.928802 6.908849 -0.000034 0.000062 0.000001
N 1.570715 -0.910878 -3.385335 0.000041 -0.000023 -0.000029
N 3.148354 1.747396 1.843866 0.000066 0.000002 -0.000033
N 3.111054 1.815905 6.966302 0.000041 0.000031 0.000036
N 3.157379 1.746901 -3.356966 0.000042 0.000003 0.000024
N 6.290174 -3.686234 1.786409 0.000122 0.000158 -0.000085
N 6.330352 -3.703778 6.924378 0.000010 0.000017 0.000010
N 6.335661 -3.655564 -3.329658 0.000041 -0.000019 -0.000054
N 4.744857 -0.959694 1.793327 -0.000051 -0.000032 -0.000045
N 4.784390 -0.978478 6.931739 0.000049 -0.000038 -0.000006
N 4.793815 -0.939237 -3.343042 0.000052 -0.000042 -0.000019
N -3.247542 1.770416 1.762965 -0.000043 -0.000004 -0.000067
N -3.215524 1.788733 6.940208 0.000049 -0.000015 -0.000021
N -3.199681 1.747251 -3.279075 0.000043 -0.000024 -0.000044
N -0.030229 -3.711490 1.818459 0.000033 0.000003 -0.000011
N -0.073339 -3.682964 6.924420 -0.000019 -0.000047 0.000007
N -0.020357 -3.705661 -3.322312 0.000036 -0.000015 -0.000028
N -1.659685 -0.984398 1.765055 0.000070 0.000014 -0.000097
N -1.622745 -1.010040 6.973800 0.000035 -0.000006 -0.000019
N -1.655969 -0.936656 -3.295717 0.000034 -0.000014 -0.000034
