108
Energy=-1.809929e+06 Lattice="9.565021e+00 0.000000e+00 0.000000e+00 -4.791737e+00 8.279614e+00 0.000000e+00 -4.081501e-03 4.595225e-03 1.545827e+01" Stress="-2.561801e-04 -2.213036e-04 -1.868246e-04 -2.166308e-04 -2.473109e-04 2.171888e-04 -1.939179e-04 2.181027e-04 -6.058736e-04" Properties=species:S:1:pos:R:3:forces:R:3 Config_type=AlGaN_super3_30_0_9.xyz
Al 1.563994e+00 8.788137e-01 2.417648e+00 -2.635486e-04 1.485840e-03 -1.616693e-03
Al 1.559116e+00 8.674202e-01 7.584512e+00 5.602857e-04 -4.821424e-04 1.354366e-03
Al 1.563634e+00 8.724270e-01 -2.732770e+00 4.709396e-04 -3.001560e-04 1.659686e-03
Al -3.910504e-02 3.627214e+00 2.430308e+00 1.357796e-04 -1.107744e-03 -6.127260e-04
Al -3.780150e-02 3.627894e+00 7.575883e+00 -3.129320e-04 4.548074e-04 8.330128e-04
Ga -1.782728e-02 3.620074e+00 -2.716750e+00 -2.584950e-04 -3.257874e-04 6.810828e-04
Al 3.167594e+00 -1.878559e+00 2.448311e+00 1.941875e-04 -5.976091e-04 3.341306e-04
Ga 3.144552e+00 -1.876037e+00 7.564782e+00 1.978933e-04 -4.585971e-04 8.601031e-04
Al 3.155679e+00 -1.870935e+00 -2.735662e+00 -1.521300e-04 -1.680419e-04 5.604582e-04
Ga -4.831498e+00 8.727261e-01 2.403736e+00 1.093749e-03 3.708936e-04 1.122118e-05
Al -4.813805e+00 8.926313e-01 7.596459e+00 6.675200e-04 1.703849e-04 3.309247e-04
Ga -4.824769e+00 8.818180e-01 -2.710387e+00 1.219781e-03 5.514811e-05 6.405683e-04
Ga -6.411042e+00 3.627828e+00 2.446045e+00 -1.489325e-04 -6.601563e-04 -1.912899e-04
Ga -6.398023e+00 3.636669e+00 7.571489e+00 3.358184e-04 5.368933e-04 -2.041980e-04
Al -6.402355e+00 3.634632e+00 -2.720976e+00 4.472109e-04 -1.672350e-04 7.639456e-05
Ga -3.212409e+00 -1.864880e+00 2.418565e+00 2.336326e-04 -4.445380e-04 3.467734e-04
Ga -3.203404e+00 -1.872449e+00 7.573411e+00 3.328205e-04 -1.964184e-04 2.756945e-04
Ga -3.199700e+00 -1.881856e+00 -2.696920e+00 1.273519e-05 3.819321e-05 -3.220157e-04
Al -1.599790e+00 8.794776e-01 2.425701e+00 7.030708e-04 1.662372e-04 4.310388e-04
Ga -1.619465e+00 8.952757e-01 7.588203e+00 7.756164e-04 -1.045318e-03 1.900774e-04
Ga -1.600343e+00 8.829340e-01 -2.730673e+00 6.099270e-04 9.863817e-05 8.493178e-04
Ga -3.201861e+00 3.654157e+00 2.459293e+00 5.328800e-04 -7.168748e-04 -7.895819e-04
Al -3.217086e+00 3.646797e+00 7.565556e+00 6.743230e-06 -2.688514e-05 3.296277e-04
Ga -3.223534e+00 3.651098e+00 -2.729997e+00 7.474729e-04 -8.940173e-04 -1.927085e-04
Ga -1.640465e-02 -1.855901e+00 2.446300e+00 2.137099e-04 -4.345506e-04 6.148892e-04
Al -4.067359e-03 -1.865102e+00 7.551454e+00 2.733934e-04 -7.929973e-04 1.312131e-03
Al -6.045511e-03 -1.871724e+00 -2.722848e+00 7.767675e-04 -3.651519e-04 4.235187e-04
Ga -2.237993e-02 1.789784e+00 4.988759e+00 -7.764156e-04 4.879476e-04 1.692445e-03
Al -1.742242e-02 1.788127e+00 -5.321201e+00 -2.320261e-04 5.237756e-04 1.082564e-03
Al -1.504480e-02 1.782892e+00 -1.276007e-01 -2.094731e-04 1.482917e-04 1.572250e-03
Al 3.163149e+00 -3.715805e+00 5.008039e+00 4.307807e-04 3.362751e-04 5.564718e-04
Ga 3.170352e+00 -3.733474e+00 -5.314998e+00 -3.258798e-04 1.980871e-04 1.370618e-04
Ga 3.183202e+00 -3.712131e+00 -1.324006e-01 -3.147659e-04 7.718179e-04 -1.759925e-04
Al 1.565968e+00 -9.655189e-01 4.991247e+00 -2.317145e-04 4.119730e-04 1.133766e-03
Al 1.565073e+00 -9.538951e-01 -5.297866e+00 -6.140105e-04 4.917699e-04 1.301535e-03
Ga 1.584294e+00 -9.479947e-01 -1.564541e-01 -1.074268e-03 7.526655e-04 4.780332e-04
Ga 3.151763e+00 1.786220e+00 5.024809e+00 -6.180478e-04 1.840898e-05 8.068717e-04
Ga 3.152266e+00 1.783495e+00 -5.303941e+00 -8.263060e-05 -2.778271e-04 8.164166e-04
Al 3.141764e+00 1.794413e+00 -1.678033e-01 -5.460566e-05 1.300169e-04 8.087935e-04
Ga 6.348657e+00 -3.715109e+00 5.002586e+00 -5.352903e-04 -6.083161e-04 -3.876684e-04
Ga 6.352837e+00 -3.732988e+00 -5.293947e+00 -3.729305e-04 1.980083e-04 7.845906e-04
Ga 6.361965e+00 -3.729869e+00 -1.356931e-01 7.219031e-05 3.353541e-04 3.351290e-05
Ga 4.752970e+00 -9.621175e-01 5.009320e+00 -6.893172e-04 -1.790296e-05 5.557986e-04
Ga 4.757481e+00 -9.512843e-01 -5.300124e+00 -3.336782e-04 4.332033e-04 2.415934e-04
Al 4.751306e+00 -9.620257e-01 -1.460656e-01 -1.508932e-04 -4.117729e-04 2.739524e-04
Ga -3.213533e+00 1.805276e+00 5.008332e+00 2.299637e-04 1.841369e-04 1.779829e-04
Al -3.211640e+00 1.805225e+00 -5.321836e+00 -2.475768e-04 6.540713e-06 7.133294e-04
Ga -3.207257e+00 1.784621e+00 -1.268814e-01 -1.598460e-04 -6.118378e-05 7.211338e-05
Al -7.157969e-03 -3.695500e+00 5.031164e+00 -1.452381e-04 -2.297000e-04 -2.541705e-04
Ga -4.351035e-03 -3.707365e+00 -5.307923e+00 -9.952602e-05 2.189426e-04 6.484603e-04
Ga -3.292667e-02 -3.713225e+00 -1.608889e-01 -4.027520e-04 1.121638e-04 -3.586801e-05
Al -1.596642e+00 -9.573101e-01 5.008217e+00 -6.563624e-04 3.073287e-04 8.008125e-04
Ga -1.587302e+00 -9.506664e-01 -5.301709e+00 -8.824587e-04 3.840363e-04 7.909960e-04
Al -1.606653e+00 -9.447908e-01 -1.505024e-01 -6.523199e-04 -5.863527e-04 3.393969e-04
N 1.568897e+00 8.340747e-01 4.331295e+00 8.096559e-04 -7.545950e-04 7.579424e-04
N 1.527659e+00 8.439542e-01 -5.943841e+00 9.181865e-05 -1.387872e-04 -1.060140e-03
N 1.557148e+00 9.234152e-01 -7.964508e-01 5.762611e-04 2.978171e-04 -1.777873e-03
N -7.454938e-02 3.657677e+00 4.346400e+00 -6.365588e-04 3.849497e-04 -2.995683e-04
N -2.552073e-02 3.590032e+00 -5.960375e+00 7.891941e-05 -7.763167e-04 -1.090605e-03
N -2.844010e-02 3.581598e+00 -7.403298e-01 6.538732e-05 -8.772645e-04 -3.133967e-04
N 3.126931e+00 -1.903334e+00 4.380604e+00 -5.427757e-04 -3.408037e-04 -6.801487e-04
N 3.121289e+00 -1.856932e+00 -5.913711e+00 -2.506554e-04 -5.198386e-05 1.824141e-05
N 3.204522e+00 -1.859965e+00 -8.172371e-01 6.190385e-04 1.389815e-04 -1.157198e-04
N -4.817729e+00 8.824656e-01 4.370834e+00 6.537472e-04 -9.189887e-05 -7.755104e-04
N -4.770747e+00 9.042744e-01 -5.947245e+00 8.543054e-04 1.549615e-04 -7.763680e-04
N -4.848729e+00 8.564420e-01 -7.232189e-01 -1.996894e-04 5.781671e-04 4.406066e-05
N -6.360012e+00 3.658505e+00 4.425298e+00 1.020629e-03 6.308351e-04 2.787741e-04
N -6.398126e+00 3.639357e+00 -5.923282e+00 2.527181e-04 -1.322170e-04 -2.611078e-04
N -6.405857e+00 3.592954e+00 -8.063696e-01 1.942598e-04 -6.975385e-04 -7.249177e-05
N -3.167606e+00 -1.847639e+00 4.400614e+00 9.100217e-04 4.363491e-04 -5.439888e-04
N -3.200672e+00 -1.878553e+00 -5.915920e+00 2.709066e-04 -7.464298e-05 -5.930360e-04
N -3.207120e+00 -1.832377e+00 -7.135544e-01 2.512920e-04 5.856228e-04 5.138162e-04
N -1.622260e+00 8.345662e-01 4.351753e+00 8.820088e-04 -8.104626e-04 -1.094354e-03
N -1.619720e+00 9.279985e-01 -5.889290e+00 5.386034e-04 4.429568e-05 -3.921317e-04
N -1.575461e+00 8.660677e-01 -7.402700e-01 1.024579e-03 -1.836872e-04 -9.816147e-04
N -3.219972e+00 3.694168e+00 4.434313e+00 -2.535210e-04 -1.246114e-05 6.008715e-04
N -3.217968e+00 3.599652e+00 -5.967669e+00 4.637256e-04 -7.751206e-04 -1.021260e-03
N -3.213183e+00 3.638160e+00 -7.638766e-01 3.691063e-04 -4.147270e-04 3.937165e-04
N -2.422430e-02 -1.874906e+00 4.435109e+00 4.764227e-04 -4.890974e-04 -2.108813e-04
N 2.791322e-02 -1.851219e+00 -5.976047e+00 9.009909e-04 -4.139881e-04 -1.437621e-03
N -5.595302e-02 -1.848523e+00 -8.046647e-01 4.797070e-04 8.279270e-05 9.706683e-05
N -1.998326e-02 1.792820e+00 1.813418e+00 -8.152830e-04 1.073467e-03 -3.567606e-04
N 1.798736e-02 1.818980e+00 6.978951e+00 1.028362e-04 5.213171e-04 -8.725132e-04
N 2.257649e-02 1.772594e+00 -3.399829e+00 1.873106e-04 1.949150e-04 -1.389752e-03
N 3.210947e+00 -3.689876e+00 1.847007e+00 -7.059365e-05 6.372563e-04 4.028309e-04
N 3.172880e+00 -3.766794e+00 6.940518e+00 2.594230e-04 -7.301178e-05 -7.753819e-04
N 3.178255e+00 -3.680822e+00 -3.336602e+00 -1.533932e-04 1.169817e-03 -1.854529e-04
N 1.619219e+00 -9.365774e-01 1.836392e+00 3.116623e-04 -1.288393e-03 -6.670115e-04
N 1.536793e+00 -9.286782e-01 6.917648e+00 -1.030171e-03 9.859568e-04 -1.732994e-03
N 1.574558e+00 -9.598178e-01 -3.349415e+00 -6.344019e-04 3.088471e-04 -9.206537e-04
N 3.110895e+00 1.784060e+00 1.755617e+00 -6.046961e-04 -3.584684e-04 -4.365939e-04
N 3.153774e+00 1.745824e+00 7.006449e+00 -3.943327e-04 -4.338063e-04 -4.901192e-04
N 3.120314e+00 1.817612e+00 -3.316408e+00 -9.446998e-04 3.934976e-04 -4.433032e-04
N 6.318128e+00 -3.745543e+00 1.841512e+00 -2.879485e-04 1.992516e-04 -4.616703e-04
N 6.310298e+00 -3.742995e+00 6.973899e+00 -2.402219e-04 -2.964369e-04 -3.825330e-04
N 6.396654e+00 -3.743484e+00 -3.316369e+00 4.734373e-04 1.793003e-04 -3.890005e-04
N 4.712060e+00 -9.908565e-01 1.773529e+00 -9.293155e-04 -1.119975e-04 -6.087178e-04
N 4.757345e+00 -9.074106e-01 6.982798e+00 -6.014230e-04 1.698454e-04 -5.370021e-04
N 4.728731e+00 -9.823345e-01 -3.326021e+00 -7.198710e-04 -2.012053e-04 -2.972666e-04
N -3.170642e+00 1.782752e+00 1.846098e+00 -2.799066e-04 -3.059102e-04 1.277497e-04
N -3.256949e+00 1.823145e+00 6.989952e+00 -8.811988e-04 4.897389e-04 4.995452e-05
N -3.215820e+00 1.798323e+00 -3.398749e+00 -6.190367e-04 -4.237835e-05 -7.415408e-04
N -2.046150e-02 -3.712726e+00 1.809200e+00 -2.559713e-04 4.470547e-04 2.269172e-04
N 2.271354e-02 -3.688185e+00 6.948947e+00 2.919269e-04 5.126938e-04 8.138228e-05
N -5.742112e-02 -3.690397e+00 -3.317765e+00 -1.127396e-03 7.290511e-04 -4.082255e-05
N -1.605627e+00 -9.116061e-01 1.768476e+00 -5.500641e-04 4.265636e-04 -5.938930e-04
N -1.571324e+00 -9.711212e-01 6.927262e+00 -2.605998e-04 2.928385e-04 -6.106765e-04
N -1.567034e+00 -9.840862e-01 -3.328158e+00 -4.037808e-04 -3.694882e-04 -3.126999e-04
