108
Energy=-6.197662e+05 Lattice="9.420084e+00 0.000000e+00 0.000000e+00 -4.714833e+00 8.155103e+00 0.000000e+00 -8.086618e-03 2.446799e-03 1.511578e+01" Stress="6.784976e-04 -4.145239e-04 -5.272695e-04 -4.148215e-04 2.805277e-04 3.339552e-05 -5.295296e-04 3.336248e-05 2.953516e-04" Properties=species:S:1:pos:R:3:forces:R:3 Config_type=AlGaN_super3_4_2_13.xyz
Al 1.543055e+00 8.690218e-01 2.375996e+00 3.579905e-05 -1.399186e-04 1.087522e-04
Al 1.540476e+00 8.689975e-01 7.399767e+00 1.704717e-04 -6.186947e-05 -2.722616e-04
Al 1.555635e+00 8.730839e-01 -2.671765e+00 -2.800494e-04 -4.806510e-04 -3.801973e-04
Al -2.812575e-02 3.585586e+00 2.374166e+00 1.353910e-04 -1.206566e-04 -3.842107e-04
Al -3.417874e-02 3.581275e+00 7.393518e+00 -7.622431e-05 -6.229796e-05 -1.427499e-04
Al -2.636547e-02 3.580835e+00 -2.658154e+00 -2.010996e-04 1.015324e-04 -7.242480e-04
Al 3.109370e+00 -1.856290e+00 2.392754e+00 1.454878e-03 1.081407e-03 -1.216422e-03
Al 3.111293e+00 -1.855382e+00 7.389772e+00 1.414202e-04 -5.879809e-05 -3.647603e-04
Al 3.120250e+00 -1.861299e+00 -2.666870e+00 3.956392e-04 1.025701e-04 -8.480785e-05
Al -4.737305e+00 8.775840e-01 2.386986e+00 3.506908e-04 9.914371e-04 -1.189029e-04
Al -4.740538e+00 8.727507e-01 7.392506e+00 2.043804e-04 6.142749e-05 -2.498235e-04
Al -4.732072e+00 8.817672e-01 -2.658023e+00 1.761445e-03 -1.493728e-03 -2.868272e-03
Al -6.310018e+00 3.585983e+00 2.376911e+00 -1.971593e-04 9.700867e-05 -2.575421e-04
Al -6.306387e+00 3.582212e+00 7.389676e+00 -2.788275e-05 2.374494e-05 -1.909069e-04
Al -6.298216e+00 3.572245e+00 -2.656216e+00 4.092211e-05 1.000566e-03 3.150477e-04
Al -3.159150e+00 -1.852787e+00 2.391280e+00 -9.721722e-05 -6.631125e-05 -3.275290e-04
Al -3.164093e+00 -1.849247e+00 7.377263e+00 4.509789e-04 2.214258e-04 1.164026e-04
Al -3.151969e+00 -1.852297e+00 -2.649940e+00 1.355108e-04 1.952086e-04 -4.182060e-04
Al -1.599645e+00 8.730918e-01 2.376294e+00 1.567323e-04 1.089577e-04 4.429140e-05
Al -1.599804e+00 8.703421e-01 7.400069e+00 3.786804e-04 -2.273648e-04 -8.091325e-05
Al -1.597118e+00 8.750013e-01 -2.669849e+00 -5.989625e-06 -4.631356e-04 -8.871675e-05
Al -3.169971e+00 3.586705e+00 2.377102e+00 4.995583e-04 -5.357449e-04 -1.814020e-04
Al -3.170104e+00 3.587053e+00 7.399461e+00 1.558360e-04 -1.496520e-04 4.686881e-05
Al -3.158248e+00 3.578306e+00 -2.669991e+00 1.628075e-04 1.482576e-04 4.677476e-04
Al -2.452483e-02 -1.849344e+00 2.372762e+00 3.811534e-04 9.721760e-05 1.678757e-04
Al -2.738975e-02 -1.849813e+00 7.401795e+00 8.884012e-05 -1.802007e-04 -2.135656e-04
Ga -1.986023e-02 -1.850987e+00 -2.665002e+00 3.941539e-04 -1.985360e-04 1.509134e-04
Al -2.847341e-02 1.772410e+00 4.885920e+00 -4.644032e-04 7.407257e-05 -7.344983e-05
Al -2.407606e-02 1.763983e+00 -5.192685e+00 -4.728396e-04 -1.136865e-05 -2.372556e-04
Al -2.078690e-02 1.770712e+00 -1.492875e-01 -9.479392e-04 5.759975e-04 9.060872e-04
Al 3.114458e+00 -3.666842e+00 4.887204e+00 -2.543822e-04 -2.021281e-04 -2.243625e-04
Al 3.111595e+00 -3.674579e+00 -5.195384e+00 -2.796826e-04 1.701592e-04 -1.681000e-05
Al 3.118452e+00 -3.671062e+00 -1.432515e-01 -8.888963e-04 2.719551e-04 1.001665e-03
Al 1.542053e+00 -9.448741e-01 4.889143e+00 -6.872985e-04 3.678460e-04 4.299313e-05
Al 1.549715e+00 -9.445971e-01 -5.206025e+00 -4.947453e-04 1.353880e-04 -3.185895e-04
Al 1.549133e+00 -9.408074e-01 -1.332129e-01 -1.659824e-04 -9.193136e-04 5.897658e-04
Al 3.107785e+00 1.774066e+00 4.886583e+00 1.802025e-04 -7.480529e-05 -2.165746e-04
Al 3.118886e+00 1.772894e+00 -5.193538e+00 -8.699594e-06 -1.744197e-04 -6.209211e-04
Al 3.111856e+00 1.779198e+00 -1.414939e-01 2.897092e-03 -5.034381e-05 -1.290736e-05
Al 6.254086e+00 -3.666598e+00 4.889457e+00 -1.250050e-05 -3.779987e-05 -5.239601e-04
Ga 6.268958e+00 -3.673493e+00 -5.189277e+00 -6.019926e-05 5.424002e-05 -1.507194e-04
Al 6.268400e+00 -3.672074e+00 -1.449506e-01 -1.839024e-04 2.428330e-04 7.727814e-04
Al 4.682012e+00 -9.436221e-01 4.885915e+00 4.109322e-05 3.279686e-04 -4.754349e-04
Ga 4.690709e+00 -9.410287e-01 -5.184237e+00 -3.655079e-04 1.483026e-04 -2.230478e-04
Ga 4.695673e+00 -9.441789e-01 -1.392156e-01 -4.511672e-04 8.132236e-04 2.044699e-04
Al -3.168810e+00 1.776560e+00 4.890046e+00 -8.193618e-05 -2.447545e-05 -2.987114e-04
Al -3.157337e+00 1.780928e+00 -5.195447e+00 1.447102e-04 7.561991e-05 -1.696720e-04
Al -3.155629e+00 1.783248e+00 -1.430862e-01 3.104930e-03 2.295666e-03 8.917265e-04
Al -2.568363e-02 -3.661227e+00 4.884855e+00 1.507839e-04 8.399107e-05 -2.854185e-05
Al -9.528929e-03 -3.669922e+00 -5.203774e+00 1.462366e-04 2.484167e-04 -1.292984e-04
Al -1.614651e-02 -3.670971e+00 -1.276037e-01 3.946146e-05 -4.862352e-04 -1.931718e-03
Al -1.592441e+00 -9.418962e-01 4.885785e+00 -1.264273e-04 3.453962e-04 -1.649610e-04
Al -1.580730e+00 -9.356941e-01 -5.204356e+00 6.549017e-04 5.951575e-04 1.577782e-04
Al -1.583199e+00 -9.374729e-01 -1.235152e-01 2.639146e-04 -5.577644e-04 -1.123791e-03
N 1.539802e+00 8.679767e-01 4.290041e+00 3.344103e-04 -3.318467e-04 1.359841e-04
N 1.548952e+00 8.694713e-01 -5.795837e+00 3.259805e-04 -7.409150e-05 2.375689e-04
N 1.548986e+00 8.661989e-01 -7.478027e-01 1.087171e-03 -1.310492e-04 -1.131292e-04
N -2.973531e-02 3.584870e+00 4.289436e+00 9.059434e-05 -5.061713e-05 2.653842e-04
N -6.242955e-02 3.559225e+00 -5.809568e+00 1.135779e-04 -1.748258e-04 2.015050e-04
N -2.414393e-02 3.585119e+00 -7.409693e-01 2.062652e-05 -3.283067e-04 7.067129e-04
N 3.109965e+00 -1.853773e+00 4.302140e+00 2.317259e-04 1.386998e-05 1.912821e-04
N 3.085377e+00 -1.879316e+00 -5.814546e+00 -4.688121e-08 -9.144829e-05 2.088852e-04
N 3.079384e+00 -1.874040e+00 -7.573539e-01 1.911052e-05 -1.822343e-04 4.611620e-04
N -4.739666e+00 8.726359e-01 4.298227e+00 1.588377e-04 2.242189e-04 3.448282e-04
N -4.730806e+00 9.138531e-01 -5.811478e+00 1.007967e-04 -4.382799e-05 4.829891e-04
N -4.708436e+00 9.263318e-01 -7.543391e-01 -9.545367e-03 -2.072396e-03 -1.324091e-04
N -6.310729e+00 3.586131e+00 4.291374e+00 3.385032e-05 2.224676e-05 2.197425e-04
N -6.260708e+00 3.558836e+00 -5.818127e+00 -1.288169e-04 2.034790e-05 1.840044e-04
N -6.298006e+00 3.584540e+00 -7.382779e-01 3.798921e-05 -9.027044e-04 4.688773e-05
N -3.163557e+00 -1.852716e+00 4.303327e+00 8.623878e-05 -1.330915e-04 3.715028e-04
N -3.116310e+00 -1.829624e+00 -5.834318e+00 -9.946702e-04 -6.773905e-04 -4.657773e-04
N -3.108935e+00 -1.872715e+00 -7.463912e-01 -3.353704e-06 -3.436716e-04 5.038852e-04
N -1.601608e+00 8.715346e-01 4.289885e+00 5.685877e-04 -2.053787e-04 2.673613e-04
N -1.592649e+00 8.708074e-01 -5.796950e+00 5.169347e-04 -1.069287e-04 1.213583e-04
N -1.592859e+00 8.676304e-01 -7.457005e-01 1.146404e-03 -1.768899e-04 -6.775873e-05
N -3.171707e+00 3.586676e+00 4.290136e+00 1.754574e-04 -3.859409e-05 2.170343e-04
N -3.161505e+00 3.584482e+00 -5.799753e+00 2.277535e-04 -1.719526e-04 8.232698e-05
N -3.162795e+00 3.589332e+00 -7.469131e-01 3.666551e-04 -3.210055e-04 -1.259608e-04
N -2.684721e-02 -1.849649e+00 4.288593e+00 4.971229e-04 -1.754971e-04 -4.685532e-05
N -1.969273e-02 -1.852675e+00 -5.792346e+00 4.903748e-04 -1.258621e-04 2.013344e-04
N -1.709759e-02 -1.856268e+00 -6.873478e-01 -6.803158e-04 2.086516e-03 8.517720e-04
N -2.671627e-02 1.773068e+00 1.775070e+00 2.355124e-04 3.482885e-05 -8.715662e-04
N -2.830476e-02 1.770490e+00 6.800316e+00 -1.911819e-04 1.300649e-04 1.350926e-04
N -1.936167e-02 1.770882e+00 -3.267679e+00 -1.685730e-04 2.193634e-04 2.808933e-04
N 3.115945e+00 -3.663975e+00 1.781574e+00 3.001194e-04 5.423855e-04 -1.103004e-03
N 3.114304e+00 -3.667414e+00 6.797546e+00 -1.112985e-04 2.253519e-04 1.213476e-04
N 3.124577e+00 -3.668846e+00 -3.273084e+00 -1.874034e-04 -8.124072e-05 1.399590e-04
N 1.551417e+00 -9.434096e-01 1.785118e+00 -4.605247e-04 2.172954e-04 -3.603411e-04
N 1.542054e+00 -9.444832e-01 6.804370e+00 -3.087472e-04 3.202220e-04 2.882772e-04
N 1.594909e+00 -9.227326e-01 -3.293533e+00 -4.312497e-04 5.157815e-04 1.324402e-04
N 3.112412e+00 1.774613e+00 1.778074e+00 -1.751003e-04 -1.165128e-04 -1.379039e-04
N 3.107689e+00 1.772013e+00 6.796562e+00 -8.571229e-05 -6.100005e-05 1.956794e-04
N 3.118985e+00 1.774625e+00 -3.273761e+00 -9.764001e-05 -7.423293e-04 8.668192e-04
N 6.255753e+00 -3.661375e+00 1.779949e+00 3.044981e-04 -7.504521e-05 -7.749204e-04
N 6.253370e+00 -3.668040e+00 6.802852e+00 1.992112e-05 -4.034707e-05 2.164799e-04
N 6.265388e+00 -3.666620e+00 -3.211415e+00 -4.423296e-05 -5.646641e-04 3.101216e-04
N 4.689127e+00 -9.356093e-01 1.839966e+00 -1.644712e-03 -3.384654e-03 3.217702e-04
N 4.681123e+00 -9.425298e-01 6.800570e+00 -2.622977e-04 -1.122741e-04 3.623185e-04
N 4.696073e+00 -9.512694e-01 -3.204809e+00 -9.952456e-04 2.554231e-03 7.962600e-04
N -3.168786e+00 1.776469e+00 1.774473e+00 6.234239e-04 3.235356e-04 1.035532e-03
N -3.167627e+00 1.775596e+00 6.802832e+00 -1.115480e-04 1.129408e-04 8.908854e-05
N -3.161021e+00 1.774864e+00 -3.274487e+00 6.207491e-05 -2.592978e-04 -1.042994e-04
N -2.452288e-02 -3.665768e+00 1.782386e+00 8.915604e-05 9.282228e-05 1.543868e-03
N -2.406956e-02 -3.661062e+00 6.800592e+00 8.862287e-05 1.637921e-04 1.545292e-04
N -1.769736e-02 -3.712125e+00 -3.288464e+00 -1.000937e-04 -2.172943e-04 -2.529937e-05
N -1.597272e+00 -9.397365e-01 1.789015e+00 2.649988e-04 -2.030214e-04 3.148885e-04
N -1.591003e+00 -9.411031e-01 6.798059e+00 -2.011237e-04 1.735847e-04 9.808546e-05
N -1.628689e+00 -9.209425e-01 -3.292156e+00 2.424320e-05 4.444146e-04 1.432601e-04
