108
Energy=-2.450786e+06 Lattice="9.645463e+00 0.000000e+00 0.000000e+00 -4.826099e+00 8.351901e+00 0.000000e+00 1.592170e-03 9.414671e-04 1.564208e+01" Stress="-6.825990e-06 -8.772301e-05 1.751162e-05 -9.377836e-05 -7.306304e-05 -5.520248e-08 2.469326e-05 1.206831e-06 -3.351103e-04" Properties=species:S:1:pos:R:3:forces:R:3 Config_type=AlGaN_super3_44_1_10.xyz
Al 1.582689e+00 8.865376e-01 2.456215e+00 1.952550e-04 5.022795e-05 1.478679e-04
Al 1.585821e+00 8.891557e-01 7.667604e+00 8.355969e-05 -4.735926e-05 1.822305e-04
Ga 1.581801e+00 8.861767e-01 -2.742358e+00 1.370845e-04 8.423135e-06 1.939515e-04
Al -2.497684e-02 3.673804e+00 2.446460e+00 -2.903595e-05 -1.296529e-05 3.857531e-04
Ga -2.316595e-02 3.675185e+00 7.672284e+00 5.927724e-05 6.017202e-05 3.146990e-04
Ga -2.837486e-02 3.677606e+00 -2.745832e+00 9.370249e-05 3.071941e-06 2.630644e-04
Al 3.195198e+00 -1.898342e+00 2.446141e+00 -1.174707e-05 -3.464084e-05 4.181978e-04
Ga 3.199441e+00 -1.897606e+00 7.672618e+00 1.085575e-04 9.401325e-05 3.238612e-04
Ga 3.196333e+00 -1.902334e+00 -2.745640e+00 3.933302e-05 1.084277e-04 2.368016e-04
Ga -4.850877e+00 8.827599e-01 2.437644e+00 -1.164562e-05 7.515374e-05 4.188895e-04
Ga -4.852969e+00 8.804904e-01 7.663569e+00 1.725165e-04 4.571650e-05 2.773287e-04
Ga -4.841983e+00 8.842191e-01 -2.723629e+00 2.177029e-04 3.467052e-05 2.690149e-04
Ga -6.468898e+00 3.668314e+00 2.449765e+00 2.619621e-05 -1.023145e-04 3.655505e-04
Ga -6.463357e+00 3.670490e+00 7.663460e+00 8.942907e-05 4.345902e-05 2.635394e-04
Ga -6.461700e+00 3.675259e+00 -2.734312e+00 7.543824e-05 8.731406e-05 2.128388e-04
Ga -3.260057e+00 -1.909234e+00 2.432473e+00 1.160854e-04 2.326744e-05 5.218649e-04
Al -3.237786e+00 -1.895184e+00 7.667419e+00 5.557976e-05 3.748858e-05 1.844371e-04
Ga -3.244058e+00 -1.900435e+00 -2.719995e+00 7.210951e-05 6.544574e-05 2.354742e-04
Ga -1.627770e+00 9.092955e-01 2.451598e+00 1.412733e-04 -8.590311e-05 4.081008e-04
Ga -1.625420e+00 8.822380e-01 7.663300e+00 1.704636e-04 -9.380900e-05 2.190775e-04
Ga -1.634827e+00 8.925882e-01 -2.732338e+00 1.819979e-04 -2.128099e-05 1.515450e-04
Al -3.226523e+00 3.671579e+00 2.441139e+00 -9.151224e-06 -2.904214e-05 3.500326e-04
Ga -3.230617e+00 3.678025e+00 7.680540e+00 8.623058e-05 -3.773024e-05 2.705596e-04
Ga -3.230718e+00 3.672344e+00 -2.739591e+00 7.681070e-05 -7.691068e-05 2.263865e-04
Ga -2.513313e-03 -1.895008e+00 2.463178e+00 5.720255e-05 -3.245846e-05 3.462554e-04
Ga -2.482533e-02 -1.887010e+00 7.663610e+00 8.059802e-05 -2.586918e-05 1.925614e-04
Ga -1.972662e-02 -1.893585e+00 -2.743902e+00 1.470792e-04 2.168569e-05 1.409457e-04
Ga -1.068335e-02 1.819719e+00 5.049366e+00 -6.678642e-05 8.342779e-05 1.991028e-04
Ga -2.378812e-02 1.820684e+00 -5.369718e+00 -1.037571e-04 5.102239e-05 2.148800e-04
Ga -2.365903e-02 1.828101e+00 -1.205675e-01 -8.142159e-05 4.014814e-05 -9.455326e-05
Ga 3.195140e+00 -3.753022e+00 5.017569e+00 -2.990829e-05 1.508428e-04 3.029824e-04
Al 3.193639e+00 -3.752267e+00 -5.353686e+00 -5.760730e-05 3.971306e-05 1.931220e-04
Ga 3.204445e+00 -3.751314e+00 -1.120304e-01 -1.286226e-04 5.545715e-05 -2.604798e-05
Ga 1.597948e+00 -9.587367e-01 5.053429e+00 -1.113789e-04 1.107921e-04 2.159391e-04
Ga 1.591962e+00 -9.700522e-01 -5.373007e+00 -1.622538e-04 8.130693e-05 1.785970e-04
Ga 1.601712e+00 -9.666737e-01 -1.186031e-01 -2.397251e-04 6.186445e-05 -1.109002e-04
Ga 3.180572e+00 1.808801e+00 5.054212e+00 6.484205e-05 6.744163e-05 5.760911e-05
Ga 3.185744e+00 1.811843e+00 -5.362416e+00 5.189712e-05 3.414602e-05 2.559054e-04
Ga 3.197126e+00 1.815296e+00 -1.299689e-01 -1.309121e-04 -1.368300e-04 5.000742e-05
Ga 6.400303e+00 -3.749067e+00 5.063253e+00 3.756729e-05 9.235376e-05 2.605546e-04
Ga 6.397829e+00 -3.743317e+00 -5.372074e+00 7.470685e-05 6.653948e-05 2.785394e-04
Al 6.396797e+00 -3.747376e+00 -1.314421e-01 -5.142468e-05 -1.899751e-05 -1.973791e-04
Ga 4.799393e+00 -9.752102e-01 5.058918e+00 -3.683681e-05 -8.699367e-06 2.428122e-04
Ga 4.803014e+00 -9.796828e-01 -5.367318e+00 -4.394845e-05 6.733710e-05 2.939070e-04
Al 4.802953e+00 -9.716921e-01 -1.322754e-01 -1.014911e-04 3.281138e-05 -3.682299e-04
Ga -3.240922e+00 1.826403e+00 5.052098e+00 2.705446e-05 -7.811168e-06 2.256600e-04
Ga -3.237223e+00 1.824127e+00 -5.358511e+00 6.046766e-05 -4.192522e-05 2.309242e-04
Al -3.242744e+00 1.814814e+00 -1.295674e-01 -1.593829e-05 -1.665439e-05 -2.594631e-04
Ga -1.171971e-02 -3.759062e+00 5.049662e+00 -3.706322e-06 7.829618e-05 1.789018e-04
Ga -1.255560e-02 -3.753603e+00 -5.355660e+00 4.910949e-06 1.220218e-04 2.033558e-04
Ga -2.112713e-02 -3.760543e+00 -1.307893e-01 -2.983375e-05 -3.757131e-05 -1.184002e-04
Ga -1.637393e+00 -9.705232e-01 5.063975e+00 -9.335500e-05 1.379261e-05 6.476680e-05
Ga -1.640431e+00 -9.716935e-01 -5.362117e+00 -2.071742e-05 6.822501e-05 1.695381e-04
Ga -1.647377e+00 -9.665291e-01 -1.384502e-01 -7.036916e-05 1.840494e-05 -1.170658e-04
N 1.583275e+00 8.871067e-01 4.368387e+00 5.590857e-05 -9.006690e-05 -1.088847e-04
N 1.582770e+00 8.885733e-01 -6.052267e+00 1.255494e-04 -3.212768e-05 -1.739726e-04
N 1.581112e+00 8.878166e-01 -7.694385e-01 1.767519e-04 3.732211e-05 -1.916340e-04
N -1.674980e-02 3.671788e+00 4.367897e+00 -3.544528e-05 -4.088210e-05 -2.965295e-04
N -7.136618e-02 3.697339e+00 -5.981453e+00 4.951269e-05 -9.068079e-05 -3.027205e-04
N 1.128597e-02 3.698254e+00 -7.585358e-01 2.212825e-06 -6.946352e-05 -2.279419e-04
N 3.197024e+00 -1.890249e+00 4.367778e+00 5.776617e-05 -1.502344e-04 -2.900776e-04
N 3.194167e+00 -1.948847e+00 -5.980933e+00 5.075885e-05 -1.389710e-05 -2.700297e-04
N 3.234701e+00 -1.877925e+00 -7.563186e-01 8.212983e-05 -6.260203e-05 -2.731549e-04
N -4.845867e+00 8.849002e-01 4.421561e+00 7.901484e-05 2.177993e-05 -2.474935e-04
N -4.847515e+00 8.867998e-01 -5.997806e+00 4.610707e-05 -2.048900e-06 -3.286477e-04
N -4.802504e+00 8.619973e-01 -7.244462e-01 4.621850e-06 5.797120e-05 -4.047208e-04
N -6.460365e+00 3.673526e+00 4.430440e+00 -1.354729e-05 -2.917419e-05 -2.085612e-04
N -6.455475e+00 3.672420e+00 -5.996395e+00 -7.766033e-05 -4.772694e-05 -3.002910e-04
N -6.500773e+00 3.698613e+00 -7.455224e-01 1.115146e-04 -7.840879e-05 -3.475856e-04
N -3.241027e+00 -1.898281e+00 4.409004e+00 2.865730e-05 -1.251961e-05 -3.009457e-04
N -3.238142e+00 -1.894614e+00 -6.055999e+00 -3.966769e-05 -8.081981e-05 -1.806558e-04
N -3.283930e+00 -1.922377e+00 -7.276879e-01 1.208165e-04 2.934853e-05 -3.835443e-04
N -1.631252e+00 8.915194e-01 4.431582e+00 7.955937e-05 -6.576845e-05 -2.318385e-04
N -1.633185e+00 8.876342e-01 -5.999072e+00 1.059545e-04 -3.275868e-05 -2.427323e-04
N -1.671142e+00 9.178618e-01 -7.438039e-01 1.341018e-04 -7.377021e-05 -3.003721e-04
N -3.239955e+00 3.668443e+00 4.357861e+00 7.347377e-05 -9.255441e-05 -2.303759e-04
N -3.195383e+00 3.698863e+00 -5.975725e+00 7.638594e-05 -7.499720e-05 -1.816215e-04
N -3.231617e+00 3.627264e+00 -7.519838e-01 6.149635e-05 1.666344e-05 -3.014191e-04
N -1.897093e-02 -1.892477e+00 4.440194e+00 3.882894e-05 -1.364163e-04 -1.667896e-04
N -2.486153e-02 -1.895334e+00 -5.997222e+00 6.344500e-05 -1.088390e-04 -1.806971e-04
N -1.788361e-02 -1.892682e+00 -7.623192e-01 9.503661e-05 -5.409277e-05 -2.493087e-04
N 2.084716e-02 1.841549e+00 1.864613e+00 -8.082663e-05 8.086189e-05 -3.747114e-05
N 2.332888e-02 1.795892e+00 7.043492e+00 -1.329386e-04 6.510580e-05 -2.430023e-04
N -2.403756e-02 1.815630e+00 -3.384564e+00 -8.269147e-05 7.853058e-05 -2.374059e-04
N 3.196352e+00 -3.751807e+00 1.883843e+00 6.170566e-05 1.175039e-04 -4.015416e-05
N 3.195734e+00 -3.751968e+00 7.003146e+00 -1.012625e-04 6.914290e-06 -3.592290e-04
N 3.193806e+00 -3.752174e+00 -3.429439e+00 -7.101612e-05 2.793853e-05 -2.571059e-04
N 1.630888e+00 -9.436661e-01 1.865698e+00 -7.124726e-05 1.082350e-04 -1.051765e-05
N 1.593732e+00 -9.186660e-01 7.046809e+00 -1.643370e-04 3.824377e-05 -2.185375e-04
N 1.589256e+00 -9.674230e-01 -3.389973e+00 -1.243082e-04 1.576016e-05 -2.213718e-04
N 3.147756e+00 1.791235e+00 1.844360e+00 -4.217055e-06 1.047767e-05 4.804651e-05
N 3.147516e+00 1.790374e+00 7.042938e+00 -7.847596e-05 -5.697679e-05 -2.312897e-04
N 3.194104e+00 1.814361e+00 -3.374202e+00 -1.558224e-04 -7.723037e-05 -2.069804e-04
N 6.363736e+00 -3.780186e+00 1.784743e+00 -7.248019e-06 5.403654e-05 2.641987e-04
N 6.404618e+00 -3.703546e+00 7.050213e+00 -1.040314e-04 -8.757793e-05 -2.015596e-04
N 6.407691e+00 -3.746683e+00 -3.389540e+00 -1.074315e-04 -4.854253e-05 -3.143852e-04
N 4.753920e+00 -9.926254e-01 1.783431e+00 -3.993639e-05 -2.026953e-05 3.978736e-04
N 4.840773e+00 -9.951289e-01 7.046616e+00 -1.997974e-04 -9.657994e-05 -2.229475e-04
N 4.804907e+00 -9.683995e-01 -3.382524e+00 -1.516848e-04 -1.013117e-04 -2.987526e-04
N -3.240130e+00 1.864150e+00 1.789574e+00 -3.731142e-05 -1.436179e-05 1.881208e-04
N -3.239279e+00 1.822143e+00 7.032279e+00 -1.244776e-04 3.831933e-05 -1.474915e-04
N -3.241316e+00 1.815731e+00 -3.379316e+00 -1.524608e-04 1.181006e-06 -1.911703e-04
N 1.926853e-02 -3.777195e+00 1.848293e+00 -6.915375e-05 7.516541e-05 7.009121e-05
N -1.549092e-02 -3.754959e+00 7.031514e+00 -6.789580e-05 -3.253007e-05 -1.865806e-04
N -2.037218e-02 -3.754475e+00 -3.372027e+00 -9.858766e-05 -7.712299e-05 -1.966648e-04
N -1.628748e+00 -9.674395e-01 1.832788e+00 -2.255552e-04 -2.450529e-05 5.089474e-05
N -1.673500e+00 -9.926499e-01 7.047925e+00 -1.099390e-04 2.064019e-05 -1.843440e-04
N -1.637371e+00 -9.690790e-01 -3.372525e+00 -2.156910e-04 -5.084981e-05 -1.356131e-04
