108
Energy=-2.725439e+06 Lattice="9.680319e+00 0.000000e+00 0.000000e+00 -4.842142e+00 8.386514e+00 0.000000e+00 2.160048e-02 -1.506626e-02 1.571116e+01" Stress="-2.753134e-04 6.114204e-05 1.000791e-03 5.654813e-05 4.239418e-04 -6.737289e-04 1.009696e-03 -6.888405e-04 -9.270084e-04" Properties=species:S:1:pos:R:3:forces:R:3 Config_type=AlGaN_super3_50_0_9.xyz
Al 1.585965e+00 9.008234e-01 2.471025e+00 -3.470389e-04 2.321577e-04 2.513749e-04
Ga 1.598559e+00 8.848814e-01 7.703699e+00 2.481580e-04 -1.955500e-04 1.822573e-04
Ga 1.584181e+00 8.964339e-01 -2.758992e+00 1.688690e-04 -2.375115e-04 -2.910729e-04
Al -1.237583e-02 3.682170e+00 2.481981e+00 -1.785910e-04 6.383926e-04 2.415193e-04
Ga -1.077866e-02 3.684237e+00 7.702004e+00 1.127554e-05 -8.367934e-05 3.260961e-04
Ga -3.496580e-02 3.692615e+00 -2.775251e+00 6.544676e-05 -2.685336e-04 5.960161e-04
Ga 3.204882e+00 -1.903736e+00 2.470752e+00 -3.161637e-04 6.133240e-04 3.672381e-04
Ga 3.214707e+00 -1.918218e+00 7.712651e+00 7.166230e-05 -3.565306e-06 1.483090e-04
Ga 3.201008e+00 -1.910828e+00 -2.771062e+00 1.202043e-04 -1.928981e-04 2.261706e-04
Ga -4.872238e+00 8.933218e-01 2.474808e+00 -2.638392e-04 4.657695e-04 1.527079e-04
Ga -4.856485e+00 8.855712e-01 7.705968e+00 1.846060e-04 -1.376199e-04 8.384321e-05
Ga -4.870795e+00 8.959048e-01 -2.763439e+00 2.837710e-04 -2.802131e-04 7.136082e-05
Ga -6.496155e+00 3.684661e+00 2.483119e+00 -3.874109e-04 5.678525e-04 1.811455e-04
Ga -6.477204e+00 3.682619e+00 7.689151e+00 4.279313e-05 -8.966902e-05 1.464688e-04
Ga -6.482655e+00 3.689673e+00 -2.759168e+00 1.025328e-04 -2.009326e-04 1.566459e-04
Ga -3.254674e+00 -1.916469e+00 2.484481e+00 -2.660227e-04 4.492049e-04 2.152175e-04
Ga -3.238304e+00 -1.921055e+00 7.692942e+00 7.889611e-05 1.665271e-05 2.065620e-04
Ga -3.251927e+00 -1.901578e+00 -2.763377e+00 1.200505e-04 -1.614142e-04 1.611398e-04
Ga -1.625073e+00 9.051051e-01 2.471675e+00 7.762751e-05 3.036695e-05 3.337599e-04
Ga -1.625288e+00 8.868281e-01 7.701404e+00 2.235204e-04 -3.445723e-04 8.778904e-05
Ga -1.639002e+00 8.968695e-01 -2.757509e+00 3.246666e-04 -3.167001e-04 1.086027e-04
Ga -3.242536e+00 3.689549e+00 2.474284e+00 -2.621733e-04 4.025223e-04 2.707003e-04
Ga -3.234722e+00 3.684325e+00 7.716039e+00 1.235405e-04 -2.037691e-04 1.614085e-04
Ga -3.246524e+00 3.697189e+00 -2.773907e+00 1.526598e-04 -3.555258e-04 1.720353e-04
Ga -1.654145e-02 -1.892779e+00 2.472649e+00 -2.274097e-04 3.239130e-04 4.187490e-04
Ga -1.081989e-02 -1.908629e+00 7.705703e+00 1.322050e-04 -1.623638e-04 9.689392e-05
Ga -2.603986e-02 -1.899151e+00 -2.761589e+00 2.056647e-04 -3.203065e-04 1.108855e-04
Ga -4.420979e-03 1.831553e+00 5.064968e+00 -2.087882e-04 -9.328890e-06 3.097754e-04
Ga -3.566732e-02 1.838048e+00 -5.387729e+00 -2.251755e-04 -6.267833e-05 1.404075e-04
Ga -1.456755e-02 1.824249e+00 -1.221347e-01 -9.900895e-04 1.028755e-03 3.190819e-04
Ga 3.229046e+00 -3.776603e+00 5.074686e+00 -3.781684e-04 1.683544e-04 3.039438e-04
Al 3.199203e+00 -3.762285e+00 -5.389040e+00 -2.806272e-04 -5.275002e-05 1.726180e-04
Ga 3.215243e+00 -3.778815e+00 -1.281014e-01 -7.577258e-04 1.102020e-03 -1.686663e-04
Ga 1.600636e+00 -9.701243e-01 5.079639e+00 -3.475850e-04 1.863753e-04 2.067980e-04
Ga 1.590008e+00 -9.747570e-01 -5.383634e+00 -3.477983e-04 4.448594e-05 9.775921e-05
Ga 1.597419e+00 -9.749195e-01 -1.357725e-01 -1.128960e-03 1.016320e-03 -1.028732e-04
Ga 3.197951e+00 1.822932e+00 5.075433e+00 -1.432226e-04 -9.997861e-05 1.632627e-04
Ga 3.192747e+00 1.831344e+00 -5.386510e+00 -6.822901e-05 -8.202132e-05 1.624455e-04
Ga 3.202384e+00 1.814878e+00 -1.280683e-01 -8.232708e-04 1.163637e-03 9.878372e-05
Al 6.429326e+00 -3.777065e+00 5.076380e+00 8.235072e-05 -1.287137e-05 1.227029e-04
Ga 6.414400e+00 -3.762746e+00 -5.386890e+00 3.692441e-05 -1.490766e-05 3.337089e-04
Ga 6.430515e+00 -3.777229e+00 -1.348475e-01 -1.139604e-03 1.115739e-03 1.154339e-04
Ga 4.828576e+00 -9.852231e-01 5.091078e+00 -2.195997e-04 -4.955913e-05 5.071339e-05
Ga 4.806501e+00 -9.760741e-01 -5.388615e+00 -2.383559e-04 -3.826544e-05 1.138159e-04
Ga 4.823746e+00 -9.814336e-01 -1.421628e-01 -1.078457e-03 1.209268e-03 -2.871578e-04
Ga -3.244796e+00 1.821594e+00 5.092610e+00 -2.113095e-04 -2.699861e-05 1.960454e-04
Ga -3.253941e+00 1.837842e+00 -5.384491e+00 -4.857647e-05 -1.561819e-06 1.564200e-04
Ga -3.247665e+00 1.818913e+00 -1.452515e-01 -8.060696e-04 1.096426e-03 -2.647501e-04
Ga -2.364503e-02 -3.771784e+00 5.090258e+00 -1.205976e-04 3.824576e-05 1.267154e-04
Ga -2.366556e-02 -3.762079e+00 -5.388405e+00 1.813945e-05 2.075516e-05 1.638556e-04
Ga -1.712825e-02 -3.775149e+00 -1.419958e-01 -8.898016e-04 1.203414e-03 -2.219457e-04
Ga -1.633683e+00 -9.837995e-01 5.085254e+00 -2.905898e-04 -2.617512e-05 6.237594e-05
Ga -1.643943e+00 -9.655093e-01 -5.386557e+00 -1.735068e-04 -2.593510e-05 1.358797e-04
Ga -1.631582e+00 -9.792595e-01 -1.374267e-01 -1.189162e-03 1.058587e-03 -2.332933e-04
N 1.595282e+00 8.853697e-01 4.391746e+00 1.565676e-04 1.115641e-04 -2.850050e-04
N 1.578745e+00 8.960461e-01 -6.025129e+00 2.640795e-04 5.150960e-05 -1.320947e-04
N 1.587401e+00 8.904531e-01 -7.778605e-01 8.203962e-04 -4.365215e-04 -1.948922e-04
N 2.665894e-02 3.707745e+00 4.409006e+00 4.019239e-05 -4.404336e-05 1.777982e-05
N -7.333475e-02 3.718848e+00 -6.015520e+00 1.380854e-04 -6.224647e-05 -2.907989e-04
N -2.534962e-02 3.683015e+00 -7.898467e-01 5.232647e-04 -5.130578e-04 -3.101378e-04
N 3.210985e+00 -1.908374e+00 4.448524e+00 1.802215e-04 1.222243e-05 -1.636505e-04
N 3.195688e+00 -1.949745e+00 -6.007727e+00 2.031712e-04 5.199689e-05 -1.747355e-04
N 3.204092e+00 -1.913519e+00 -7.807818e-01 7.025609e-04 -7.030236e-04 -1.327308e-04
N -4.858735e+00 8.856423e-01 4.454685e+00 1.707055e-04 2.575656e-04 -1.915860e-04
N -4.872885e+00 8.971792e-01 -6.022196e+00 2.130212e-04 6.220978e-05 -1.517169e-04
N -4.867231e+00 8.891749e-01 -7.788610e-01 6.838730e-04 -5.686673e-04 -1.750706e-04
N -6.515472e+00 3.708669e+00 4.471002e+00 -2.453425e-06 1.676391e-04 -1.314381e-04
N -6.489746e+00 3.695178e+00 -6.034723e+00 -2.185893e-05 5.715649e-05 -2.509159e-04
N -6.478282e+00 3.681800e+00 -7.737743e-01 5.268686e-04 -5.473673e-04 -2.055624e-04
N -3.244325e+00 -1.960016e+00 4.471508e+00 1.005800e-04 2.958382e-04 -1.074926e-04
N -3.256509e+00 -1.901890e+00 -6.033813e+00 9.695326e-05 -2.799955e-05 -1.552184e-04
N -3.246649e+00 -1.909889e+00 -7.801589e-01 6.784792e-04 -6.612089e-04 -2.536943e-04
N -1.631628e+00 8.891455e-01 4.452625e+00 3.423167e-04 8.945629e-05 -2.040602e-04
N -1.645849e+00 8.986872e-01 -6.027924e+00 2.782871e-04 1.378196e-05 -1.663201e-04
N -1.630542e+00 8.913280e-01 -7.705143e-01 6.232874e-04 -4.620381e-04 -3.667974e-04
N -3.245411e+00 3.684782e+00 4.452964e+00 1.466381e-04 6.476155e-05 -2.402726e-04
N -3.215765e+00 3.719244e+00 -6.005083e+00 2.072728e-04 -8.403838e-05 -1.030341e-04
N -3.244012e+00 3.688832e+00 -7.856350e-01 5.379806e-04 -6.613264e-04 -2.296895e-04
N -1.496573e-02 -1.907306e+00 4.451215e+00 1.056204e-04 -6.560153e-05 -1.817751e-04
N -3.029421e-02 -1.896476e+00 -6.024635e+00 2.011126e-04 -1.079487e-04 -9.618353e-05
N -1.968572e-02 -1.905630e+00 -7.770682e-01 6.289443e-04 -7.126093e-04 -2.343679e-04
N 1.939150e-02 1.856521e+00 1.877292e+00 5.409744e-04 -9.578951e-04 -2.092471e-04
N -9.893947e-03 1.819680e+00 7.054270e+00 -1.810090e-04 3.781736e-04 -2.207501e-04
N -2.768736e-02 1.825817e+00 -3.405587e+00 -1.242534e-04 3.261859e-04 -2.439647e-04
N 3.251396e+00 -3.791708e+00 1.861759e+00 4.805766e-04 -7.170526e-04 -3.156369e-04
N 3.218234e+00 -3.777371e+00 7.056562e+00 -4.509097e-05 1.491718e-04 -2.364156e-04
N 3.202515e+00 -3.764857e+00 -3.463817e+00 -4.840066e-05 1.809900e-04 -2.711715e-04
N 1.591493e+00 -9.176883e-01 1.850970e+00 5.560050e-04 -5.686131e-04 2.879101e-04
N 1.605311e+00 -9.782093e-01 7.064645e+00 -2.299270e-04 1.950012e-04 -1.737371e-04
N 1.588944e+00 -9.687664e-01 -3.400973e+00 -1.528238e-04 1.068103e-04 -8.699972e-05
N 3.158366e+00 1.806440e+00 1.859624e+00 6.724091e-04 -1.063746e-03 -4.323433e-05
N 3.209714e+00 1.814340e+00 7.058577e+00 -1.088429e-04 1.624352e-04 -1.462837e-04
N 3.196920e+00 1.827796e+00 -3.403981e+00 -4.718773e-05 1.446709e-04 -5.647414e-05
N 6.384576e+00 -3.787806e+00 1.849639e+00 8.739901e-04 -9.915241e-04 -1.146414e-04
N 6.435037e+00 -3.777878e+00 7.003928e+00 -6.862048e-05 1.931062e-05 -1.028105e-04
N 6.427590e+00 -3.765153e+00 -3.404092e+00 -6.196371e-05 5.429828e-05 -3.409335e-04
N 4.818414e+00 -9.682260e-01 1.836253e+00 5.846897e-04 -1.120054e-03 2.313082e-04
N 4.826142e+00 -9.803276e-01 7.073097e+00 -1.975294e-04 2.201582e-05 -1.395899e-04
N 4.814280e+00 -9.696797e-01 -3.403470e+00 -2.076750e-04 4.166625e-05 -1.881792e-04
N -3.253679e+00 1.828749e+00 1.833392e+00 4.915143e-04 -9.369689e-04 2.076391e-04
N -3.241489e+00 1.819906e+00 7.073907e+00 -1.498455e-04 2.295800e-04 -8.004426e-05
N -3.253695e+00 1.826930e+00 -3.400161e+00 -1.727589e-04 1.926294e-04 -7.489977e-05
N -2.762390e-02 -3.763843e+00 1.840507e+00 6.556467e-04 -1.130061e-03 1.693716e-04
N -1.004899e-02 -3.775525e+00 7.072680e+00 -9.246995e-05 1.383220e-04 -1.096688e-04
N -2.767356e-02 -3.764210e+00 -3.403134e+00 -2.918195e-05 5.950069e-05 -1.537250e-04
N -1.642110e+00 -9.671156e-01 1.842051e+00 4.998156e-04 -8.412759e-04 3.287291e-04
N -1.624924e+00 -9.789428e-01 7.065550e+00 -2.574020e-04 1.469522e-04 -1.240709e-04
N -1.639184e+00 -9.669330e-01 -3.402303e+00 -2.484507e-04 6.678965e-05 -1.386993e-04
