108
Energy=-1.123296e+06 Lattice="9.476443e+00 0.000000e+00 0.000000e+00 -4.740931e+00 8.202545e+00 0.000000e+00 -2.538217e-03 -4.475822e-02 1.527770e+01" Stress="5.545908e-05 -2.285687e-04 -9.323494e-05 -2.293804e-04 -5.992594e-04 -1.954084e-03 -9.787235e-05 -1.959771e-03 9.518550e-04" Properties=species:S:1:pos:R:3:forces:R:3 Config_type=AlGaN_super3_15_1_43.xyz
Al 1.553641e+00 8.660947e-01 2.399215e+00 -2.651791e-05 4.667629e-05 9.602724e-05
Al 1.554150e+00 8.514058e-01 7.464240e+00 1.740853e-05 -9.412948e-06 -7.235953e-05
Al 1.558981e+00 8.799149e-01 -2.670629e+00 -2.970805e-05 1.174993e-04 5.500126e-05
Al -3.999216e-02 3.595817e+00 2.386627e+00 -8.988519e-05 2.212297e-05 -7.902185e-05
Al -2.281985e-02 3.573524e+00 7.473507e+00 -2.674922e-05 3.309303e-05 2.906918e-05
Al -1.713062e-02 3.617738e+00 -2.665145e+00 -5.050080e-05 2.649676e-05 9.867135e-05
Al 3.130387e+00 -1.879597e+00 2.380355e+00 6.401961e-05 5.372805e-05 1.041030e-04
Al 3.133038e+00 -1.882952e+00 7.498879e+00 -1.676405e-04 8.385728e-04 4.280782e-05
Ga 3.139149e+00 -1.843374e+00 -2.682288e+00 -6.105624e-05 1.831678e-05 2.537152e-05
Al -4.767479e+00 8.680646e-01 2.415688e+00 -2.301358e-04 -2.334304e-04 2.060306e-04
Al -4.762390e+00 8.533980e-01 7.482266e+00 -8.866509e-05 -2.434018e-04 -1.573287e-04
Al -4.757487e+00 8.821005e-01 -2.700074e+00 -9.928397e-05 -2.926084e-05 3.516897e-04
Ga -6.336861e+00 3.593742e+00 2.385095e+00 1.145237e-04 -2.313154e-04 1.168128e-05
Al -6.341346e+00 3.579477e+00 7.486738e+00 2.816968e-04 -1.966976e-04 1.434627e-04
Ga -6.346971e+00 3.616463e+00 -2.674101e+00 -1.632392e-05 4.044771e-05 9.142735e-05
Al -3.175147e+00 -1.861281e+00 2.401352e+00 -7.768113e-05 1.318505e-04 1.211889e-04
Ga -3.175540e+00 -1.882556e+00 7.503960e+00 -1.020211e-04 1.750032e-04 -5.916093e-05
Al -3.183886e+00 -1.853228e+00 -2.708057e+00 -8.204723e-06 6.184404e-05 5.654762e-05
Al -1.594967e+00 8.611761e-01 2.402355e+00 1.363080e-04 -1.090836e-04 3.225242e-05
Al -1.598557e+00 8.487167e-01 7.470753e+00 -2.956257e-05 -7.559035e-05 -1.641495e-04
Ga -1.609529e+00 8.865411e-01 -2.680254e+00 1.293516e-04 -1.698654e-04 3.170697e-05
Al -3.172779e+00 3.608570e+00 2.423106e+00 4.041699e-05 -3.860047e-05 -4.524259e-05
Ga -3.185839e+00 3.578924e+00 7.467292e+00 -9.617673e-05 -7.518072e-05 9.419273e-06
Al -3.185788e+00 3.608670e+00 -2.695587e+00 -6.622079e-05 2.984406e-05 4.417077e-04
Al -2.424789e-02 -1.863669e+00 2.389081e+00 8.107724e-05 -1.843869e-04 -9.140019e-05
Al -2.280346e-02 -1.880202e+00 7.492076e+00 -8.064100e-05 1.237343e-04 -1.059158e-04
Ga -2.013144e-02 -1.846525e+00 -2.684000e+00 8.653671e-05 -9.470084e-05 2.229750e-04
Al -3.451869e-02 1.768038e+00 4.933291e+00 -1.194487e-05 7.045941e-05 1.506270e-05
Ga -2.174955e-02 1.793865e+00 -5.247115e+00 -8.471889e-06 3.907901e-05 1.194444e-04
Al -9.301511e-03 1.787775e+00 -1.313974e-01 7.756327e-05 -1.195074e-04 -4.761253e-05
Al 3.135059e+00 -3.711507e+00 4.935117e+00 -1.967934e-04 4.896500e-04 -1.781251e-04
Ga 3.141374e+00 -3.667840e+00 -5.236721e+00 -2.900045e-05 1.018769e-04 6.277224e-05
Al 3.131630e+00 -3.692299e+00 -1.391919e-01 -1.440675e-05 -1.019167e-04 1.854008e-05
Ga 1.546884e+00 -9.709116e-01 4.935451e+00 -4.013817e-05 -4.620807e-06 2.890401e-05
Al 1.552497e+00 -9.348788e-01 -5.266983e+00 -1.149931e-05 -1.620576e-05 -1.720082e-04
Al 1.544459e+00 -9.381291e-01 -1.118391e-01 -2.348638e-04 -1.567202e-04 -8.150776e-05
Al 3.139501e+00 1.772039e+00 4.957204e+00 4.934865e-05 -7.392540e-05 -4.453630e-05
Ga 3.142927e+00 1.795865e+00 -5.251309e+00 1.879915e-06 -3.427723e-05 6.128874e-05
Al 3.122599e+00 1.778904e+00 -1.473949e-01 2.128922e-05 -2.019293e-04 3.849047e-04
Ga 6.295321e+00 -3.711512e+00 4.938319e+00 -2.009626e-05 2.484132e-05 -5.441142e-06
Al 6.300951e+00 -3.661945e+00 -5.241736e+00 -2.478204e-04 3.814320e-05 5.384327e-05
Al 6.289815e+00 -3.679877e+00 -1.372337e-01 7.838347e-05 -2.711060e-05 -7.812765e-05
Ga 4.713255e+00 -9.590125e-01 4.933866e+00 -1.486397e-04 -2.905647e-05 7.169083e-05
Al 4.725370e+00 -9.285964e-01 -5.242124e+00 -8.514966e-05 1.402512e-04 -8.959872e-05
Ga 4.722695e+00 -9.491865e-01 -1.285588e-01 -1.359113e-05 -8.594595e-05 -5.240946e-05
Al -3.176613e+00 1.768410e+00 4.920051e+00 5.789362e-05 4.287661e-05 -9.815895e-05
Al -3.187205e+00 1.787878e+00 -5.245277e+00 3.740525e-05 5.109275e-05 -1.502034e-04
Ga -3.186227e+00 1.801589e+00 -1.174067e-01 1.263826e-05 -5.624769e-05 -1.699417e-04
Al -1.820077e-02 -3.698318e+00 4.940256e+00 -2.650184e-05 2.369211e-04 -1.515730e-04
Al -2.642652e-02 -3.659152e+00 -5.252322e+00 -7.563860e-05 -3.285944e-06 -2.216817e-04
Al -1.246959e-02 -3.675676e+00 -1.302991e-01 1.339714e-04 -2.614760e-05 -7.131911e-05
Al -1.589442e+00 -9.581545e-01 4.934885e+00 -5.226932e-05 1.612833e-04 9.796132e-05
Al -1.600446e+00 -9.386866e-01 -5.253627e+00 -9.250520e-06 -4.576892e-05 3.692178e-05
Al -1.597074e+00 -9.601554e-01 -1.249796e-01 1.492424e-05 -3.494607e-05 -7.539632e-05
N 1.557606e+00 9.095765e-01 4.321872e+00 1.594937e-04 -9.464979e-05 -3.433056e-05
N 1.556635e+00 8.476569e-01 -5.909591e+00 4.068583e-05 1.447111e-05 2.405577e-06
N 1.551943e+00 8.691531e-01 -7.474355e-01 6.155049e-05 -6.821794e-05 -3.266508e-05
N -6.857278e-02 3.565672e+00 4.303009e+00 1.667380e-05 -7.238059e-05 2.103270e-04
N 1.698793e-02 3.643817e+00 -5.897209e+00 1.133594e-04 5.848414e-05 4.131302e-05
N -2.329064e-02 3.609438e+00 -7.411900e-01 7.492822e-05 4.065035e-06 5.620768e-05
N 3.132052e+00 -1.927829e+00 4.287134e+00 4.787837e-05 -2.519220e-04 -1.068371e-08
N 3.141581e+00 -1.801662e+00 -5.860479e+00 -5.272267e-05 2.785842e-05 1.479114e-04
N 3.090209e+00 -1.876286e+00 -7.022777e-01 1.393209e-04 -6.573111e-05 -1.807331e-04
N -4.769326e+00 9.093403e-01 4.322651e+00 -1.325538e-04 3.210016e-05 -3.255207e-04
N -4.717704e+00 8.672417e-01 -5.880323e+00 1.524771e-05 -1.535148e-04 1.968162e-04
N -4.796324e+00 8.992717e-01 -7.900273e-01 7.660621e-05 -4.035345e-05 -1.360169e-04
N -6.297744e+00 3.564670e+00 4.356817e+00 -1.488638e-04 8.867004e-05 8.266382e-05
N -6.341078e+00 3.670646e+00 -5.869003e+00 1.487400e-04 -1.084810e-04 1.358880e-07
N -6.340742e+00 3.613153e+00 -6.847003e-01 -2.367904e-04 2.324117e-04 -2.089162e-04
N -3.135899e+00 -1.853729e+00 4.307078e+00 -3.126243e-05 -8.257680e-05 -9.266176e-05
N -3.178761e+00 -1.845436e+00 -5.798327e+00 -2.349518e-05 6.805235e-05 3.818568e-05
N -3.137722e+00 -1.880574e+00 -7.819133e-01 -2.501746e-06 -1.055484e-04 1.299114e-04
N -1.597506e+00 8.538578e-01 4.325099e+00 1.281870e-04 1.224347e-04 -5.827210e-05
N -1.642430e+00 8.673378e-01 -5.880082e+00 -2.565330e-05 1.782760e-05 7.464992e-05
N -1.565462e+00 8.516487e-01 -7.028816e-01 -1.579696e-05 -2.615216e-05 -8.276667e-05
N -3.182719e+00 3.597236e+00 4.346889e+00 -3.221223e-05 4.760095e-05 -4.883110e-05
N -3.222407e+00 3.596901e+00 -5.833698e+00 2.752492e-05 -3.740448e-05 2.727323e-05
N -3.187309e+00 3.654680e+00 -7.777038e-01 -4.121922e-06 -6.936654e-05 -2.243954e-04
N -6.542222e-02 -1.900995e+00 4.302055e+00 1.373951e-04 -2.845974e-04 1.210991e-04
N -2.348433e-02 -1.845172e+00 -5.861146e+00 3.561657e-05 -5.726907e-05 1.994233e-05
N -2.129053e-02 -1.855714e+00 -6.983150e-01 2.027589e-04 9.533773e-05 -4.637834e-05
N -2.018345e-02 1.776028e+00 1.789687e+00 -3.522392e-05 1.082549e-04 1.011984e-04
N -2.707070e-02 1.760656e+00 6.861302e+00 -5.959919e-05 1.465764e-04 -5.441987e-05
N 2.029030e-02 1.818790e+00 -3.264619e+00 4.525991e-05 -4.931760e-05 -1.328494e-05
N 3.131657e+00 -3.700424e+00 1.780298e+00 -6.376054e-06 3.027573e-05 3.246270e-05
N 3.179779e+00 -3.679299e+00 6.855532e+00 1.869324e-04 -5.292860e-04 -6.761778e-05
N 3.143007e+00 -3.722699e+00 -3.260651e+00 1.537072e-05 -9.776914e-06 -6.123316e-05
N 1.553165e+00 -9.498299e-01 1.805761e+00 -1.035925e-04 4.493087e-05 1.441043e-05
N 1.556257e+00 -9.790438e-01 6.917895e+00 4.948073e-05 -8.025268e-05 7.086490e-05
N 1.555666e+00 -8.891125e-01 -3.349613e+00 2.102449e-05 8.998347e-06 -2.925676e-05
N 3.133883e+00 1.721833e+00 1.763396e+00 3.149948e-04 -5.918186e-06 -2.932274e-04
N 3.138471e+00 1.761918e+00 6.881397e+00 1.204233e-05 6.643990e-05 2.172680e-05
N 3.131602e+00 1.748030e+00 -3.271368e+00 4.639937e-05 -4.774571e-05 -1.882853e-05
N 6.249158e+00 -3.663840e+00 1.778863e+00 1.558592e-04 -1.133700e-04 -1.243848e-04
N 6.296694e+00 -3.753064e+00 6.905884e+00 -3.617572e-04 1.755913e-04 -9.349674e-05
N 6.252519e+00 -3.657198e+00 -3.317083e+00 8.247311e-05 -1.401723e-04 -1.791500e-04
N 4.720021e+00 -9.531461e-01 1.849895e+00 -1.294926e-04 2.255839e-04 1.040321e-04
N 4.674321e+00 -9.529326e-01 6.906840e+00 9.217821e-05 2.304758e-04 5.579918e-05
N 4.754850e+00 -9.146164e-01 -3.318936e+00 -8.763362e-05 -1.003950e-04 -2.212743e-04
N -3.184158e+00 1.782141e+00 1.863526e+00 7.753575e-06 8.126849e-05 -5.803712e-06
N -3.180577e+00 1.709581e+00 6.837017e+00 -2.769258e-05 -1.248237e-06 2.831373e-04
N -3.221536e+00 1.815374e+00 -3.323756e+00 1.603660e-04 2.687417e-05 -1.564381e-04
N 2.977025e-02 -3.670255e+00 1.778415e+00 6.013183e-06 1.968560e-04 2.634216e-04
N -6.434743e-02 -3.677807e+00 6.856348e+00 1.115629e-04 1.055157e-04 -2.211653e-06
N 1.431833e-02 -3.693332e+00 -3.339013e+00 3.812253e-05 -1.095940e-04 5.988348e-05
N -1.604547e+00 -9.565415e-01 1.790334e+00 -7.721234e-05 -5.373044e-05 1.378299e-05
N -1.558009e+00 -9.512376e-01 6.854552e+00 -3.119455e-06 5.563447e-05 4.715092e-05
N -1.636374e+00 -9.594524e-01 -3.343387e+00 -3.771218e-05 3.921733e-05 -8.484147e-05
