108
Energy=-1.809923e+06 Lattice="9.476278e+00 0.000000e+00 0.000000e+00 -4.738139e+00 8.206697e+00 0.000000e+00 9.377101e-16 1.624162e-15 1.531397e+01" Stress="-4.997246e-02 6.775199e-03 -2.746185e-04 6.762558e-03 -4.314438e-02 -3.443515e-04 -2.879274e-04 -3.376540e-04 -4.335583e-02" Properties=species:S:1:pos:R:3:forces:R:3 Config_type=AlGaN_super3_30_2_0.xyz
Al 1.564294e+00 9.031460e-01 2.504900e+00 -1.644459e-03 -1.504028e-02 -1.253599e-02
Al 1.564294e+00 9.031460e-01 7.521855e+00 -1.526805e-03 -1.508101e-02 -5.178491e-03
Al 1.564294e+00 9.031460e-01 -2.775158e+00 -1.467824e-03 -1.378700e-02 -6.105043e-03
Al 2.938992e-08 3.612582e+00 2.504900e+00 -3.162313e-03 -1.338484e-03 -1.099256e-02
Al 2.938992e-08 3.612582e+00 7.521855e+00 -3.349767e-03 -1.099584e-03 -3.973558e-03
Ga 2.938992e-08 3.612582e+00 -2.775158e+00 -2.677163e-03 -2.357760e-03 -3.350965e-03
Ga 3.173845e+00 -1.884678e+00 2.504900e+00 -2.887293e-03 1.744000e-03 -1.310791e-02
Al 3.173845e+00 -1.884678e+00 7.521855e+00 -3.394489e-03 1.451106e-03 -4.565755e-03
Ga 3.173845e+00 -1.884678e+00 -2.775158e+00 -3.153716e-03 2.188628e-03 -3.212262e-03
Ga -4.783396e+00 9.031460e-01 2.504900e+00 4.657970e-04 -1.773165e-02 -1.327328e-02
Ga -4.783396e+00 9.031460e-01 7.521855e+00 2.139667e-04 -1.783038e-02 -4.824080e-03
Al -4.783396e+00 9.031460e-01 -2.775158e+00 1.374058e-03 -1.265529e-02 -5.517467e-03
Ga -6.347690e+00 3.612582e+00 2.504900e+00 -9.552841e-04 -1.541274e-06 -1.024171e-02
Ga -6.347690e+00 3.612582e+00 7.521855e+00 -1.090215e-03 -8.001955e-06 -1.610200e-03
Ga -6.347690e+00 3.612582e+00 -2.775158e+00 -5.062873e-04 -7.516625e-04 -2.471185e-03
Al -3.173845e+00 -1.884678e+00 2.504900e+00 -5.142120e-04 3.416931e-03 -1.128859e-02
Al -3.173845e+00 -1.884678e+00 7.521855e+00 -6.967170e-04 3.037296e-03 -3.318983e-03
Ga -3.173845e+00 -1.884678e+00 -2.775158e+00 -5.282077e-04 3.489929e-03 -2.542409e-03
Ga -1.654808e+00 9.031460e-01 2.504900e+00 1.693434e-02 -9.521906e-03 -1.643354e-02
Ga -1.654808e+00 9.031460e-01 7.521855e+00 1.681688e-02 -9.610378e-03 -8.379017e-03
Al -1.654808e+00 9.031460e-01 -2.775158e+00 1.396329e-02 -7.433649e-03 -6.717674e-03
Ga -3.219102e+00 3.612582e+00 2.504900e+00 1.562931e-02 8.005265e-03 -1.313695e-02
Ga -3.219102e+00 3.612582e+00 7.521855e+00 1.601827e-02 8.421482e-03 -4.847569e-03
Ga -3.219102e+00 3.612582e+00 -2.775158e+00 1.531064e-02 7.148208e-03 -5.381675e-03
Ga -4.525702e-02 -1.884678e+00 2.504900e+00 1.493813e-02 1.142297e-02 -1.490029e-02
Ga -4.525702e-02 -1.884678e+00 7.521855e+00 1.530651e-02 1.193603e-02 -5.925874e-03
Ga -4.525702e-02 -1.884678e+00 -2.775158e+00 1.493843e-02 1.124250e-02 -5.141203e-03
Ga 1.469567e-08 1.806291e+00 5.013378e+00 -1.501476e-02 -1.079941e-02 -6.833334e-03
Al 1.469567e-08 1.806291e+00 -5.283635e+00 -1.188342e-02 -8.487952e-03 -5.663615e-03
Ga 1.469567e-08 1.806291e+00 -2.666800e-01 -1.479289e-02 -1.106309e-02 4.415290e-02
Al 3.173845e+00 -3.690969e+00 5.013378e+00 -1.220328e-02 -5.716468e-03 -4.040909e-03
Ga 3.173845e+00 -3.690969e+00 -5.283635e+00 -1.549538e-02 -8.480091e-03 -6.290531e-03
Al 3.173845e+00 -3.690969e+00 -2.666800e-01 -1.217062e-02 -5.167476e-03 3.600179e-02
Ga 1.609551e+00 -9.815320e-01 5.013378e+00 -1.612654e-02 9.327009e-03 -8.543231e-03
Ga 1.609551e+00 -9.815320e-01 -5.283635e+00 -1.613800e-02 9.644878e-03 -9.205102e-03
Al 1.609551e+00 -9.815320e-01 -2.666800e-01 -1.393605e-02 7.844322e-03 3.347930e-02
Al 3.128588e+00 1.806291e+00 5.013378e+00 5.515401e-04 -3.234267e-03 -3.798222e-03
Al 3.128588e+00 1.806291e+00 -5.283635e+00 4.728403e-04 -3.394591e-03 -3.403558e-03
Ga 3.128588e+00 1.806291e+00 -2.666800e-01 2.665767e-04 -3.632103e-03 4.741602e-02
Al 6.302433e+00 -3.690969e+00 5.013378e+00 6.566876e-06 -3.549588e-04 -2.671401e-03
Ga 6.302433e+00 -3.690969e+00 -5.283635e+00 3.864587e-04 -5.093347e-04 -2.639798e-03
Ga 6.302433e+00 -3.690969e+00 -2.666800e-01 -1.138052e-04 4.957432e-04 4.934220e-02
Ga 4.738139e+00 -9.815320e-01 5.013378e+00 -7.891356e-04 1.731837e-02 -5.501700e-03
Al 4.738139e+00 -9.815320e-01 -5.283635e+00 -1.305843e-03 1.374279e-02 -5.046462e-03
Al 4.738139e+00 -9.815320e-01 -2.666800e-01 -1.420065e-03 1.277072e-02 3.581938e-02
Al -3.219102e+00 1.806291e+00 5.013378e+00 2.899012e-03 -1.828555e-03 -4.649395e-03
Al -3.219102e+00 1.806291e+00 -5.283635e+00 2.866033e-03 -1.845599e-03 -3.821628e-03
Ga -3.219102e+00 1.806291e+00 -2.666800e-01 3.501217e-03 -1.926848e-03 4.661763e-02
Ga -4.525703e-02 -3.690969e+00 5.013378e+00 3.089152e-03 4.875119e-04 -3.064530e-03
Al -4.525703e-02 -3.690969e+00 -5.283635e+00 3.082721e-03 8.452470e-04 -3.425441e-03
Al -4.525703e-02 -3.690969e+00 -2.666800e-01 3.140777e-03 1.679304e-03 3.692653e-02
Ga -1.609551e+00 -9.815320e-01 5.013378e+00 1.954063e-03 1.880580e-02 -6.627031e-03
Ga -1.609551e+00 -9.815320e-01 -5.283635e+00 1.946263e-03 1.864647e-02 -6.549706e-03
Al -1.609551e+00 -9.815320e-01 -2.666800e-01 1.349243e-03 1.434476e-02 3.482403e-02
N 1.564294e+00 9.031460e-01 4.418497e+00 1.748507e-02 -6.981727e-03 -8.353180e-03
N 1.564294e+00 9.031460e-01 -5.878516e+00 -1.157487e-03 4.235652e-03 -7.941959e-04
N 1.564294e+00 9.031460e-01 -8.615610e-01 -5.585298e-04 -3.489216e-02 -8.180322e-03
N 2.938992e-08 3.612582e+00 4.418497e+00 -2.073225e-03 2.229332e-02 -5.098555e-03
N 2.938992e-08 3.612582e+00 -5.878516e+00 -2.268612e-03 -2.175664e-02 -1.341558e-02
N 2.938992e-08 3.612582e+00 -8.615610e-01 -2.059775e-02 1.074637e-02 1.336254e-02
N 3.173845e+00 -1.884678e+00 4.418497e+00 -3.030775e-03 -2.002477e-02 1.060765e-02
N 3.173845e+00 -1.884678e+00 -5.878516e+00 1.607853e-02 1.236165e-02 -1.356252e-02
N 3.173845e+00 -1.884678e+00 -8.615610e-01 -2.264902e-03 1.397184e-03 2.719598e-02
N -4.783396e+00 9.031460e-01 4.418497e+00 4.846503e-04 3.936003e-03 2.266817e-02
N -4.783396e+00 9.031460e-01 -5.878516e+00 1.049351e-03 -1.322664e-02 2.874285e-02
N -4.783396e+00 9.031460e-01 -8.615610e-01 8.331728e-04 -3.493832e-02 -8.003286e-03
N -6.347690e+00 3.612582e+00 4.418497e+00 -1.959207e-02 -1.025065e-02 1.876200e-02
N -6.347690e+00 3.612582e+00 -5.878516e+00 1.866186e-02 -1.063743e-02 1.819661e-02
N -6.347690e+00 3.612582e+00 -8.615610e-01 1.804131e-02 1.115277e-02 1.415072e-02
N -3.173845e+00 -1.884678e+00 4.418497e+00 -1.224078e-03 -2.012694e-02 -1.273550e-02
N -3.173845e+00 -1.884678e+00 -5.878516e+00 -1.997831e-02 1.279800e-02 -1.356371e-02
N -3.173845e+00 -1.884678e+00 -8.615610e-01 -9.089748e-04 2.319452e-02 1.990748e-02
N -1.654808e+00 9.031460e-01 4.418497e+00 -1.890646e-03 1.161948e-03 1.896586e-02
N -1.654808e+00 9.031460e-01 -5.878516e+00 1.313847e-02 9.970320e-03 2.518777e-02
N -1.654808e+00 9.031460e-01 -8.615610e-01 1.647949e-02 -2.700106e-02 -4.142269e-03
N -3.219102e+00 3.612582e+00 4.418497e+00 3.111008e-02 -4.456288e-03 2.048359e-02
N -3.219102e+00 3.612582e+00 -5.878516e+00 -3.371372e-03 -2.582761e-03 2.178866e-02
N -3.219102e+00 3.612582e+00 -8.615610e-01 1.208174e-02 2.755045e-02 2.259800e-02
N -4.525702e-02 -1.884678e+00 4.418497e+00 1.509599e-02 1.024222e-02 6.691772e-03
N -4.525702e-02 -1.884678e+00 -5.878516e+00 1.484298e-02 -1.175926e-02 1.420644e-02
N -4.525702e-02 -1.884678e+00 -8.615610e-01 1.133689e-02 7.120446e-03 2.919563e-02
N 1.469567e-08 1.806291e+00 1.910020e+00 3.817950e-03 8.825732e-04 -2.432534e-02
N 1.469567e-08 1.806291e+00 6.926975e+00 3.875597e-03 6.971405e-04 2.240718e-02
N 1.469567e-08 1.806291e+00 -3.370038e+00 -1.154839e-02 -2.941451e-02 -3.498485e-03
N 3.173845e+00 -3.690969e+00 1.910020e+00 3.312233e-03 -1.987684e-02 -4.250713e-02
N 3.173845e+00 -3.690969e+00 6.926975e+00 3.447513e-03 2.432469e-03 -1.319980e-03
N 3.173845e+00 -3.690969e+00 -3.370038e+00 -1.563911e-02 -7.869110e-03 7.089680e-03
N 1.609551e+00 -9.815320e-01 1.910020e+00 -1.702385e-02 2.774595e-02 -4.041594e-02
N 1.609551e+00 -9.815320e-01 6.926975e+00 1.708833e-03 1.650045e-02 2.427386e-02
N 1.609551e+00 -9.815320e-01 -3.370038e+00 -1.722256e-02 2.698217e-02 1.718562e-02
N 3.128588e+00 1.806291e+00 1.910020e+00 -1.760661e-02 -1.294470e-02 -3.600066e-02
N 3.128588e+00 1.806291e+00 6.926975e+00 -1.745909e-02 -1.276849e-02 -1.304999e-02
N 3.128588e+00 1.806291e+00 -3.370038e+00 7.438858e-04 -2.381444e-02 -5.546359e-03
N 6.302433e+00 -3.690969e+00 1.910020e+00 -1.855810e-02 1.076589e-02 -2.756498e-02
N 6.302433e+00 -3.690969e+00 6.926975e+00 -1.807421e-02 1.082211e-02 -5.544014e-03
N 6.302433e+00 -3.690969e+00 -3.370038e+00 4.764508e-04 3.117340e-04 2.770168e-03
N 4.738139e+00 -9.815320e-01 1.910020e+00 1.879656e-02 7.230611e-03 -4.314603e-02
N 4.738139e+00 -9.815320e-01 6.926975e+00 -1.521878e-04 -3.664665e-03 2.248985e-02
N 4.738139e+00 -9.815320e-01 -3.370038e+00 -8.102152e-04 3.481263e-02 -1.031588e-02
N -3.219102e+00 1.806291e+00 1.910020e+00 3.077090e-03 -1.928915e-03 -4.446344e-02
N -3.219102e+00 1.806291e+00 6.926975e+00 2.624555e-03 -1.806699e-03 -2.106599e-02
N -3.219102e+00 1.806291e+00 -3.370038e+00 2.803811e-03 -2.333327e-02 -5.862299e-03
N -4.525703e-02 -3.690969e+00 1.910020e+00 2.665326e-03 -2.011442e-04 -5.520323e-02
N -4.525703e-02 -3.690969e+00 6.926975e+00 2.311604e-03 -2.232781e-04 2.594526e-03
N -4.525703e-02 -3.690969e+00 -3.370038e+00 2.440277e-03 8.003712e-04 -2.075515e-02
N -1.609551e+00 -9.815320e-01 1.910020e+00 -1.780615e-02 7.210528e-03 -4.362168e-02
N -1.609551e+00 -9.815320e-01 6.926975e+00 -1.754346e-02 7.047405e-03 1.401858e-02
N -1.609551e+00 -9.815320e-01 -3.370038e+00 1.061834e-03 3.530987e-02 1.268453e-02
