108
Energy=-1.031744e+06 Lattice="9.478604e+00 0.000000e+00 0.000000e+00 -4.741046e+00 8.200053e+00 0.000000e+00 3.164037e-02 -3.487257e-03 1.530638e+01" Stress="1.290653e-03 3.714770e-03 5.786330e-04 3.700961e-03 4.299025e-03 2.941290e-04 5.858372e-04 2.959155e-04 6.904581e-03" Properties=species:S:1:pos:R:3:forces:R:3 Config_type=AlGaN_super3_13_2_5.xyz
Al 1.552743e+00 8.810289e-01 2.429238e+00 3.520956e-03 -2.192850e-03 1.710964e-03
Al 1.493148e+00 8.628418e-01 7.558188e+00 1.762010e-02 1.181710e-03 -4.076679e-02
Al 1.561573e+00 8.689272e-01 -2.751488e+00 -7.395521e-03 -5.043707e-03 1.687146e-02
Al -3.522879e-02 3.598636e+00 2.409068e+00 4.754725e-03 2.622622e-03 4.085515e-03
Al -1.346269e-02 3.615688e+00 7.495552e+00 -8.326310e-04 -1.354848e-03 -1.615742e-04
Al -2.467223e-02 3.591937e+00 -2.729492e+00 1.707617e-03 1.567068e-03 7.440195e-03
Al 3.157263e+00 -1.859258e+00 2.411443e+00 8.483699e-03 -4.344947e-03 6.466999e-03
Al 3.148810e+00 -1.851831e+00 7.521304e+00 -1.676456e-03 -9.158785e-04 2.594857e-03
Al 3.171993e+00 -1.876100e+00 -2.721339e+00 7.176174e-03 -3.070084e-03 4.388771e-03
Al -4.770906e+00 8.833695e-01 2.404463e+00 9.751626e-04 -3.730834e-03 -8.849289e-04
Al -4.736719e+00 8.728831e-01 7.525975e+00 -1.119345e-02 -2.162637e-03 -1.648923e-04
Al -4.754185e+00 8.720976e-01 -2.705659e+00 -1.441305e-03 -6.570216e-03 2.802166e-03
Al -6.331736e+00 3.611894e+00 2.431158e+00 -6.701182e-03 -1.638102e-03 4.297004e-03
Al -6.361515e+00 3.596830e+00 7.495339e+00 8.088121e-03 4.423883e-03 7.750574e-03
Ga -6.346024e+00 3.573886e+00 -2.734604e+00 -1.115709e-03 5.190242e-03 1.364326e-03
Al -3.182944e+00 -1.830695e+00 2.443402e+00 1.227847e-03 -5.571538e-03 -1.525330e-03
Ga -3.185530e+00 -1.864241e+00 7.490837e+00 2.649693e-03 8.345652e-04 3.526865e-03
Al -3.180775e+00 -1.860615e+00 -2.741330e+00 1.152252e-03 -2.152963e-03 5.074955e-03
Al -1.616522e+00 8.804394e-01 2.411615e+00 2.919591e-03 -9.409414e-04 -1.286273e-03
Al -1.678113e+00 9.575824e-01 7.535885e+00 3.938638e-02 -3.477806e-02 -1.960774e-02
Al -1.620246e+00 8.838328e-01 -2.726555e+00 4.972918e-03 -4.628019e-03 7.466684e-03
Al -3.189960e+00 3.618629e+00 2.418038e+00 9.618137e-03 -5.254875e-03 3.581021e-03
Ga -3.184860e+00 3.598093e+00 7.517883e+00 1.734105e-03 7.548192e-03 -1.557745e-04
Al -3.170206e+00 3.595169e+00 -2.713756e+00 3.551392e-03 1.975898e-03 1.567631e-03
Ga -1.731446e-02 -1.872808e+00 2.424292e+00 1.978721e-03 4.775607e-03 3.136570e-03
Ga -5.951907e-02 -1.873592e+00 7.490039e+00 5.297810e-03 2.970441e-03 3.179964e-03
Ga -2.819559e-03 -1.869474e+00 -2.758513e+00 -1.145046e-04 -1.138216e-03 4.355715e-03
Al -2.622494e-02 1.785161e+00 4.978388e+00 -3.233013e-03 1.841022e-03 1.826084e-03
Ga -3.218295e-02 1.779915e+00 -5.301276e+00 -5.836998e-03 1.238242e-03 3.592883e-03
Al -9.432835e-03 1.763853e+00 -1.217716e-01 -7.415836e-03 3.426060e-03 -1.221398e-02
Al 3.156847e+00 -3.671520e+00 4.970191e+00 -4.549259e-03 -8.262293e-04 -7.624357e-04
Al 3.143223e+00 -3.672879e+00 -5.256259e+00 -5.105227e-03 2.211325e-04 1.145314e-03
Al 3.172371e+00 -3.709038e+00 -1.320120e-01 -5.794809e-03 2.128048e-03 -8.813780e-03
Al 1.571527e+00 -9.555173e-01 4.992088e+00 -3.454540e-03 8.503495e-05 -3.264216e-03
Al 1.584140e+00 -9.324095e-01 -5.196775e+00 -1.150481e-02 -9.199618e-03 -4.275192e-02
Ga 1.607170e+00 -9.560280e-01 -1.605839e-01 -3.985421e-03 3.205897e-03 7.253222e-03
Ga 3.130124e+00 1.785929e+00 4.981532e+00 1.753987e-05 3.247897e-03 2.924803e-03
Ga 3.145099e+00 1.784553e+00 -5.284121e+00 1.666058e-03 6.304574e-03 -1.400176e-03
Al 3.140639e+00 1.778546e+00 -1.671785e-01 2.103359e-03 -2.993194e-03 1.322049e-02
Al 6.291182e+00 -3.676392e+00 4.961597e+00 1.430419e-03 3.453814e-04 -4.768900e-03
Al 6.283568e+00 -3.673806e+00 -5.268710e+00 9.260051e-03 -3.154170e-04 1.490239e-03
Ga 6.302399e+00 -3.691176e+00 -1.574502e-01 -1.829466e-03 2.809940e-03 1.102923e-02
Al 4.705482e+00 -9.380445e-01 4.982394e+00 1.799742e-03 -7.356090e-03 -1.076058e-03
Al 4.734286e+00 -9.594424e-01 -5.254359e+00 -2.644736e-03 2.928829e-03 7.309620e-04
Al 4.751447e+00 -9.643719e-01 -1.273546e-01 -2.427169e-03 4.315191e-03 -1.010161e-02
Ga -3.184523e+00 1.783742e+00 4.967800e+00 -2.022571e-03 3.548714e-03 -2.470120e-03
Al -3.186985e+00 1.793544e+00 -5.250858e+00 -4.939727e-03 9.188630e-04 1.539078e-03
Al -3.174178e+00 1.773793e+00 -1.296822e-01 -1.676147e-03 5.259986e-04 -7.505391e-03
Al -2.463295e-02 -3.668173e+00 4.982885e+00 -8.151014e-04 -5.688326e-03 -1.014738e-02
Al -3.321033e-02 -3.663925e+00 -5.262266e+00 6.341542e-03 -2.755021e-03 3.704018e-03
Ga -6.471130e-03 -3.704582e+00 -1.629703e-01 1.869612e-03 1.353038e-03 8.175864e-03
Al -1.614617e+00 -9.384134e-01 4.997442e+00 6.130333e-03 -3.155254e-03 -2.579881e-02
Al -1.604989e+00 -9.457268e-01 -5.274248e+00 -2.323333e-02 8.172564e-03 4.546057e-03
Al -1.592185e+00 -9.521373e-01 -2.054944e-01 -3.957722e-03 4.140054e-03 1.282456e-02
N 1.523135e+00 8.726838e-01 4.376621e+00 -6.597771e-03 -9.339925e-03 -8.105260e-03
N 1.559865e+00 8.602331e-01 -5.954403e+00 -5.346633e-03 -1.478170e-02 3.710640e-02
N 1.557603e+00 9.206715e-01 -7.714562e-01 2.477358e-03 -4.615958e-03 -1.151207e-02
N -2.416907e-02 3.606426e+00 4.361780e+00 -1.694591e-03 -2.277952e-03 -3.876767e-03
N -3.318610e-02 3.640605e+00 -5.885711e+00 2.244919e-03 5.748113e-03 -3.313548e-03
N -2.929549e-02 3.575472e+00 -7.766116e-01 -7.488718e-03 -5.619155e-03 -4.653879e-03
N 3.146015e+00 -1.856992e+00 4.368141e+00 9.241154e-04 1.766136e-04 -5.162481e-03
N 3.139805e+00 -1.852440e+00 -5.844404e+00 -3.310492e-03 -2.982646e-04 -3.239557e-03
N 3.196081e+00 -1.891108e+00 -7.775116e-01 5.208980e-03 -4.151397e-03 -6.350453e-03
N -4.768867e+00 8.340534e-01 4.339397e+00 8.497460e-04 -1.439324e-03 -8.805961e-03
N -4.736184e+00 8.638405e-01 -5.865809e+00 8.666506e-03 -7.789466e-03 -1.765095e-03
N -4.758932e+00 8.702278e-01 -7.575780e-01 4.746415e-04 -1.388432e-03 -1.813892e-03
N -6.342294e+00 3.640746e+00 4.364773e+00 1.049405e-04 6.448324e-03 -6.377597e-03
N -6.287496e+00 3.668198e+00 -5.843083e+00 -3.048336e-02 -8.687811e-03 -1.641810e-02
N -6.334085e+00 3.570315e+00 -7.697669e-01 2.873557e-05 -6.892709e-03 1.847616e-03
N -3.193704e+00 -1.844523e+00 4.385860e+00 5.608262e-04 2.173666e-04 -6.539774e-03
N -3.181824e+00 -1.862668e+00 -5.845851e+00 -5.150710e-03 1.646780e-03 6.747901e-03
N -3.167465e+00 -1.845067e+00 -7.977512e-01 9.637938e-04 7.077951e-03 -4.514725e-03
N -1.597584e+00 8.793416e-01 4.355027e+00 1.353201e-02 -8.244301e-03 -1.096893e-02
N -1.670318e+00 8.683198e-01 -5.944716e+00 1.739237e-03 -3.838882e-03 2.871456e-02
N -1.611771e+00 8.752647e-01 -7.789647e-01 5.771933e-03 -1.048979e-03 -3.504541e-04
N -3.192589e+00 3.644078e+00 4.365151e+00 6.457006e-03 4.775749e-03 -7.284053e-03
N -3.205491e+00 3.620308e+00 -5.825028e+00 8.628538e-03 4.287651e-04 5.591154e-03
N -3.151240e+00 3.582953e+00 -7.756981e-01 1.087937e-02 -3.262675e-03 -4.844087e-03
N -1.533633e-03 -1.884258e+00 4.393347e+00 -6.861231e-03 1.461060e-02 8.167581e-03
N -1.779378e-01 -1.894799e+00 -5.841152e+00 5.268685e-02 1.128358e-02 2.423970e-03
N -2.919844e-02 -1.856741e+00 -7.843780e-01 -9.642359e-04 5.513573e-03 2.443640e-03
N -1.700289e-02 1.780743e+00 1.772799e+00 -3.266471e-03 -1.634327e-03 1.083163e-02
N -4.707146e-02 1.795762e+00 6.920862e+00 -1.659937e-03 -1.059108e-03 -2.277144e-03
N -1.869176e-02 1.773224e+00 -3.325776e+00 -2.721111e-03 -4.043306e-03 5.464973e-03
N 3.144980e+00 -3.678724e+00 1.774964e+00 -1.595378e-03 -2.772322e-03 8.965154e-03
N 3.176761e+00 -3.665608e+00 6.901754e+00 1.087233e-03 3.862439e-03 -3.636623e-03
N 3.158397e+00 -3.693470e+00 -3.327166e+00 -4.692794e-03 -5.942221e-04 -1.610319e-04
N 1.635003e+00 -9.556668e-01 1.844601e+00 -1.053935e-02 1.235098e-02 -5.578969e-03
N 1.586051e+00 -9.515694e-01 6.922640e+00 6.491999e-04 6.059036e-03 -5.150225e-03
N 1.646539e+00 -9.616659e-01 -3.388233e+00 -8.591551e-03 1.122323e-02 2.875462e-02
N 3.134785e+00 1.792721e+00 1.839478e+00 -2.346429e-03 -6.875565e-04 -1.376722e-02
N 3.157480e+00 1.803025e+00 6.956199e+00 -8.639828e-03 -1.351483e-02 6.384398e-03
N 3.106354e+00 1.720209e+00 -3.323786e+00 1.370670e-02 -2.554666e-03 4.062223e-03
N 6.294569e+00 -3.669253e+00 1.869254e+00 1.560600e-03 -7.705038e-04 -3.784547e-03
N 6.294862e+00 -3.711004e+00 6.882664e+00 8.062933e-04 -8.713575e-03 -1.818256e-03
N 6.274902e+00 -3.681224e+00 -3.341853e+00 -7.107504e-03 3.236363e-03 -2.021014e-03
N 4.730958e+00 -9.478961e-01 1.770459e+00 -6.271413e-04 1.602182e-03 9.774516e-03
N 4.697110e+00 -9.409063e-01 6.906270e+00 -8.440818e-03 9.752439e-03 -4.945149e-03
N 4.736594e+00 -9.576167e-01 -3.327031e+00 -2.101030e-03 5.074294e-03 2.549592e-05
N -3.194501e+00 1.794947e+00 1.779031e+00 3.630449e-03 -6.871866e-04 8.583394e-03
N -3.160514e+00 1.742804e+00 6.935078e+00 -2.771648e-02 9.365091e-03 -7.962366e-03
N -3.185179e+00 1.785185e+00 -3.321291e+00 -4.447017e-04 -1.678907e-03 -2.602372e-03
N -5.814731e-03 -3.730878e+00 1.837153e+00 -6.231854e-03 8.693428e-05 -6.857411e-03
N -4.782082e-02 -3.718689e+00 6.853693e+00 -6.051407e-03 -1.883818e-03 7.854774e-03
N 8.794470e-03 -3.726337e+00 -3.366682e+00 7.553967e-03 2.521628e-04 4.931585e-03
N -1.617012e+00 -9.346745e-01 1.782862e+00 -5.481318e-03 3.819490e-03 -7.286106e-03
N -1.618541e+00 -9.324559e-01 6.818889e+00 -3.140005e-04 2.139587e-02 2.544907e-02
N -1.611704e+00 -9.463869e-01 -3.352629e+00 -7.264510e-03 1.219450e-02 -4.164978e-04
