108
Energy=-1.855704e+06 Lattice="9.573528e+00 0.000000e+00 0.000000e+00 -4.796245e+00 8.285348e+00 0.000000e+00 1.795264e-02 3.058136e-02 1.549015e+01" Stress="6.073441e-04 -1.520730e-04 6.521949e-04 -1.453673e-04 -6.881663e-04 8.770357e-04 6.620814e-04 8.790425e-04 2.788198e-03" Properties=species:S:1:pos:R:3:forces:R:3 Config_type=AlGaN_super3_31_2_6.xyz
Al 1.587458e+00 8.797123e-01 2.390650e+00 1.044382e-03 9.843406e-03 6.877316e-03
Al 1.575278e+00 9.021175e-01 7.594119e+00 2.010273e-03 1.825551e-03 3.272717e-03
Al 1.565332e+00 8.448944e-01 -2.733031e+00 1.455998e-03 2.822954e-03 4.541781e-03
Al -9.680954e-03 3.645276e+00 2.382998e+00 9.987964e-04 6.514694e-05 5.691187e-03
Al -2.088282e-02 3.650454e+00 7.612547e+00 9.140591e-04 2.116661e-04 7.946986e-04
Ga -2.966162e-02 3.612243e+00 -2.727592e+00 -2.775071e-04 -4.180510e-04 3.180029e-03
Al 3.172349e+00 -1.838563e+00 2.410792e+00 1.090056e-03 -3.734198e-03 2.852210e-03
Ga 3.194651e+00 -1.870552e+00 7.622505e+00 4.390013e-04 -2.893013e-04 1.290545e-03
Al 3.137259e+00 -1.911009e+00 -2.781242e+00 1.131338e-02 9.668699e-03 1.146792e-02
Al -4.823802e+00 9.021335e-01 2.445984e+00 2.098304e-03 3.416916e-03 -4.099124e-04
Ga -4.813475e+00 8.928323e-01 7.592151e+00 3.891855e-04 1.008296e-03 9.914031e-04
Al -4.837130e+00 8.454772e-01 -2.739003e+00 7.949432e-04 4.911081e-04 4.412517e-04
Al -6.422079e+00 3.656360e+00 2.453723e+00 -9.293713e-04 1.491870e-03 -9.170082e-04
Ga -6.410868e+00 3.650274e+00 7.588960e+00 3.820170e-04 -4.420981e-04 -3.188084e-04
Ga -6.424611e+00 3.611893e+00 -2.715724e+00 7.446254e-04 -6.607559e-04 -5.930499e-04
Al -3.220415e+00 -1.859012e+00 2.343367e+00 -3.273237e-03 -2.401853e-03 1.617284e-02
Al -3.210208e+00 -1.864509e+00 7.604506e+00 9.053756e-04 -8.818037e-04 1.301651e-03
Ga -3.228692e+00 -1.886615e+00 -2.707799e+00 -1.899613e-03 5.535169e-04 1.985466e-03
Al -1.614470e+00 8.856068e-01 2.416246e+00 8.021730e-04 2.441225e-03 6.767854e-04
Ga -1.604424e+00 9.167195e-01 7.609910e+00 7.371179e-04 -1.051851e-03 2.625184e-04
Ga -1.619656e+00 8.698707e-01 -2.716701e+00 6.932640e-04 1.582741e-03 1.646546e-03
Ga -3.198349e+00 3.657985e+00 2.453053e+00 -1.775681e-03 -4.039107e-04 -3.487884e-03
Al -3.190255e+00 3.667925e+00 7.609252e+00 -1.141077e-03 -1.201012e-03 5.690396e-04
Ga -3.220913e+00 3.628033e+00 -2.729512e+00 3.787654e-04 -1.936803e-03 -7.011729e-04
Ga -2.263817e-02 -1.838982e+00 2.427306e+00 -3.917667e-04 -4.046550e-03 8.619887e-04
Ga -7.261752e-04 -1.847791e+00 7.607943e+00 9.276671e-05 -1.501854e-03 1.271163e-04
Ga -2.159712e-03 -1.869097e+00 -2.712769e+00 -7.102179e-04 -1.664022e-03 1.370764e-03
Ga 2.397659e-03 1.817297e+00 4.994353e+00 -1.031490e-03 1.196300e-03 9.227761e-04
Al -2.109675e-02 1.778488e+00 -5.323592e+00 1.564928e-03 3.118819e-03 2.584794e-03
Al -2.131459e-02 1.770000e+00 -1.356078e-01 -3.548495e-04 2.216358e-03 -9.142434e-04
Ga 3.198040e+00 -3.708360e+00 5.015523e+00 1.653888e-03 1.869704e-03 1.303777e-03
Al 3.173237e+00 -3.739087e+00 -5.321947e+00 1.348700e-03 1.341418e-03 -3.280949e-04
Ga 3.176489e+00 -3.732120e+00 -1.179115e-01 1.052643e-03 4.293450e-03 -8.613662e-03
Ga 1.606099e+00 -9.234147e-01 5.006439e+00 -4.364147e-04 8.193523e-04 2.311705e-03
Al 1.583486e+00 -9.612908e-01 -5.308553e+00 1.199404e-03 2.538386e-04 2.783913e-04
Al 1.566942e+00 -9.588646e-01 -1.422289e-01 1.471556e-03 -7.360004e-04 -3.992471e-03
Al 3.162832e+00 1.812335e+00 4.992389e+00 -1.566370e-05 8.713600e-04 1.530261e-03
Ga 3.138382e+00 1.756206e+00 -5.300303e+00 9.328488e-05 1.448764e-03 1.983273e-03
Ga 3.137933e+00 1.771162e+00 -1.351448e-01 2.093208e-03 2.918615e-03 -3.236986e-03
Ga 6.367852e+00 -3.709387e+00 5.008196e+00 -5.676082e-04 1.482024e-03 -2.604467e-04
Ga 6.332567e+00 -3.732017e+00 -5.329912e+00 2.656376e-04 4.412572e-04 1.591611e-03
Al 6.362917e+00 -3.738476e+00 -1.205562e-01 -1.130540e-03 2.244261e-04 -3.023551e-03
Ga 4.783811e+00 -9.434216e-01 4.986546e+00 5.086833e-04 -7.742018e-04 2.205156e-03
Al 4.756843e+00 -9.780728e-01 -5.305162e+00 -6.711230e-04 -2.437610e-03 3.364092e-03
Ga 4.755920e+00 -9.738627e-01 -1.117237e-01 -3.463765e-03 3.035628e-04 -2.019190e-02
Ga -3.214823e+00 1.820405e+00 5.011151e+00 -7.148669e-04 -1.522519e-03 8.886934e-04
Ga -3.219752e+00 1.791429e+00 -5.309307e+00 -1.704063e-03 6.741900e-04 9.015703e-04
Ga -3.227526e+00 1.771980e+00 -1.415520e-01 -2.460707e-04 1.587962e-04 3.008496e-03
Ga -1.067640e-02 -3.707912e+00 5.025462e+00 -2.170033e-03 -6.018360e-05 -1.282494e-03
Ga -3.835337e-03 -3.725155e+00 -5.315055e+00 -1.489134e-03 -6.444175e-04 7.053654e-04
Ga -3.704895e-02 -3.720695e+00 -1.499024e-01 -9.997011e-04 8.286292e-04 1.040486e-02
Ga -1.611842e+00 -9.378558e-01 5.011017e+00 -3.432385e-03 -3.911251e-04 7.198662e-04
Ga -1.617433e+00 -9.638264e-01 -5.311764e+00 -2.645850e-03 -1.828582e-03 1.474644e-03
Al -1.612236e+00 -9.595703e-01 -1.228049e-01 -1.459105e-03 -8.195182e-04 -3.418916e-03
N 1.616533e+00 9.219829e-01 4.337585e+00 1.211802e-03 -1.366526e-03 -6.868650e-03
N 1.521915e+00 8.394133e-01 -5.959600e+00 1.785758e-06 3.152229e-04 -2.339127e-03
N 1.515989e+00 8.368409e-01 -7.864288e-01 1.039051e-04 1.248077e-03 -2.311538e-03
N -1.547211e-02 3.656740e+00 4.320339e+00 -1.460162e-04 -7.431995e-04 -4.034103e-03
N -7.606000e-02 3.598761e+00 -5.948134e+00 -8.895439e-04 -1.480299e-03 -1.008126e-03
N 5.585893e-03 3.601073e+00 -7.243163e-01 1.265820e-03 -1.288137e-03 -1.152723e-03
N 3.181318e+00 -1.861920e+00 4.338080e+00 6.064145e-05 -1.088876e-03 -4.436219e-03
N 3.168898e+00 -1.893051e+00 -5.873216e+00 -2.883470e-04 -9.120125e-04 9.604682e-04
N 3.121576e+00 -1.868136e+00 -7.796731e-01 -8.535630e-04 -2.379991e-03 -1.555033e-02
N -4.849912e+00 9.208538e-01 4.366908e+00 9.305321e-04 8.001957e-04 -2.054110e-03
N -4.826424e+00 8.156240e-01 -5.917107e+00 1.219377e-03 2.046551e-03 -1.612162e-03
N -4.828719e+00 8.563321e-01 -8.285693e-01 1.196000e-03 2.570430e-03 1.355971e-03
N -6.407772e+00 3.616673e+00 4.377746e+00 1.023686e-03 -5.733899e-04 -8.057654e-04
N -6.416364e+00 3.620269e+00 -5.929332e+00 5.730931e-04 -3.153867e-04 -2.657581e-04
N -6.460661e+00 3.645377e+00 -7.467169e-01 2.321930e-04 6.326137e-04 2.136127e-04
N -3.192231e+00 -1.868792e+00 4.323368e+00 -2.237773e-03 6.332497e-04 -1.159040e-02
N -3.258985e+00 -1.864795e+00 -5.963705e+00 5.786733e-04 2.959519e-04 -1.577222e-03
N -3.182164e+00 -1.914595e+00 -7.113972e-01 2.746155e-03 -5.029408e-05 1.238405e-03
N -1.612700e+00 9.015683e-01 4.342800e+00 1.375027e-03 2.560376e-04 -2.660744e-03
N -1.587886e+00 8.984742e-01 -5.906781e+00 2.782978e-04 -4.575376e-04 -1.845940e-03
N -1.588481e+00 8.505646e-01 -7.249020e-01 1.323849e-03 1.192426e-04 -1.735681e-03
N -3.202139e+00 3.668933e+00 4.402563e+00 -5.142963e-04 -9.218926e-04 9.858189e-04
N -3.180833e+00 3.656607e+00 -5.961317e+00 1.927683e-04 -1.294771e-03 -1.430840e-03
N -3.223666e+00 3.631353e+00 -7.688604e-01 3.275161e-06 -3.267101e-04 4.207726e-03
N -6.411985e-03 -1.846694e+00 4.401912e+00 1.340646e-03 -1.852308e-03 -1.316242e-03
N 2.140683e-02 -1.857542e+00 -5.907668e+00 1.363749e-04 -1.205589e-03 -9.026886e-04
N -2.309590e-02 -1.833483e+00 -7.211528e-01 -5.075277e-04 -9.597987e-04 -3.537120e-05
N -1.585344e-02 1.791272e+00 1.790964e+00 4.919277e-05 1.916033e-03 2.977419e-03
N 2.955211e-02 1.837090e+00 6.995069e+00 -5.046819e-05 2.182147e-03 -1.966628e-03
N 1.648581e-02 1.752395e+00 -3.389342e+00 1.227278e-04 1.310819e-03 -1.817937e-03
N 3.222057e+00 -3.665959e+00 1.831058e+00 7.598342e-04 -3.219866e-03 7.078122e-03
N 3.191229e+00 -3.753053e+00 7.011956e+00 1.307879e-03 1.346671e-03 -1.762076e-03
N 3.170223e+00 -3.715708e+00 -3.395226e+00 5.522158e-04 2.463604e-03 -4.865670e-04
N 1.612468e+00 -9.235480e-01 1.772850e+00 1.849633e-03 3.302187e-04 2.850559e-03
N 1.603283e+00 -8.928833e-01 6.991535e+00 -3.431579e-04 -1.174297e-03 -2.031254e-03
N 1.609654e+00 -9.415891e-01 -3.380775e+00 4.041825e-05 -3.320534e-03 -6.383710e-04
N 3.189309e+00 1.846963e+00 1.844338e+00 -7.204397e-03 -1.041445e-02 3.106897e-03
N 3.130398e+00 1.788475e+00 6.929613e+00 -4.933570e-04 2.532264e-04 -2.912426e-03
N 3.150299e+00 1.732759e+00 -3.313092e+00 -6.162165e-04 1.245493e-04 -2.440121e-05
N 6.371738e+00 -3.713152e+00 1.795130e+00 -1.138862e-03 6.208362e-04 3.036191e-03
N 6.327748e+00 -3.681537e+00 7.008721e+00 -1.083913e-03 1.843905e-04 -9.213861e-04
N 6.355131e+00 -3.734426e+00 -3.354921e+00 -3.620133e-04 8.603454e-04 -1.546462e-03
N 4.730238e+00 -9.063000e-01 1.802147e+00 8.517807e-03 -6.456197e-03 2.311254e-02
N 4.820055e+00 -9.678852e-01 6.976374e+00 -1.267963e-03 -9.100544e-04 -2.744674e-03
N 4.740235e+00 -9.476925e-01 -3.374526e+00 -7.823459e-03 -7.215315e-03 7.646061e-04
N -3.212820e+00 1.770582e+00 1.859380e+00 -1.549102e-03 -1.727131e-03 -2.908829e-03
N -3.207513e+00 1.865883e+00 6.996729e+00 -9.589213e-04 5.284429e-04 -1.147504e-03
N -3.263060e+00 1.761377e+00 -3.331571e+00 -1.146511e-03 -3.364090e-04 3.126637e-04
N -5.532581e-02 -3.726051e+00 1.879633e+00 3.887194e-04 3.680679e-04 -1.206575e-02
N 3.561622e-02 -3.723628e+00 7.002826e+00 -3.973504e-04 9.741128e-05 -1.815859e-04
N -2.296503e-02 -3.731241e+00 -3.342820e+00 -1.242722e-03 1.280397e-03 3.989029e-04
N -1.655286e+00 -9.233735e-01 1.793171e+00 -5.778684e-04 1.339709e-03 -2.544950e-03
N -1.644764e+00 -9.587744e-01 6.998528e+00 -1.600730e-03 -5.990648e-04 -9.544521e-04
N -1.616810e+00 -9.742532e-01 -3.339603e+00 -1.693534e-03 -1.570143e-03 -1.275422e-03
