108
Energy=-1.535276e+06 Lattice="9.525066e+00 0.000000e+00 0.000000e+00 -4.763092e+00 8.248728e+00 0.000000e+00 7.547128e-05 -1.311740e-03 1.538856e+01" Stress="-3.470922e-04 -6.036181e-05 4.860342e-05 -4.266154e-05 -4.735739e-04 -2.437423e-05 3.770780e-05 -1.365835e-05 -7.889651e-04" Properties=species:S:1:pos:R:3:forces:R:3 Config_type=AlGaN_super3_24_0_30.xyz
Al 1.558988e+00 8.724264e-01 2.430227e+00 -1.188548e-04 1.153194e-05 -8.430682e-05
Al 1.563765e+00 8.700490e-01 7.550968e+00 -5.500672e-07 7.371790e-05 2.080354e-04
Al 1.566331e+00 8.743040e-01 -2.729393e+00 4.365514e-05 -3.160215e-05 2.558890e-05
Al -2.589267e-02 3.628035e+00 2.413788e+00 -5.262078e-04 -7.097524e-04 2.476066e-05
Al -2.606781e-02 3.627512e+00 7.555561e+00 2.389459e-04 -1.212784e-04 1.343117e-04
Ga -1.313601e-02 3.623530e+00 -2.720105e+00 -1.186547e-04 4.276277e-05 8.573376e-05
Al 3.145079e+00 -1.880341e+00 2.451103e+00 1.558000e-04 5.617250e-05 -5.809233e-04
Ga 3.156767e+00 -1.869050e+00 7.529008e+00 -7.266083e-05 2.403753e-04 1.812103e-04
Al 3.150308e+00 -1.863226e+00 -2.731979e+00 -7.634933e-05 -5.351064e-05 1.640580e-04
Ga -4.789627e+00 8.756999e-01 2.428386e+00 2.302339e-05 -1.200710e-04 -7.435361e-05
Al -4.772518e+00 8.715605e-01 7.542672e+00 5.155515e-06 2.280199e-04 1.432549e-04
Ga -4.792037e+00 8.764427e-01 -2.718978e+00 1.446290e-04 5.179513e-05 -8.230982e-05
Al -6.374582e+00 3.629046e+00 2.404990e+00 5.452309e-05 -2.270443e-05 3.643431e-05
Ga -6.376688e+00 3.626477e+00 7.565801e+00 -1.081880e-05 -1.508622e-06 7.152991e-05
Al -6.368221e+00 3.634080e+00 -2.720406e+00 3.990918e-04 5.341157e-05 -1.293282e-04
Ga -3.199602e+00 -1.879020e+00 2.397507e+00 6.476345e-05 1.274746e-04 3.287293e-05
Al -3.218707e+00 -1.874088e+00 7.553115e+00 9.571471e-05 -4.286473e-05 -2.233855e-05
Ga -3.211035e+00 -1.883935e+00 -2.689957e+00 -2.243468e-05 6.994490e-05 1.240852e-04
Al -1.601345e+00 8.809495e-01 2.429332e+00 1.257364e-04 -1.996185e-05 -1.303009e-05
Ga -1.620644e+00 8.978331e-01 7.553000e+00 9.799405e-05 -7.425520e-05 -6.053678e-05
Ga -1.603879e+00 8.923837e-01 -2.725084e+00 -1.947242e-05 -9.918204e-06 -1.906576e-05
Al -3.193846e+00 3.633492e+00 2.428038e+00 5.027942e-04 6.944778e-04 -6.298315e-04
Al -3.192671e+00 3.613382e+00 7.538134e+00 -2.459279e-04 -2.783037e-04 -4.537481e-05
Al -3.213815e+00 3.632813e+00 -2.715267e+00 2.490225e-04 4.733668e-04 -6.990058e-05
Al -1.360756e-02 -1.874730e+00 2.397805e+00 -2.097361e-04 1.172660e-04 4.311525e-04
Ga -5.304703e-03 -1.872622e+00 7.562071e+00 1.174108e-06 -5.088066e-05 3.087553e-05
Ga -2.949159e-03 -1.889211e+00 -2.704713e+00 1.322080e-04 -1.979487e-04 1.220203e-04
Ga -2.535012e-02 1.798874e+00 4.973968e+00 -1.150960e-04 1.089482e-04 -9.891155e-05
Al -1.468535e-02 1.796268e+00 -5.294664e+00 5.080713e-04 -5.921638e-04 -1.766932e-04
Ga -1.714265e-02 1.788613e+00 -1.166937e-01 -7.246089e-05 6.347328e-05 1.819441e-04
Al 3.149325e+00 -3.704273e+00 4.977890e+00 -4.913665e-04 -8.630719e-04 -1.909228e-03
Ga 3.142948e+00 -3.710492e+00 -5.282250e+00 7.403614e-06 -1.087307e-05 2.499710e-04
Ga 3.149706e+00 -3.688837e+00 -1.411898e-01 -9.505185e-05 9.169689e-05 1.914995e-04
Al 1.575001e+00 -9.584208e-01 4.956739e+00 -5.970690e-04 -7.272917e-04 -2.866402e-04
Al 1.570138e+00 -9.488932e-01 -5.264972e+00 -1.057476e-04 1.743692e-04 1.182437e-04
Ga 1.575998e+00 -9.613087e-01 -1.326328e-01 -4.118231e-05 -6.373541e-05 4.423002e-05
Ga 3.155353e+00 1.777326e+00 4.995748e+00 6.624495e-05 1.019301e-04 -8.955291e-06
Ga 3.148933e+00 1.787893e+00 -5.282032e+00 -1.218486e-04 8.311207e-06 2.911928e-05
Ga 3.146128e+00 1.809169e+00 -1.517714e-01 -4.966113e-05 -1.737915e-04 4.460019e-05
Ga 6.308334e+00 -3.700497e+00 4.983458e+00 1.620721e-04 2.133631e-05 -3.331638e-06
Al 6.323772e+00 -3.699598e+00 -5.285683e+00 -1.458215e-04 -3.017609e-04 -8.267425e-05
Al 6.344184e+00 -3.699400e+00 -1.356413e-01 -1.056149e-04 1.393122e-05 5.265958e-05
Al 4.731616e+00 -9.560289e-01 4.994405e+00 1.531478e-04 3.454324e-05 -1.273507e-04
Al 4.742567e+00 -9.572978e-01 -5.294892e+00 -2.217986e-05 3.673773e-04 5.718799e-05
Al 4.738004e+00 -9.711451e-01 -1.396905e-01 -1.327844e-04 -3.307049e-05 1.014114e-04
Al -3.197929e+00 1.800496e+00 4.977144e+00 8.786444e-05 -8.215731e-05 2.143044e-04
Al -3.207716e+00 1.804255e+00 -5.289061e+00 6.823823e-04 2.055159e-04 1.012581e-03
Ga -3.197059e+00 1.797492e+00 -1.325219e-01 8.197049e-05 1.838789e-05 1.159888e-05
Ga -3.171399e-03 -3.706407e+00 4.961681e+00 6.890908e-05 1.361383e-04 -6.074145e-05
Al -1.278930e-02 -3.715213e+00 -5.269646e+00 -3.148049e-04 4.196473e-05 5.079716e-04
Al -3.602551e-02 -3.708615e+00 -1.341296e-01 8.145857e-04 8.422892e-04 -1.021966e-04
Ga -1.612241e+00 -9.516529e-01 4.981409e+00 6.933374e-05 -6.729700e-05 -9.784717e-05
Ga -1.619076e+00 -9.622068e-01 -5.286743e+00 2.563454e-05 1.022730e-04 8.096233e-05
Al -1.612694e+00 -9.653431e-01 -1.290985e-01 3.251330e-05 8.996072e-06 2.503236e-05
N 1.566699e+00 8.326515e-01 4.333436e+00 5.156470e-05 2.462645e-04 -1.887629e-05
N 1.523653e+00 8.441002e-01 -5.920204e+00 -3.044913e-04 2.131396e-04 1.104098e-04
N 1.558913e+00 8.736868e-01 -8.204313e-01 1.173601e-04 4.803290e-06 -8.953318e-05
N -6.475781e-02 3.653783e+00 4.323448e+00 -3.844956e-04 1.860514e-04 3.175117e-04
N 1.323746e-02 3.606293e+00 -5.910714e+00 1.912732e-04 4.125278e-04 -2.037029e-06
N 2.069844e-02 3.648624e+00 -7.415063e-01 1.232963e-04 -7.274883e-06 -1.080805e-04
N 3.157980e+00 -1.874429e+00 4.382815e+00 -1.042020e-05 -6.163292e-05 -7.085435e-05
N 3.148091e+00 -1.825426e+00 -5.877927e+00 6.548492e-05 1.151264e-05 -2.042485e-04
N 3.193832e+00 -1.845473e+00 -8.169289e-01 7.933476e-05 2.318892e-05 -1.203238e-04
N -4.743727e+00 8.502112e-01 4.404143e+00 -1.741557e-04 -1.774568e-04 8.510526e-05
N -4.739802e+00 8.534221e-01 -5.916977e+00 -4.934632e-04 -6.773837e-04 -3.601076e-04
N -4.783382e+00 8.278255e-01 -7.427793e-01 -4.576785e-06 -1.040617e-05 2.176377e-05
N -6.377593e+00 3.625388e+00 4.317391e+00 -1.217291e-04 -3.063290e-05 -3.787577e-05
N -6.371137e+00 3.676852e+00 -5.853527e+00 -8.417010e-05 2.302826e-05 -8.832814e-05
N -6.370204e+00 3.682922e+00 -7.894941e-01 -4.858677e-04 -2.624627e-04 -3.151276e-04
N -3.242057e+00 -1.847042e+00 4.367051e+00 -1.514582e-04 8.458493e-06 1.235242e-05
N -3.245482e+00 -1.897639e+00 -5.920398e+00 -8.399734e-05 3.558894e-05 -2.220560e-05
N -3.199025e+00 -1.873441e+00 -6.961840e-01 8.135247e-06 -5.380467e-05 -4.623243e-05
N -1.651942e+00 8.994042e-01 4.341614e+00 5.411834e-05 -2.094009e-05 5.925169e-05
N -1.615296e+00 9.305472e-01 -5.859515e+00 -1.006939e-04 1.688803e-05 1.781752e-04
N -1.607517e+00 8.332428e-01 -7.490608e-01 6.174901e-05 -8.990500e-05 -1.648501e-05
N -3.156098e+00 3.601593e+00 4.339348e+00 9.664057e-04 7.051700e-04 1.324357e-03
N -3.241062e+00 3.602669e+00 -5.930020e+00 3.464628e-04 5.198361e-05 -4.343687e-04
N -3.243309e+00 3.653351e+00 -7.965626e-01 -2.898560e-04 -6.149852e-06 2.660704e-04
N 1.372514e-02 -1.849673e+00 4.316167e+00 4.572201e-04 2.558447e-04 -1.791291e-05
N 2.766073e-02 -1.898659e+00 -5.847597e+00 9.301909e-05 -3.329590e-05 -1.156742e-04
N -5.711786e-02 -1.897870e+00 -7.174233e-01 -2.452422e-05 -4.990939e-04 1.539047e-04
N -1.979231e-02 1.790800e+00 1.865216e+00 7.710299e-05 3.501919e-04 8.210168e-05
N 2.143886e-02 1.819420e+00 6.956697e+00 -4.220975e-05 1.153142e-04 -2.552220e-05
N 2.296210e-02 1.772779e+00 -3.381889e+00 -4.493464e-05 7.703443e-05 -5.531189e-05
N 3.148655e+00 -3.698658e+00 1.848936e+00 -2.452997e-04 1.186921e-04 2.712586e-04
N 3.153323e+00 -3.756838e+00 6.907676e+00 -1.642560e-04 -1.453335e-04 8.581767e-04
N 3.109063e+00 -3.685592e+00 -3.297830e+00 -1.584715e-04 -7.558309e-05 -4.541660e-05
N 1.576317e+00 -9.572814e-01 1.853124e+00 9.973305e-05 -9.368973e-05 1.007989e-04
N 1.563553e+00 -9.089650e-01 6.871394e+00 -3.090974e-05 5.262873e-05 1.292199e-04
N 1.606107e+00 -9.309635e-01 -3.346177e+00 -3.150584e-05 6.909890e-05 -1.187191e-04
N 3.107243e+00 1.815557e+00 1.829813e+00 -4.207930e-05 1.270313e-05 -5.701049e-05
N 3.152051e+00 1.745366e+00 6.980318e+00 2.193307e-05 -2.724821e-05 -1.271497e-05
N 3.111440e+00 1.819716e+00 -3.298685e+00 -4.687980e-05 -1.119756e-05 8.271898e-06
N 6.328866e+00 -3.758316e+00 1.779469e+00 2.609291e-04 1.092450e-04 -1.227793e-04
N 6.284057e+00 -3.684219e+00 6.961519e+00 -5.728985e-05 3.468260e-05 2.291723e-05
N 6.368320e+00 -3.722346e+00 -3.371012e+00 -7.339213e-05 1.252535e-05 -4.721399e-05
N 4.684782e+00 -9.835765e-01 1.768780e+00 -2.514740e-04 -1.856250e-04 2.252270e-04
N 4.780308e+00 -9.323288e-01 6.909919e+00 6.510607e-06 -1.316756e-04 6.337997e-05
N 4.706944e+00 -9.803256e-01 -3.379858e+00 -4.214634e-05 -5.758782e-05 -1.412335e-04
N -3.156407e+00 1.821242e+00 1.840280e+00 -2.565133e-05 -3.455614e-04 -1.004186e-04
N -3.239873e+00 1.818831e+00 6.899369e+00 8.291915e-05 3.544047e-04 -8.099039e-05
N -3.202104e+00 1.847265e+00 -3.368198e+00 -5.740328e-05 -3.967175e-04 -8.236480e-04
N -2.023370e-02 -3.713137e+00 1.799767e+00 -5.804437e-05 2.189203e-05 -1.614414e-04
N 1.856169e-02 -3.728744e+00 6.932526e+00 7.535430e-05 -4.778417e-06 -1.914719e-05
N -1.951794e-02 -3.754929e+00 -3.351673e+00 -1.481136e-04 -1.887449e-05 -1.502819e-04
N -1.567438e+00 -9.283594e-01 1.790171e+00 1.460005e-05 -7.054068e-05 -1.314071e-04
N -1.647811e+00 -9.804116e-01 6.962375e+00 -1.072381e-04 -3.212905e-06 3.459124e-05
N -1.612723e+00 -9.636122e-01 -3.322369e+00 -1.753158e-04 4.317693e-05 -1.366879e-04
