108
Energy=-2.221901e+06 Lattice="9.476278e+00 0.000000e+00 0.000000e+00 -4.738139e+00 8.206697e+00 0.000000e+00 9.377101e-16 1.624162e-15 1.531397e+01" Stress="-7.352177e-02 6.387057e-03 -1.079176e-05 6.386815e-03 -6.606664e-02 -3.005661e-04 -2.320402e-06 -2.959585e-04 -6.639318e-02" Properties=species:S:1:pos:R:3:forces:R:3 Config_type=AlGaN_super3_39_0_0.xyz
Al 1.564294e+00 9.031460e-01 2.504900e+00 -1.896517e-03 -1.436999e-02 -1.315962e-02
Al 1.564294e+00 9.031460e-01 7.521855e+00 -9.649579e-04 -1.458391e-02 -3.830087e-03
Ga 1.564294e+00 9.031460e-01 -2.775158e+00 -1.889344e-03 -1.862485e-02 -7.476685e-03
Al 2.938992e-08 3.612582e+00 2.504900e+00 -3.293881e-03 -1.878535e-03 -1.169117e-02
Ga 2.938992e-08 3.612582e+00 7.521855e+00 -2.947780e-03 -1.256370e-03 -2.215104e-03
Ga 2.938992e-08 3.612582e+00 -2.775158e+00 -3.282723e-03 -1.645300e-03 -3.093742e-03
Ga 3.173845e+00 -1.884678e+00 2.504900e+00 -3.478536e-03 1.208060e-03 -1.422614e-02
Al 3.173845e+00 -1.884678e+00 7.521855e+00 -3.320540e-03 1.683735e-03 -3.410732e-03
Ga 3.173845e+00 -1.884678e+00 -2.775158e+00 -3.420056e-03 2.079217e-03 -4.575469e-03
Ga -4.783396e+00 9.031460e-01 2.504900e+00 6.306722e-04 -1.695995e-02 -1.441917e-02
Ga -4.783396e+00 9.031460e-01 7.521855e+00 2.865236e-04 -1.701295e-02 -4.248505e-03
Al -4.783396e+00 9.031460e-01 -2.775158e+00 1.656654e-03 -1.288081e-02 -4.975319e-03
Ga -6.347690e+00 3.612582e+00 2.504900e+00 -2.397790e-04 -1.199263e-04 -1.173873e-02
Al -6.347690e+00 3.612582e+00 7.521855e+00 -4.691835e-05 -1.112288e-04 -1.002407e-03
Ga -6.347690e+00 3.612582e+00 -2.775158e+00 6.623074e-05 -3.552923e-04 -2.995780e-03
Ga -3.173845e+00 -1.884678e+00 2.504900e+00 -3.065469e-04 3.011907e-03 -1.268157e-02
Ga -3.173845e+00 -1.884678e+00 7.521855e+00 -6.846731e-04 3.094976e-03 -2.382409e-03
Ga -3.173845e+00 -1.884678e+00 -2.775158e+00 -5.975311e-04 3.688185e-03 -2.672829e-03
Ga -1.654808e+00 9.031460e-01 2.504900e+00 1.663178e-02 -8.900555e-03 -1.719150e-02
Ga -1.654808e+00 9.031460e-01 7.521855e+00 1.639847e-02 -9.169041e-03 -8.140144e-03
Al -1.654808e+00 9.031460e-01 -2.775158e+00 1.355774e-02 -7.728232e-03 -5.783559e-03
Al -3.219102e+00 3.612582e+00 2.504900e+00 1.270833e-02 5.615185e-03 -1.200552e-02
Al -3.219102e+00 3.612582e+00 7.521855e+00 1.218813e-02 5.870630e-03 -3.296446e-03
Ga -3.219102e+00 3.612582e+00 -2.775158e+00 1.530245e-02 7.163740e-03 -5.630320e-03
Ga -4.525702e-02 -1.884678e+00 2.504900e+00 1.519399e-02 1.075642e-02 -1.562134e-02
Ga -4.525702e-02 -1.884678e+00 7.521855e+00 1.538983e-02 1.061603e-02 -5.052424e-03
Ga -4.525702e-02 -1.884678e+00 -2.775158e+00 1.533860e-02 1.103640e-02 -6.489296e-03
Ga 1.469567e-08 1.806291e+00 5.013378e+00 -1.525033e-02 -1.126746e-02 -7.220920e-03
Al 1.469567e-08 1.806291e+00 -5.283635e+00 -1.112785e-02 -8.810207e-03 -5.564508e-03
Al 1.469567e-08 1.806291e+00 -2.666800e-01 -1.223457e-02 -8.615470e-03 3.529470e-02
Ga 3.173845e+00 -3.690969e+00 5.013378e+00 -1.522659e-02 -8.239445e-03 -5.371873e-03
Ga 3.173845e+00 -3.690969e+00 -5.283635e+00 -1.554456e-02 -7.883481e-03 -5.960858e-03
Ga 3.173845e+00 -3.690969e+00 -2.666800e-01 -1.524618e-02 -8.273324e-03 4.625193e-02
Ga 1.609551e+00 -9.815320e-01 5.013378e+00 -1.668819e-02 9.517075e-03 -8.588872e-03
Al 1.609551e+00 -9.815320e-01 -5.283635e+00 -1.397504e-02 8.463078e-03 -6.979569e-03
Ga 1.609551e+00 -9.815320e-01 -2.666800e-01 -1.673588e-02 9.619684e-03 4.255596e-02
Ga 3.128588e+00 1.806291e+00 5.013378e+00 2.975655e-04 -3.585969e-03 -2.785616e-03
Al 3.128588e+00 1.806291e+00 -5.283635e+00 -4.778882e-04 -3.163550e-03 -4.059251e-03
Ga 3.128588e+00 1.806291e+00 -2.666800e-01 1.634118e-04 -3.891479e-03 4.849719e-02
Ga 6.302433e+00 -3.690969e+00 5.013378e+00 5.171198e-05 -1.346146e-04 -1.617314e-03
Ga 6.302433e+00 -3.690969e+00 -5.283635e+00 5.298101e-04 -9.594531e-04 -2.353591e-03
Ga 6.302433e+00 -3.690969e+00 -2.666800e-01 -1.487294e-04 -1.368294e-04 5.006413e-02
Ga 4.738139e+00 -9.815320e-01 5.013378e+00 -5.159007e-04 1.758028e-02 -4.760302e-03
Ga 4.738139e+00 -9.815320e-01 -5.283635e+00 -1.242642e-03 1.738001e-02 -5.335654e-03
Ga 4.738139e+00 -9.815320e-01 -2.666800e-01 -6.753447e-04 1.722316e-02 4.621223e-02
Ga -3.219102e+00 1.806291e+00 5.013378e+00 3.372072e-03 -2.137318e-03 -4.282239e-03
Ga -3.219102e+00 1.806291e+00 -5.283635e+00 2.855975e-03 -1.648050e-03 -3.665320e-03
Ga -3.219102e+00 1.806291e+00 -2.666800e-01 3.860457e-03 -2.259595e-03 4.669384e-02
Ga -4.525703e-02 -3.690969e+00 5.013378e+00 3.235163e-03 1.339181e-03 -2.775805e-03
Al -4.525703e-02 -3.690969e+00 -5.283635e+00 2.847620e-03 1.174633e-03 -4.243895e-03
Ga -4.525703e-02 -3.690969e+00 -2.666800e-01 3.413169e-03 1.901696e-03 4.868925e-02
Ga -1.609551e+00 -9.815320e-01 5.013378e+00 2.135346e-03 1.892316e-02 -6.430458e-03
Ga -1.609551e+00 -9.815320e-01 -5.283635e+00 2.665907e-03 1.835327e-02 -6.115381e-03
Al -1.609551e+00 -9.815320e-01 -2.666800e-01 1.416343e-03 1.518206e-02 3.516604e-02
N 1.564294e+00 9.031460e-01 4.418497e+00 -1.131812e-03 -1.804743e-02 -1.606757e-02
N 1.564294e+00 9.031460e-01 -5.878516e+00 -7.194762e-04 -1.347519e-02 4.245263e-03
N 1.564294e+00 9.031460e-01 -8.615610e-01 -1.937741e-02 -6.959796e-03 1.610313e-02
N 2.938992e-08 3.612582e+00 4.418497e+00 -2.252862e-03 2.513844e-04 -2.049174e-02
N 2.938992e-08 3.612582e+00 -5.878516e+00 -2.678084e-03 -2.159865e-02 1.004536e-02
N 2.938992e-08 3.612582e+00 -8.615610e-01 -1.870353e-03 -2.134372e-02 1.297697e-02
N 3.173845e+00 -1.884678e+00 4.418497e+00 -3.108954e-03 1.955503e-03 2.444111e-03
N 3.173845e+00 -1.884678e+00 -5.878516e+00 -2.106701e-02 1.225877e-02 -1.420143e-02
N 3.173845e+00 -1.884678e+00 -8.615610e-01 -3.099954e-03 1.629408e-03 6.162078e-03
N -4.783396e+00 9.031460e-01 4.418497e+00 3.051431e-04 -1.790938e-02 7.211994e-03
N -4.783396e+00 9.031460e-01 -5.878516e+00 -1.819587e-02 -7.168331e-03 1.478125e-02
N -4.783396e+00 9.031460e-01 -8.615610e-01 7.250510e-05 -1.699047e-02 -1.322060e-02
N -6.347690e+00 3.612582e+00 4.418497e+00 -5.493849e-04 4.483568e-04 3.533098e-03
N -6.347690e+00 3.612582e+00 -5.878516e+00 1.870951e-02 -1.054295e-02 -5.697056e-03
N -6.347690e+00 3.612582e+00 -8.615610e-01 -5.737537e-04 3.429325e-04 6.513662e-03
N -3.173845e+00 -1.884678e+00 4.418497e+00 -1.270960e-03 2.150763e-03 2.571384e-03
N -3.173845e+00 -1.884678e+00 -5.878516e+00 -1.328312e-03 2.601270e-03 2.361923e-03
N -3.173845e+00 -1.884678e+00 -8.615610e-01 1.763070e-02 1.209502e-02 1.313149e-02
N -1.654808e+00 9.031460e-01 4.418497e+00 1.669757e-02 -9.800860e-03 1.094316e-02
N -1.654808e+00 9.031460e-01 -5.878516e+00 3.193874e-02 -1.054439e-03 1.705268e-02
N -1.654808e+00 9.031460e-01 -8.615610e-01 3.214011e-02 -1.835666e-02 1.091054e-03
N -3.219102e+00 3.612582e+00 4.418497e+00 1.527426e-02 8.634307e-03 -1.587726e-02
N -3.219102e+00 3.612582e+00 -5.878516e+00 -3.235784e-03 1.920659e-02 -9.344419e-03
N -3.219102e+00 3.612582e+00 -8.615610e-01 1.514497e-02 8.626658e-03 1.009340e-02
N -4.525702e-02 -1.884678e+00 4.418497e+00 1.502829e-02 1.024407e-02 6.972148e-03
N -4.525702e-02 -1.884678e+00 -5.878516e+00 3.010463e-02 -3.269935e-03 1.984564e-02
N -4.525702e-02 -1.884678e+00 -8.615610e-01 -3.566107e-03 2.023721e-02 1.627969e-02
N 1.469567e-08 1.806291e+00 1.910020e+00 4.275401e-03 8.029205e-04 -3.617391e-02
N 1.469567e-08 1.806291e+00 6.926975e+00 3.940122e-03 -2.111230e-02 1.379127e-02
N 1.469567e-08 1.806291e+00 -3.370038e+00 -3.057897e-02 -1.845347e-02 -1.050497e-02
N 3.173845e+00 -3.690969e+00 1.910020e+00 -1.241336e-02 -2.803488e-02 -2.538475e-02
N 3.173845e+00 -3.690969e+00 6.926975e+00 -3.092019e-02 4.755436e-03 1.969421e-02
N 3.173845e+00 -3.690969e+00 -3.370038e+00 -1.569027e-02 -8.306030e-03 6.254972e-03
N 1.609551e+00 -9.815320e-01 1.910020e+00 -1.696734e-02 2.792872e-02 -2.901694e-02
N 1.609551e+00 -9.815320e-01 6.926975e+00 1.659202e-03 1.675330e-02 2.443017e-02
N 1.609551e+00 -9.815320e-01 -3.370038e+00 -1.653186e-02 9.189807e-03 -1.282034e-02
N 3.128588e+00 1.806291e+00 1.910020e+00 -1.764643e-02 -1.323590e-02 -3.658544e-02
N 3.128588e+00 1.806291e+00 6.926975e+00 -1.799145e-02 9.254801e-03 1.773740e-02
N 3.128588e+00 1.806291e+00 -3.370038e+00 2.010959e-02 -1.280375e-02 -1.357038e-02
N 6.302433e+00 -3.690969e+00 1.910020e+00 -1.852037e-02 -1.123034e-02 -3.578669e-02
N 6.302433e+00 -3.690969e+00 6.926975e+00 1.971637e-02 -1.145235e-02 9.830165e-03
N 6.302433e+00 -3.690969e+00 -3.370038e+00 5.604500e-04 6.543428e-05 2.923420e-03
N 4.738139e+00 -9.815320e-01 1.910020e+00 -5.694317e-04 1.826725e-02 -3.934403e-02
N 4.738139e+00 -9.815320e-01 6.926975e+00 -1.923929e-02 6.940724e-03 1.378336e-02
N 4.738139e+00 -9.815320e-01 -3.370038e+00 -5.631646e-04 3.508720e-02 1.247772e-02
N -3.219102e+00 1.806291e+00 1.910020e+00 2.789991e-03 1.977957e-02 -3.690983e-02
N -3.219102e+00 1.806291e+00 6.926975e+00 2.831016e-03 1.969030e-02 9.450268e-03
N -3.219102e+00 1.806291e+00 -3.370038e+00 2.787983e-03 -2.337124e-02 1.738616e-02
N -4.525703e-02 -3.690969e+00 1.910020e+00 2.127247e-02 -1.097809e-02 -3.616718e-02
N -4.525703e-02 -3.690969e+00 6.926975e+00 1.728219e-03 -2.184569e-02 1.753714e-02
N -4.525703e-02 -3.690969e+00 -3.370038e+00 2.486206e-03 3.765389e-04 -2.138659e-02
N -1.609551e+00 -9.815320e-01 1.910020e+00 1.346268e-03 1.832644e-02 -5.121609e-02
N -1.609551e+00 -9.815320e-01 6.926975e+00 1.609197e-03 1.804745e-02 5.930003e-03
N -1.609551e+00 -9.815320e-01 -3.370038e+00 7.648231e-04 3.551514e-02 1.287363e-02
