108
Energy=-2176132.761273 Lattice="9.623328 0.000000 0.000000 -4.827877 8.329334 0.000000 0.008629 -0.053902 15.579824" Stress="0.000017 -0.000003 0.000002 -0.000003 0.000016 -0.000011 0.000002 -0.000011 0.000027" Properties=species:S:1:pos:R:3:forces:R:3
Al 1.581933 0.866631 2.414356 0.001540 0.001108 0.002019
Al 1.571412 0.864795 7.648957 0.001151 0.000658 0.001920
Al 1.573441 0.891113 -2.737336 0.000592 0.001855 0.002650
Al -0.018944 3.628278 2.454566 -0.000198 0.000651 0.000105
Al -0.017003 3.621945 7.651936 0.000538 0.000163 0.000675
Ga -0.037790 3.659097 -2.756409 0.000443 0.000230 0.001389
Ga 3.196829 -1.896144 2.420726 0.000481 -0.000882 0.002572
Ga 3.210418 -1.915965 7.632939 0.000298 -0.000398 0.000980
Ga 3.171036 -1.860683 -2.726654 0.001255 -0.001155 0.000436
Ga -4.840934 0.868481 2.421937 0.000634 0.000800 0.002729
Ga -4.836591 0.847545 7.620863 0.000891 0.000482 0.001408
Al -4.851697 0.907324 -2.716134 0.001007 0.001373 0.001281
Ga -6.457827 3.627529 2.437330 0.000414 0.000699 -0.000148
Ga -6.459454 3.630492 7.650867 0.000684 0.000175 -0.000033
Ga -6.439284 3.664646 -2.728269 -0.000199 0.000285 0.000395
Ga -3.238440 -1.908376 2.441507 0.000317 -0.000294 0.001692
Al -3.233858 -1.919381 7.633313 0.000647 -0.000479 0.000853
Ga -3.228577 -1.862629 -2.733355 0.000313 -0.000868 0.000265
Ga -1.628376 0.888013 2.444232 0.000680 -0.000307 0.000926
Ga -1.621312 0.870911 7.648535 0.000688 -0.000493 0.000104
Ga -1.633796 0.914858 -2.745342 0.001460 -0.000110 -0.000700
Ga -3.227366 3.633774 2.447429 0.000120 0.000246 0.000292
Ga -3.226908 3.629394 7.635512 -0.000030 -0.000415 0.001267
Al -3.249569 3.678872 -2.730124 -0.000255 -0.001209 0.001381
Ga -0.002597 -1.888433 2.437909 0.000686 -0.001064 0.000660
Ga -0.016801 -1.904746 7.644698 0.000804 -0.000965 0.000564
Al -0.004060 -1.860988 -2.732610 -0.001009 -0.002110 0.000024
Ga -0.016193 1.783816 5.034814 -0.000514 0.001113 0.001740
Al -0.019785 1.825678 -5.351157 0.000291 0.002185 0.002449
Ga -0.017289 1.809932 -0.142649 0.001002 -0.000072 0.002818
Ga 3.210394 -3.773640 5.041117 -0.000449 0.000923 0.000222
Ga 3.193504 -3.736911 -5.335243 0.001039 0.001323 0.000685
Ga 3.187114 -3.731549 -0.151426 -0.000966 -0.001051 0.002564
Ga 1.606695 -0.975366 5.040536 -0.000776 -0.000235 0.001474
Ga 1.576391 -0.927781 -5.326515 0.000227 0.000642 0.001410
Al 1.592968 -0.941417 -0.167166 -0.001064 0.000251 0.001170
Ga 3.186043 1.765807 5.035042 -0.000269 0.000644 0.001740
Ga 3.161296 1.816676 -5.326914 -0.000147 0.000522 0.001835
Al 3.180973 1.786963 -0.163864 -0.000464 0.001641 0.000667
Ga 6.388834 -3.757324 5.056677 -0.000122 -0.000263 0.000874
Ga 6.386709 -3.722310 -5.355798 -0.000461 0.000597 0.000879
Ga 6.387365 -3.730234 -0.140616 0.001725 -0.001537 0.001961
Al 4.807676 -0.980303 5.043767 -0.001515 -0.000952 0.001298
Ga 4.796144 -0.936534 -5.334269 -0.000346 -0.001410 0.002092
Al 4.782646 -0.935741 -0.167927 -0.000784 -0.000198 0.001379
Al -3.237059 1.777787 5.040367 -0.001079 0.000352 0.001547
Ga -3.240881 1.836057 -5.317292 -0.000717 -0.000357 0.001536
Al -3.255490 1.813800 -0.178994 -0.001793 0.001785 0.001074
Ga -0.005133 -3.771318 5.040923 -0.000662 0.000295 0.000346
Ga -0.010994 -3.714072 -5.307289 -0.001119 -0.000258 0.001022
Ga -0.005257 -3.727524 -0.173538 -0.001030 -0.001501 0.002541
Ga -1.636274 -0.977544 5.053515 -0.000640 -0.000419 0.000064
Ga -1.621244 -0.937476 -5.334505 -0.002421 -0.000284 0.000916
Ga -1.622437 -0.941722 -0.171509 -0.000407 -0.002296 0.005023
N 1.580058 0.858522 4.340327 0.001178 0.000517 -0.001998
N 1.529754 0.927621 -6.000907 0.001083 0.000242 -0.001551
N 1.605937 0.870995 -0.798146 0.001526 0.000655 -0.002382
N -0.023014 3.632989 4.368406 0.000499 -0.000001 -0.001032
N -0.037023 3.631705 -5.996358 0.000082 -0.000676 -0.000960
N -0.035985 3.665547 -0.783472 0.000287 -0.000544 -0.001185
N 3.237147 -1.887334 4.424646 0.001059 -0.000246 -0.000675
N 3.185497 -1.866332 -5.957226 0.000317 -0.000690 -0.000703
N 3.183240 -1.834050 -0.737825 0.001222 -0.000439 -0.000091
N -4.795829 0.834679 4.435318 0.001044 0.001240 -0.001872
N -4.844077 0.908176 -5.973980 0.000681 0.001587 -0.001984
N -4.846224 0.892018 -0.776503 0.000795 0.001008 -0.002032
N -6.449104 3.633641 4.422405 0.000033 0.000174 -0.001088
N -6.444467 3.680331 -5.945591 0.000676 -0.000178 -0.000854
N -6.453510 3.623571 -0.743987 0.000171 -0.001376 -0.001127
N -3.267074 -1.888546 4.428156 0.000651 -0.000474 -0.000874
N -3.232473 -1.860642 -6.018699 0.000636 -0.000259 -0.001107
N -3.271619 -1.854847 -0.758666 0.000297 -0.000480 0.000272
N -1.671045 0.892370 4.435030 0.000862 -0.000031 -0.001245
N -1.599549 0.940275 -5.936527 -0.000240 -0.000468 -0.001100
N -1.671437 0.929929 -0.765214 0.000816 0.000213 -0.000604
N -3.232797 3.587988 4.433794 0.000291 -0.000433 -0.000993
N -3.246750 3.683820 -5.963625 -0.000375 -0.000772 -0.001611
N -3.240495 3.630725 -0.809516 0.000871 -0.001681 -0.001206
N -0.012474 -1.901717 4.419666 0.000213 -0.000928 -0.000317
N -0.020253 -1.864072 -5.958843 0.000314 -0.001609 -0.000858
N 0.023446 -1.844064 -0.812590 0.000297 -0.001137 0.000480
N 0.023798 1.810036 1.859812 -0.002038 0.001898 -0.003534
N 0.024416 1.802801 7.035969 -0.000606 0.001049 -0.000834
N 0.018732 1.797778 -3.412693 -0.000015 -0.000405 -0.001759
N 3.241306 -3.791455 1.847695 -0.000431 0.002814 -0.003166
N 3.246706 -3.799853 7.032040 0.000330 0.000769 -0.000844
N 3.147138 -3.749499 -3.345103 0.000101 0.001236 -0.001196
N 1.592459 -0.929237 1.765655 -0.000802 -0.001188 -0.001149
N 1.597013 -0.938897 7.031299 -0.000703 -0.000514 -0.000934
N 1.543971 -0.920193 -3.332415 -0.000195 -0.000009 -0.002153
N 3.144596 1.765868 1.771338 -0.000160 -0.000238 -0.001315
N 3.138313 1.754903 7.028051 -0.000291 0.000156 -0.001325
N 3.174742 1.772147 -3.326015 -0.000490 -0.000397 -0.001361
N 6.359149 -3.785024 1.846995 -0.000118 0.002073 -0.002588
N 6.359327 -3.747782 7.055787 -0.000450 0.000319 -0.000468
N 6.396767 -3.721499 -3.373162 0.000621 -0.000093 -0.001416
N 4.798810 -0.972219 1.749154 -0.000633 -0.000962 -0.001043
N 4.841192 -1.015351 6.972569 -0.000591 -0.000421 -0.001701
N 4.790619 -0.894418 -3.343678 -0.000878 -0.000868 -0.001346
N -3.235048 1.798315 1.745110 -0.000707 -0.000449 -0.000435
N -3.228712 1.782158 6.960895 -0.000692 -0.000152 -0.000888
N -3.286244 1.852177 -3.324084 -0.001408 0.000186 -0.000251
N -0.007432 -3.757096 1.819346 -0.000681 0.001580 -0.001906
N -0.011196 -3.767307 7.017035 -0.000862 -0.000068 -0.000576
N 0.024476 -3.696276 -3.312512 -0.000451 0.000911 -0.000578
N -1.617789 -0.977577 1.826947 -0.001654 0.000701 -0.004716
N -1.658751 -1.009747 7.039018 -0.001518 -0.000104 -0.000289
N -1.582272 -0.968634 -3.345698 -0.000461 -0.000453 -0.000562
