108
Energy=-1031745.267587 Lattice="9.477276 0.000000 0.000000 -4.744450 8.196618 0.000000 0.044518 -0.008927 15.255046" Stress="0.000004 0.000001 0.000013 0.000001 0.000015 -0.000002 0.000013 -0.000002 0.000017" Properties=species:S:1:pos:R:3:forces:R:3
Al 1.567531 0.887398 2.398512 -0.000649 -0.003070 0.000050
Al 1.567005 0.857905 7.454890 -0.002101 0.000746 0.001859
Al 1.552085 0.885938 -2.669752 -0.004756 -0.004608 -0.001035
Al -0.014576 3.606845 2.404037 -0.003535 -0.003672 0.000833
Al 0.003638 3.602765 7.457871 0.000765 -0.001035 0.002222
Al -0.052428 3.602025 -2.696697 0.001652 0.000274 0.002820
Al 3.167747 -1.861822 2.396606 0.001530 -0.001523 0.000984
Al 3.164323 -1.856405 7.474284 -0.001301 -0.001916 0.003175
Al 3.148349 -1.864890 -2.705562 0.000805 -0.000898 0.004892
Al -4.757201 0.873368 2.379073 0.003242 0.000478 -0.007834
Al -4.748615 0.852321 7.487969 -0.001263 0.002266 0.002043
Al -4.768866 0.860777 -2.682618 0.002699 0.000044 0.002289
Al -6.343618 3.601526 2.396438 -0.002056 -0.005448 0.006248
Al -6.331017 3.590534 7.482683 -0.001124 0.005518 -0.002209
Ga -6.359210 3.584540 -2.698643 0.000106 0.003645 0.002490
Al -3.185516 -1.853042 2.400327 -0.003828 -0.002281 0.002599
Ga -3.169783 -1.863244 7.473231 0.004098 0.000668 0.000969
Al -3.205773 -1.844315 -2.707958 0.001162 -0.002929 0.003669
Al -1.579705 0.889843 2.378797 -0.003518 -0.003647 -0.003319
Al -1.591678 0.916408 7.467072 0.007261 -0.017191 0.004909
Al -1.628778 0.879162 -2.688595 0.001840 -0.000057 0.000956
Al -3.152490 3.613731 2.402599 -0.001428 -0.003801 -0.000327
Ga -3.163349 3.593630 7.486606 -0.000382 0.002554 0.000202
Al -3.172209 3.596891 -2.699978 0.001151 -0.001779 0.001630
Ga -0.040761 -1.868419 2.422469 0.002351 0.001754 -0.000186
Ga -0.006393 -1.854030 7.476873 -0.000450 0.000556 0.002433
Ga -0.028855 -1.848607 -2.706611 0.000461 -0.001420 0.001779
Al -0.010931 1.774063 4.933302 -0.000286 0.004318 0.002593
Ga -0.041732 1.786167 -5.247875 -0.000452 -0.002110 0.001430
Al -0.034863 1.763508 -0.158383 -0.002756 0.007160 0.000404
Al 3.168556 -3.674440 4.931977 -0.000340 -0.000081 0.001025
Al 3.131802 -3.669481 -5.236181 -0.000471 -0.001337 0.001570
Al 3.143706 -3.704532 -0.130659 -0.000073 0.004370 -0.009338
Al 1.582772 -0.955917 4.936472 -0.001436 -0.001572 0.000174
Al 1.574930 -0.970413 -5.205554 -0.009122 0.008262 -0.009212
Ga 1.579145 -0.946671 -0.136116 -0.000362 -0.001279 -0.001268
Ga 3.140956 1.779596 4.944399 0.002045 0.002942 0.001534
Ga 3.131880 1.787796 -5.259106 -0.003558 -0.000975 0.000346
Al 3.133821 1.765206 -0.132390 0.001025 0.000442 0.000782
Al 6.311602 -3.680795 4.920589 0.000072 0.000718 0.001063
Al 6.274503 -3.666646 -5.233454 0.000192 -0.001148 0.000394
Ga 6.275365 -3.683939 -0.129621 -0.000755 0.001238 -0.001430
Al 4.723566 -0.956850 4.934518 0.002067 -0.000833 -0.001426
Al 4.710124 -0.952264 -5.227574 -0.001841 0.000821 0.001493
Al 4.726323 -0.950080 -0.128136 -0.002452 -0.000740 -0.011305
Ga -3.157543 1.776800 4.919205 -0.002709 0.001458 0.000684
Al -3.194925 1.781918 -5.227743 0.000599 -0.000864 0.000936
Al -3.179667 1.773178 -0.128990 -0.002250 0.001876 -0.007432
Al -0.006740 -3.667979 4.926518 -0.001824 -0.007656 0.003477
Al -0.036281 -3.691427 -5.228043 0.003191 0.007676 -0.000618
Ga -0.012518 -3.701182 -0.125664 0.001150 0.001439 -0.002296
Al -1.585386 -0.941456 4.903844 -0.004773 -0.000837 0.011319
Al -1.632402 -0.952848 -5.223293 0.003158 0.005763 -0.004040
Al -1.620623 -0.932094 -0.161223 -0.002688 -0.002055 0.000811
N 1.529108 0.854532 4.325444 -0.000842 -0.003096 -0.003435
N 1.537917 0.842587 -5.911214 0.001177 -0.009377 0.009951
N 1.544943 0.920055 -0.752364 0.003858 -0.001644 -0.003177
N -0.012906 3.597437 4.330075 -0.000564 -0.000590 -0.001035
N -0.041236 3.650631 -5.866299 0.000696 0.002838 -0.003021
N -0.072001 3.575938 -0.770501 0.000423 -0.002243 -0.001440
N 3.158597 -1.863491 4.324581 -0.000209 0.000361 -0.002002
N 3.131385 -1.858921 -5.840096 0.000914 0.000117 -0.001811
N 3.177689 -1.890950 -0.774142 0.003038 -0.001353 -0.000168
N -4.749237 0.828692 4.260694 -0.001048 -0.001737 0.009484
N -4.736349 0.849427 -5.853201 0.002664 -0.000895 -0.001384
N -4.769078 0.864896 -0.743027 0.001339 0.001625 -0.000132
N -6.329862 3.644393 4.318116 0.000251 0.000038 -0.002706
N -6.354788 3.678287 -5.865084 -0.003843 -0.005738 0.003654
N -6.350951 3.558711 -0.729322 -0.000802 -0.001808 -0.000053
N -3.173014 -1.853863 4.331327 -0.000145 0.000416 -0.001905
N -3.200376 -1.860440 -5.797334 -0.000589 0.001741 0.000223
N -3.187132 -1.820344 -0.776644 0.000536 0.000177 -0.002541
N -1.549766 0.862500 4.296059 0.003295 -0.003183 -0.004688
N -1.656585 0.867617 -5.871230 -0.002592 -0.004700 0.002092
N -1.619356 0.872468 -0.758814 0.002555 -0.000541 0.000159
N -3.162495 3.653762 4.322405 0.001122 0.000890 -0.002327
N -3.196717 3.611222 -5.790050 0.000358 -0.001524 0.000304
N -3.146895 3.581598 -0.770858 0.001209 -0.002730 -0.000809
N -0.019908 -1.867891 4.411370 0.005106 0.007031 -0.008108
N -0.047510 -1.856449 -5.787508 0.005926 -0.000007 0.003732
N -0.061245 -1.836313 -0.731888 -0.000522 -0.000496 0.000183
N -0.004280 1.795884 1.767035 -0.001687 -0.004657 0.003119
N -0.008354 1.780878 6.867710 -0.000113 0.002199 -0.004246
N -0.035981 1.775639 -3.263215 0.000434 0.000506 0.003779
N 3.161951 -3.680968 1.768835 -0.001916 0.000943 0.009003
N 3.198220 -3.665715 6.854187 0.000481 0.001902 -0.001449
N 3.135896 -3.685018 -3.310217 -0.000849 0.002106 -0.001385
N 1.606409 -0.952390 1.836187 -0.002193 0.007551 0.002292
N 1.620842 -0.941730 6.856110 0.001479 0.000565 -0.004760
N 1.597567 -0.919951 -3.297637 0.002042 0.000717 -0.001035
N 3.142621 1.785486 1.796491 -0.001340 -0.002160 -0.001410
N 3.136403 1.782521 6.942713 0.008575 -0.004284 -0.006413
N 3.119575 1.720739 -3.278872 0.003884 0.002253 -0.001128
N 6.294669 -3.691731 1.858001 0.002388 0.006103 -0.002128
N 6.321575 -3.726698 6.845596 -0.000282 -0.001411 -0.002493
N 6.245971 -3.663874 -3.311231 -0.000687 0.000499 -0.001325
N 4.732179 -0.947865 1.759454 -0.003073 -0.001089 0.009597
N 4.698405 -0.935358 6.856779 -0.002814 0.002542 -0.004776
N 4.710927 -0.943775 -3.303262 -0.002130 0.000082 -0.001626
N -3.164354 1.794896 1.775373 -0.001146 -0.000905 0.006608
N -3.164866 1.725043 6.896813 -0.007889 0.004578 -0.004749
N -3.194547 1.778002 -3.299769 -0.001835 -0.000139 0.000614
N -0.020900 -3.744008 1.843127 0.005524 0.003894 -0.000997
N -0.040617 -3.712732 6.836777 0.000398 -0.001480 0.000132
N 0.018382 -3.712926 -3.322541 -0.002763 -0.000105 -0.000599
N -1.663754 -0.947225 1.757252 0.008666 0.008974 0.004622
N -1.586772 -0.898936 6.834678 -0.001281 0.005182 -0.003466
N -1.647869 -0.923741 -3.312706 -0.003266 0.001831 -0.000636
