108
Energy=-1.260622e+06 Lattice="9.489239e+00 0.000000e+00 0.000000e+00 -4.750494e+00 8.210376e+00 0.000000e+00 -8.064102e-04 -6.095052e-05 1.530944e+01" Stress="-3.784276e-03 4.199280e-04 -8.401406e-06 4.183078e-04 -5.233366e-03 -2.723313e-04 -3.795261e-06 -2.845172e-04 9.750739e-04" Properties=species:S:1:pos:R:3:forces:R:3 Config_type=AlGaN_super3_18_2_5.xyz
Al 1.546193e+00 9.083011e-01 2.422779e+00 1.109571e-02 -1.102097e-02 -1.234346e-02
Al 1.546805e+00 8.707504e-01 7.502693e+00 1.307901e-03 1.993839e-03 2.256396e-03
Al 1.555149e+00 8.915540e-01 -2.703012e+00 3.255473e-03 -5.463579e-03 3.172562e-03
Al -1.111224e-02 3.602040e+00 2.407981e+00 -6.158272e-03 5.931939e-03 4.388453e-03
Al -2.538060e-02 3.598068e+00 7.484175e+00 4.631846e-04 2.978997e-04 1.073697e-03
Al -2.026296e-02 3.585229e+00 -2.722896e+00 8.885084e-04 7.005451e-03 9.544617e-03
Al 3.174337e+00 -1.884225e+00 2.388752e+00 -1.964116e-02 -4.905232e-03 9.393439e-03
Al 3.152972e+00 -1.873374e+00 7.518779e+00 3.016322e-04 -1.954328e-03 1.980956e-03
Ga 3.150532e+00 -1.864744e+00 -2.734205e+00 -1.421007e-04 -9.502018e-04 3.989936e-03
Al -4.809356e+00 8.218515e-01 2.452626e+00 8.526392e-03 2.740472e-02 -1.033754e-02
Al -4.783389e+00 8.636887e-01 7.486742e+00 1.406949e-03 2.728397e-03 8.024477e-03
Al -4.790463e+00 8.819629e-01 -2.708703e+00 1.761710e-03 -1.450624e-03 3.983706e-03
Ga -6.361659e+00 3.589165e+00 2.422975e+00 4.761056e-03 -3.161167e-04 -1.437930e-03
Al -6.350270e+00 3.608575e+00 7.472743e+00 2.387097e-03 1.010775e-03 4.946224e-03
Al -6.364426e+00 3.590169e+00 -2.711133e+00 2.308674e-03 1.929394e-03 2.826779e-03
Al -3.213421e+00 -1.884118e+00 2.430272e+00 4.855453e-03 -1.199628e-03 4.886231e-03
Al -3.179789e+00 -1.867556e+00 7.486450e+00 4.301643e-04 -4.312195e-05 4.633133e-03
Ga -3.189779e+00 -1.875051e+00 -2.719002e+00 -1.153320e-03 2.828633e-04 7.144438e-04
Ga -1.623041e+00 9.166978e-01 2.429477e+00 -2.142173e-03 -2.926584e-03 8.686346e-04
Al -1.610632e+00 8.813705e-01 7.483797e+00 3.408072e-03 -1.729613e-04 1.173897e-03
Ga -1.607849e+00 8.993581e-01 -2.700845e+00 7.990140e-04 -7.594595e-04 2.404882e-03
Al -3.152270e+00 3.615005e+00 2.412871e+00 -5.203185e-03 1.747273e-03 4.430378e-03
Al -3.189928e+00 3.631744e+00 7.496332e+00 -1.163058e-03 5.171379e-04 3.123121e-03
Ga -3.192627e+00 3.610711e+00 -2.724674e+00 4.279124e-04 1.995681e-03 3.512606e-03
Ga -1.068118e-02 -1.847183e+00 2.456213e+00 2.713874e-03 -7.479757e-04 -1.962108e-03
Al -1.654149e-02 -1.861429e+00 7.496628e+00 -2.158444e-03 -2.442870e-03 1.159102e-04
Ga -1.024908e-02 -1.857422e+00 -2.731223e+00 2.113116e-03 -2.710858e-03 2.749168e-03
Al 1.345085e-02 1.793384e+00 4.969003e+00 -1.169388e-02 1.822960e-03 3.326308e-03
Al 1.581019e-03 1.796922e+00 -5.263315e+00 -9.332647e-03 -4.185469e-03 -2.075184e-03
Al -1.826578e-02 1.789498e+00 -1.423825e-01 2.188549e-03 2.996318e-03 -3.838025e-03
Al 3.156728e+00 -3.701054e+00 4.970689e+00 -8.910975e-04 5.806776e-04 9.615931e-05
Al 3.147317e+00 -3.694397e+00 -5.302158e+00 8.511338e-04 1.687304e-03 4.683985e-03
Al 3.153805e+00 -3.709197e+00 -1.378888e-01 2.466871e-03 1.198426e-03 -1.911195e-03
Ga 1.570443e+00 -9.528313e-01 4.985962e+00 1.560631e-03 -2.040767e-03 -1.332354e-03
Al 1.570560e+00 -9.572701e-01 -5.305710e+00 -9.400472e-05 7.227729e-05 4.028746e-03
Al 1.572438e+00 -9.501130e-01 -1.397860e-01 1.088395e-03 4.482716e-03 2.573510e-03
Al 3.120694e+00 1.786011e+00 4.981454e+00 -1.415829e-03 4.074990e-03 2.371148e-03
Ga 3.130559e+00 1.776251e+00 -5.268568e+00 1.140352e-03 1.660027e-03 2.630724e-03
Al 3.125920e+00 1.771552e+00 -1.255620e-01 1.702310e-04 1.426804e-03 -2.285555e-02
Al 6.313450e+00 -3.696765e+00 4.972158e+00 -1.820085e-03 2.079081e-03 8.425914e-04
Ga 6.301922e+00 -3.696320e+00 -5.282706e+00 1.179285e-03 1.532775e-03 1.993514e-03
Al 6.294149e+00 -3.712448e+00 -1.578637e-01 -1.264197e-03 -1.953831e-03 -1.657585e-03
Ga 4.727153e+00 -9.635871e-01 4.968466e+00 -1.427671e-03 -3.141736e-03 -2.194709e-04
Al 4.717076e+00 -9.498046e-01 -5.278225e+00 -1.835955e-03 -3.289246e-03 1.699826e-03
Ga 4.723567e+00 -9.452014e-01 -1.063481e-01 -2.625214e-03 2.528426e-03 -1.808897e-03
Ga -3.210312e+00 1.809182e+00 4.984515e+00 2.591956e-03 1.887577e-03 5.591957e-06
Ga -3.197889e+00 1.791557e+00 -5.296373e+00 1.212416e-03 2.412019e-04 1.265489e-03
Al -3.199061e+00 1.803191e+00 -1.399855e-01 -3.551219e-03 -6.886817e-04 1.250649e-03
Al -2.607617e-02 -3.685886e+00 4.978799e+00 1.957370e-03 -5.467992e-04 -3.290659e-04
Al -1.143844e-02 -3.678341e+00 -5.291669e+00 1.862233e-03 1.424314e-03 3.216154e-03
Ga -2.259694e-02 -3.698794e+00 -1.361861e-01 -6.749486e-04 -3.375889e-04 2.108067e-03
Al -1.601149e+00 -9.520221e-01 4.989207e+00 -2.545217e-03 -7.542303e-05 -1.061315e-03
Ga -1.592015e+00 -9.456523e-01 -5.297461e+00 -9.642415e-04 4.071127e-04 1.316895e-03
Ga -1.593845e+00 -9.434571e-01 -1.326439e-01 -2.130959e-03 3.820821e-07 5.881160e-03
N 1.559930e+00 9.164463e-01 4.333451e+00 1.429359e-03 6.595408e-04 -1.195561e-03
N 1.518891e+00 8.533273e-01 -5.896906e+00 -5.702456e-04 9.690202e-04 -3.188950e-04
N 1.549313e+00 8.668070e-01 -7.597399e-01 -5.829826e-04 -7.652139e-04 -2.651051e-03
N -1.298317e-02 3.609959e+00 4.363484e+00 8.717072e-05 -1.532398e-03 -5.320011e-03
N -5.270915e-02 3.584443e+00 -5.910040e+00 -1.970739e-03 -1.855455e-03 -1.353029e-03
N -2.885384e-02 3.602474e+00 -7.743890e-01 -6.734174e-04 -6.155318e-04 -1.247133e-03
N 3.143727e+00 -1.921345e+00 4.320390e+00 -2.001510e-04 3.602131e-04 -1.342428e-03
N 3.151076e+00 -1.869056e+00 -5.873083e+00 -2.850797e-04 -1.126485e-03 -6.057722e-04
N 3.112727e+00 -1.890927e+00 -7.335607e-01 2.171384e-04 -1.396790e-03 1.864844e-03
N -4.839445e+00 9.011087e-01 4.339203e+00 5.361495e-03 -1.100861e-03 1.520355e-03
N -4.784170e+00 8.193511e-01 -5.902786e+00 3.217896e-04 3.471502e-03 -7.118573e-03
N -4.776767e+00 9.193112e-01 -7.778605e-01 2.548829e-03 -2.433755e-03 5.189704e-04
N -6.354174e+00 3.600203e+00 4.413465e+00 -1.384782e-04 -3.097709e-05 -5.799141e-04
N -6.296022e+00 3.638688e+00 -5.902997e+00 -5.585741e-03 -4.315316e-03 -9.870765e-03
N -6.394380e+00 3.578360e+00 -7.827396e-01 4.020760e-04 1.377703e-03 2.191746e-03
N -3.139828e+00 -1.887854e+00 4.355019e+00 2.195074e-04 -2.910472e-03 -5.575619e-04
N -3.225449e+00 -1.840003e+00 -5.902270e+00 1.033132e-03 -1.915912e-03 -5.053076e-03
N -3.186435e+00 -1.907555e+00 -7.516036e-01 5.608292e-05 -6.255363e-04 6.061984e-03
N -1.581898e+00 8.643262e-01 4.419067e+00 5.004713e-03 2.244541e-03 -2.578028e-03
N -1.574914e+00 8.988550e-01 -5.923223e+00 7.952362e-03 5.467607e-03 2.915953e-03
N -1.616921e+00 9.286575e-01 -7.178866e-01 2.299101e-03 1.624682e-04 1.821542e-03
N -3.186220e+00 3.671717e+00 4.351976e+00 9.349762e-04 -2.715488e-03 -3.699661e-03
N -3.192464e+00 3.665247e+00 -5.898820e+00 1.744506e-03 1.865019e-04 -1.137009e-03
N -3.150976e+00 3.600204e+00 -7.389856e-01 9.696709e-04 -1.386407e-03 -1.216111e-03
N -5.633273e-02 -1.872656e+00 4.427795e+00 -1.567786e-04 -1.251633e-03 -1.654841e-03
N 1.676413e-02 -1.880919e+00 -5.901933e+00 2.159199e-03 -1.511022e-03 -1.610920e-03
N 2.447188e-02 -1.836638e+00 -7.538683e-01 -6.762326e-04 -1.796168e-03 1.348417e-03
N 1.150055e-02 1.827131e+00 1.780798e+00 1.529627e-03 -6.011239e-03 1.633073e-03
N -2.042613e-02 1.779117e+00 6.892080e+00 2.039120e-03 6.815633e-04 -4.883124e-03
N 1.721616e-02 1.814468e+00 -3.323170e+00 6.795512e-04 -5.473682e-03 -9.187923e-03
N 3.166105e+00 -3.704229e+00 1.789675e+00 1.229050e-03 1.212028e-03 1.301891e-03
N 3.147794e+00 -3.696498e+00 6.900497e+00 1.198112e-03 3.076862e-03 -3.070858e-03
N 3.195171e+00 -3.728198e+00 -3.368804e+00 -1.655950e-03 2.628110e-03 -5.000099e-03
N 1.614779e+00 -9.315760e-01 1.788845e+00 -2.806349e-03 5.826585e-03 3.686772e-03
N 1.575872e+00 -9.570819e-01 6.960874e+00 3.147660e-04 1.873321e-03 -1.205242e-03
N 1.568898e+00 -9.103442e-01 -3.379668e+00 3.622809e-05 5.828901e-03 -1.419922e-03
N 3.166493e+00 1.733469e+00 1.714424e+00 -1.174697e-02 -1.280215e-03 3.110045e-02
N 3.132732e+00 1.777851e+00 6.897460e+00 -2.074097e-03 -8.897737e-04 -1.448263e-03
N 3.134895e+00 1.785746e+00 -3.282010e+00 -2.092644e-03 -1.649208e-03 1.828879e-04
N 6.258057e+00 -3.689209e+00 1.770566e+00 4.219126e-03 6.535870e-03 2.230354e-03
N 6.306032e+00 -3.690848e+00 6.891476e+00 -8.427798e-04 -4.528886e-04 3.723709e-04
N 6.302541e+00 -3.744805e+00 -3.304048e+00 5.576919e-04 3.028971e-04 -1.965751e-04
N 4.695508e+00 -9.455526e-01 1.932209e+00 1.618078e-02 -8.831725e-03 -2.035196e-02
N 4.726053e+00 -9.568867e-01 6.945248e+00 -9.652416e-04 -3.024987e-04 -4.029012e-03
N 4.729668e+00 -9.034302e-01 -3.359185e+00 -7.609943e-04 1.357955e-03 -2.101605e-03
N -3.244837e+00 1.834768e+00 1.781211e+00 -3.367400e-03 -1.189210e-02 7.052320e-03
N -3.197568e+00 1.806661e+00 6.965369e+00 -2.995193e-03 -4.544553e-03 -3.536438e-03
N -3.232355e+00 1.767312e+00 -3.322620e+00 -2.059371e-03 -2.322647e-03 -9.186335e-04
N 2.961353e-02 -3.704692e+00 1.854535e+00 -4.395015e-03 3.145394e-04 -5.582215e-03
N -1.724185e-02 -3.684791e+00 6.893794e+00 -9.091969e-04 1.159376e-06 -1.642873e-03
N -6.523469e-02 -3.711583e+00 -3.370498e+00 -1.439497e-03 -1.414759e-04 6.063608e-04
N -1.658017e+00 -9.632660e-01 1.879443e+00 6.239517e-04 -3.724884e-04 -1.299890e-02
N -1.602027e+00 -9.468744e-01 6.904985e+00 -1.133228e-03 -9.878719e-04 2.051798e-04
N -1.597072e+00 -9.398718e-01 -3.332539e+00 -2.717782e-03 2.742143e-04 -2.459840e-04
