108
Energy=-940194.436164 Lattice="9.457250 0.000000 0.000000 -4.729453 8.185854 0.000000 -0.002830 -0.000203 15.218790" Stress="0.000002 -0.000001 -0.000000 -0.000001 -0.000001 -0.000000 -0.000000 0.000000 0.000006" Properties=species:S:1:pos:R:3:forces:R:3
Al 1.558768 0.876716 2.391449 0.000006 -0.000016 0.000003
Al 1.558004 0.869441 7.473895 0.000042 0.000012 -0.000017
Al 1.558870 0.881187 -2.709232 -0.000014 0.000090 0.000006
Al -0.019448 3.599988 2.372897 0.000101 -0.000064 0.000032
Al -0.029621 3.599375 7.488876 0.000002 0.000026 -0.000007
Al -0.015637 3.592496 -2.701117 0.000039 0.000022 -0.000049
Al 3.135420 -1.859509 2.425899 -0.000005 -0.000089 0.000080
Al 3.130931 -1.856701 7.456778 -0.000022 0.000011 -0.000043
Al 3.134143 -1.852089 -2.720344 0.000081 0.000003 -0.000024
Al -4.762708 0.868229 2.397240 -0.000117 -0.000173 0.000061
Al -4.762362 0.866227 7.474275 -0.000005 0.000007 0.000031
Al -4.759535 0.876498 -2.711741 -0.000095 0.000024 0.000139
Al -6.339276 3.587832 2.401813 -0.000046 -0.000024 -0.000014
Al -6.325326 3.591552 7.470265 0.000009 0.000019 0.000005
Al -6.341782 3.581825 -2.707880 -0.000121 0.000012 0.000107
Al -3.175138 -1.861189 2.406678 -0.000155 -0.000019 -0.000103
Al -3.178554 -1.850753 7.471736 0.000015 0.000050 0.000011
Ga -3.182881 -1.863940 -2.711912 -0.000016 -0.000035 0.000018
Al -1.593637 0.866460 2.391391 -0.000106 0.000040 -0.000150
Al -1.597682 0.865471 7.484311 -0.000046 -0.000007 0.000025
Al -1.595129 0.883039 -2.709257 0.000017 0.000123 -0.000069
Ga -3.165299 3.600486 2.398745 0.000053 -0.000054 -0.000033
Al -3.175701 3.606558 7.473784 0.000016 0.000013 0.000027
Ga -3.166293 3.589575 -2.701997 0.000035 -0.000026 0.000025
Al -0.026732 -1.849709 2.436703 -0.000041 0.000018 0.000043
Al -0.023309 -1.855740 7.457425 0.000012 -0.000053 -0.000040
Ga -0.014805 -1.848301 -2.724262 -0.000019 -0.000018 0.000008
Ga -0.018511 1.775335 4.940070 0.000033 0.000040 0.000029
Al -0.020731 1.779346 -5.228177 0.000002 0.000085 0.000010
Al -0.022550 1.793311 -0.161405 0.000171 0.000020 -0.000057
Al 3.129395 -3.663102 4.953849 -0.000000 0.000023 0.000015
Al 3.136247 -3.673616 -5.240418 -0.000014 0.000068 0.000010
Al 3.150400 -3.681358 -0.157188 -0.000020 -0.000031 0.000052
Al 1.558259 -0.952463 4.935573 -0.000037 0.000054 -0.000012
Al 1.562177 -0.944887 -5.248855 -0.000060 0.000056 0.000055
Ga 1.567458 -0.940087 -0.130945 -0.000058 0.000077 -0.000059
Al 3.131280 1.771328 4.939097 -0.000076 -0.000026 0.000056
Al 3.130247 1.779610 -5.228271 0.000027 0.000012 -0.000002
Al 3.125169 1.786850 -0.161022 -0.000026 0.000074 0.000043
Ga 6.282072 -3.673450 4.941439 0.000015 0.000009 -0.000022
Al 6.284115 -3.683835 -5.246473 0.000030 0.000016 -0.000008
Al 6.275723 -3.701828 -0.139281 -0.000051 0.000056 -0.000020
Al 4.697356 -0.947372 4.933767 -0.000021 -0.000008 0.000016
Al 4.701179 -0.944749 -5.239645 -0.000027 -0.000006 0.000030
Ga 4.696972 -0.944529 -0.138759 -0.000028 -0.000035 -0.000048
Ga -3.186314 1.773129 4.955050 -0.000002 -0.000003 -0.000001
Al -3.175827 1.775207 -5.246060 0.000002 0.000012 -0.000051
Al -3.172393 1.773545 -0.151237 0.000168 0.000058 0.000103
Al -0.026359 -3.669987 4.947392 -0.000100 0.000007 0.000021
Al -0.025640 -3.680794 -5.252025 0.000016 -0.000007 -0.000002
Ga -0.035008 -3.693884 -0.133465 -0.000035 0.000004 -0.000072
Al -1.598622 -0.953184 4.939930 -0.000009 -0.000072 0.000044
Al -1.597777 -0.942747 -5.250162 -0.000048 -0.000006 0.000044
Ga -1.601311 -0.933942 -0.126835 -0.000044 -0.000011 -0.000079
N 1.594560 0.850613 4.309202 0.000028 0.000008 -0.000008
N 1.557006 0.874087 -5.830559 0.000039 0.000007 0.000026
N 1.553003 0.915898 -0.782202 -0.000056 -0.000023 0.000059
N -0.068665 3.622944 4.285604 0.000101 -0.000025 0.000011
N -0.024933 3.596364 -5.825041 -0.000023 -0.000011 0.000008
N -0.019439 3.599043 -0.768625 -0.000003 0.000006 0.000004
N 3.129666 -1.862657 4.345623 -0.000029 -0.000010 0.000028
N 3.132863 -1.858077 -5.847529 0.000004 0.000001 0.000023
N 3.128751 -1.902113 -0.809501 -0.000005 -0.000088 0.000148
N -4.795318 0.850041 4.312658 0.000141 -0.000008 -0.000144
N -4.758051 0.870332 -5.833328 0.000045 0.000026 -0.000003
N -4.752820 0.918882 -0.785354 -0.000030 -0.000102 -0.000222
N -6.290766 3.569987 4.319295 0.000053 0.000126 0.000049
N -6.326022 3.591880 -5.839800 -0.000033 -0.000003 0.000014
N -6.373067 3.575689 -0.786068 0.000105 -0.000056 -0.000141
N -3.177258 -1.812624 4.321335 0.000065 -0.000001 0.000096
N -3.176960 -1.855496 -5.829752 -0.000021 0.000033 0.000022
N -3.174756 -1.908681 -0.738335 -0.000019 -0.000018 -0.000002
N -1.600859 0.828487 4.297774 0.000005 0.000033 0.000046
N -1.593941 0.872896 -5.829766 0.000074 -0.000057 0.000017
N -1.596941 0.918305 -0.785170 -0.000244 -0.000031 0.000095
N -3.172824 3.645850 4.375138 0.000073 -0.000042 -0.000055
N -3.171321 3.602944 -5.828519 0.000007 -0.000044 0.000002
N -3.133525 3.576252 -0.719008 0.000006 0.000032 -0.000046
N -0.024042 -1.856509 4.355443 0.000010 -0.000076 0.000029
N -0.018994 -1.855967 -5.841052 0.000018 -0.000056 0.000034
N -0.019810 -1.856571 -0.764595 0.000029 -0.000108 -0.000008
N -0.021252 1.777658 1.772440 -0.000003 -0.000025 0.000049
N -0.023187 1.780320 6.917333 0.000093 0.000055 -0.000054
N -0.021051 1.780908 -3.304389 0.000004 0.000029 -0.000018
N 3.174755 -3.645191 1.758634 -0.000189 0.000189 -0.000202
N 3.134145 -3.678644 6.870397 0.000017 0.000051 0.000022
N 3.175891 -3.654975 -3.326977 -0.000003 0.000043 -0.000006
N 1.556606 -0.952884 1.855056 0.000021 0.000079 0.000016
N 1.553935 -0.945558 6.859313 -0.000076 0.000063 0.000042
N 1.599954 -0.918415 -3.335798 -0.000067 -0.000057 -0.000150
N 3.129778 1.779779 1.767957 -0.000003 -0.000002 0.000063
N 3.127190 1.777765 6.858316 -0.000024 0.000015 0.000018
N 3.129786 1.779239 -3.310937 -0.000025 -0.000014 0.000032
N 6.286428 -3.680922 1.789769 0.000008 -0.000020 0.000052
N 6.279272 -3.678663 6.920523 -0.000056 -0.000088 -0.000036
N 6.282324 -3.728645 -3.334261 -0.000014 -0.000051 0.000037
N 4.700697 -0.950760 1.843863 0.000116 0.000152 0.000066
N 4.705996 -0.946787 6.857288 -0.000029 -0.000007 -0.000011
N 4.666287 -0.920310 -3.327249 0.000004 -0.000104 -0.000107
N -3.178173 1.727139 1.770086 0.000219 0.000035 -0.000020
N -3.177726 1.776914 6.930611 0.000019 -0.000073 -0.000053
N -3.176486 1.731041 -3.332054 0.000109 0.000028 0.000059
N -0.067853 -3.651331 1.837751 -0.000006 -0.000064 0.000043
N -0.026630 -3.677767 6.868415 -0.000000 0.000009 0.000020
N -0.064367 -3.706617 -3.342500 0.000092 0.000037 -0.000040
N -1.595914 -0.950996 1.848519 0.000062 -0.000021 0.000036
N -1.602129 -0.946547 6.863552 -0.000013 0.000018 0.000006
N -1.601045 -0.897727 -3.347090 -0.000021 -0.000150 -0.000114
