108
Energy=-1.626827e+06 Lattice="9.546888e+00 0.000000e+00 0.000000e+00 -4.784751e+00 8.263484e+00 0.000000e+00 -6.616435e-02 7.040499e-03 1.540114e+01" Stress="1.410399e-03 -9.384257e-04 -2.693821e-03 -9.294532e-04 9.388534e-04 2.937915e-04 -2.698194e-03 2.890733e-04 -1.346205e-03" Properties=species:S:1:pos:R:3:forces:R:3 Config_type=AlGaN_super3_26_0_18.xyz
Al 1.559319e+00 8.688315e-01 2.432599e+00 1.783125e-04 5.161306e-04 5.567507e-04
Al 1.527183e+00 8.876840e-01 7.543000e+00 4.340127e-04 -1.103351e-03 -1.002633e-03
Al 1.588939e+00 8.670957e-01 -2.722036e+00 -4.215978e-05 -2.467682e-04 6.406800e-05
Al -2.977308e-02 3.649094e+00 2.425329e+00 2.955541e-05 1.031193e-04 8.028809e-05
Al -4.137068e-02 3.633833e+00 7.507946e+00 -1.350296e-04 1.990743e-04 -9.915392e-05
Ga -3.645879e-03 3.628067e+00 -2.682155e+00 -2.384719e-04 2.467972e-04 2.034553e-04
Al 3.160915e+00 -1.863634e+00 2.404872e+00 -2.497065e-04 1.155520e-04 2.054445e-04
Ga 3.129602e+00 -1.868287e+00 7.543286e+00 -3.081809e-04 2.335713e-04 -6.495174e-05
Ga 3.186569e+00 -1.854371e+00 -2.698164e+00 -2.844298e-04 9.695151e-05 4.214614e-04
Al -4.814857e+00 8.620230e-01 2.395131e+00 6.006924e-05 -1.660863e-04 -6.372163e-06
Ga -4.847616e+00 8.752318e-01 7.575253e+00 1.684591e-04 -1.422531e-04 5.204930e-04
Al -4.784873e+00 8.611400e-01 -2.713908e+00 5.945958e-05 -1.014295e-04 2.123336e-04
Ga -6.429948e+00 3.636520e+00 2.435668e+00 -6.906743e-05 -1.367671e-04 3.585696e-04
Al -6.441598e+00 3.644322e+00 7.532171e+00 3.665086e-04 2.716715e-04 -4.965807e-04
Ga -6.392968e+00 3.617007e+00 -2.709382e+00 -2.837609e-06 6.471985e-05 4.903797e-04
Al -3.229407e+00 -1.878257e+00 2.396363e+00 -4.898705e-04 -2.252290e-04 1.522996e-04
Al -3.233873e+00 -1.890022e+00 7.546055e+00 9.083285e-06 9.184559e-05 5.455607e-05
Al -3.194938e+00 -1.861329e+00 -2.690055e+00 6.903673e-05 1.886501e-04 2.640961e-04
Ga -1.627924e+00 8.765132e-01 2.409590e+00 -9.242062e-05 6.455988e-06 1.661127e-04
Ga -1.626569e+00 8.783940e-01 7.537672e+00 1.396302e-04 -2.126950e-04 2.085055e-04
Al -1.607640e+00 8.675082e-01 -2.684794e+00 -2.116441e-05 -3.470652e-04 -1.998703e-04
Ga -3.208381e+00 3.634988e+00 2.424813e+00 -5.288385e-05 -1.552783e-04 2.343959e-04
Ga -3.244507e+00 3.651585e+00 7.526198e+00 2.959194e-05 2.682839e-05 -8.005201e-05
Ga -3.187617e+00 3.617164e+00 -2.681022e+00 9.316944e-05 -4.042976e-05 2.987999e-04
Ga -2.275842e-02 -1.855823e+00 2.421944e+00 -2.100824e-04 -1.697178e-04 3.370276e-04
Al -5.015982e-02 -1.870737e+00 7.535140e+00 1.622573e-04 2.027491e-04 -5.914886e-05
Ga -4.940839e-03 -1.846571e+00 -2.696954e+00 2.843901e-05 7.293988e-05 3.579518e-04
Al -3.012892e-02 1.810778e+00 4.971000e+00 -1.787385e-04 -2.405474e-04 -2.077501e-04
Ga 2.157258e-02 1.786167e+00 -5.275663e+00 -2.474112e-04 7.772406e-05 1.530070e-04
Ga -1.978836e-02 1.790013e+00 -1.405512e-01 -1.120868e-04 1.708486e-04 -3.670571e-05
Al 3.154406e+00 -3.704840e+00 4.961477e+00 -4.195745e-04 2.979660e-04 -7.279988e-04
Ga 3.200702e+00 -3.703964e+00 -5.290352e+00 -2.177099e-04 1.065965e-04 2.101703e-04
Al 3.178254e+00 -3.699755e+00 -1.126437e-01 6.236339e-05 -6.175904e-05 1.141559e-04
Al 1.546141e+00 -9.574291e-01 4.977683e+00 -6.374300e-05 -2.363489e-04 6.908403e-04
Al 1.605488e+00 -9.471333e-01 -5.298886e+00 -2.905388e-04 1.513883e-04 -1.922449e-04
Al 1.583425e+00 -9.528837e-01 -1.287942e-01 3.093255e-04 -7.118941e-05 -6.084496e-04
Ga 3.117218e+00 1.798716e+00 4.981932e+00 -2.658452e-05 -2.372152e-04 2.323649e-04
Al 3.171918e+00 1.777619e+00 -5.288255e+00 7.768020e-05 -3.327972e-04 -2.127335e-04
Ga 3.160806e+00 1.773938e+00 -1.365437e-01 6.647925e-05 1.058712e-04 -4.783957e-05
Al 6.314214e+00 -3.711258e+00 4.989865e+00 -3.149402e-04 8.069734e-04 -2.078668e-04
Ga 6.367948e+00 -3.710497e+00 -5.305871e+00 -6.841723e-05 5.931980e-05 2.192822e-04
Al 6.334466e+00 -3.688926e+00 -1.295809e-01 -1.343570e-04 4.035307e-05 4.286331e-04
Ga 4.725627e+00 -9.728140e-01 4.954470e+00 -2.975236e-04 -1.971919e-04 1.335698e-04
Al 4.774362e+00 -9.586448e-01 -5.266028e+00 -1.068349e-04 2.011989e-04 7.292077e-05
Al 4.762767e+00 -9.631814e-01 -1.384391e-01 -1.156626e-04 -8.551052e-05 2.204805e-04
Ga -3.232640e+00 1.806920e+00 4.974735e+00 -5.401077e-05 -4.997101e-05 1.305827e-04
Ga -3.196199e+00 1.783656e+00 -5.254029e+00 1.633891e-04 3.515410e-05 -1.530305e-04
Al -3.206587e+00 1.778807e+00 -1.546331e-01 -1.170996e-04 4.869330e-05 3.701697e-04
Al -4.301988e-02 -3.696798e+00 4.998693e+00 5.849149e-05 -3.159544e-05 2.794292e-04
Ga 7.150495e-04 -3.709049e+00 -5.295894e+00 1.761789e-04 7.986680e-05 2.886728e-05
Ga -1.187419e-02 -3.703781e+00 -1.375664e-01 -2.781947e-06 -1.054159e-04 -3.230181e-04
Ga -1.630759e+00 -9.754455e-01 4.991495e+00 -8.744545e-05 -1.081940e-04 2.332547e-04
Ga -1.592085e+00 -9.678707e-01 -5.280544e+00 -3.266047e-05 8.267000e-05 1.883901e-04
Al -1.628241e+00 -9.585059e-01 -1.532340e-01 -2.415751e-04 7.639510e-05 3.021177e-04
N 1.502080e+00 8.500043e-01 4.349150e+00 3.841134e-04 -2.527113e-05 -8.515822e-04
N 1.630920e+00 8.520311e-01 -5.935147e+00 -2.682229e-05 1.812057e-04 5.659725e-04
N 1.574046e+00 8.258590e-01 -8.091167e-01 1.051682e-05 -4.680136e-05 1.164941e-04
N -4.303189e-02 3.637985e+00 4.360107e+00 -8.304886e-05 1.145964e-04 -3.248712e-04
N -2.337213e-03 3.621728e+00 -5.976701e+00 1.234677e-04 7.934199e-05 7.478755e-05
N -2.533533e-02 3.681109e+00 -7.104784e-01 -1.621402e-05 -1.130525e-05 -2.388993e-04
N 3.092580e+00 -1.894606e+00 4.332771e+00 5.258168e-04 2.350380e-04 -4.212068e-04
N 3.191545e+00 -1.827954e+00 -5.871923e+00 2.557037e-05 -1.013497e-05 -3.066262e-04
N 3.166621e+00 -1.872565e+00 -7.029393e-01 -1.676504e-04 1.165140e-04 8.275308e-05
N -4.825687e+00 8.796540e-01 4.301525e+00 4.667205e-04 -6.953029e-05 -3.485096e-04
N -4.816751e+00 8.487208e-01 -5.848634e+00 1.623981e-04 -3.546252e-05 -3.931354e-05
N -4.758597e+00 8.464880e-01 -7.847841e-01 -2.744897e-04 1.368965e-04 -2.827373e-04
N -6.420747e+00 3.687409e+00 4.415939e+00 3.136756e-04 -1.940224e-04 -4.247252e-04
N -6.370043e+00 3.578500e+00 -5.943726e+00 -8.195386e-05 4.496211e-04 4.035881e-04
N -6.439922e+00 3.650921e+00 -7.323303e-01 2.073666e-04 -1.505803e-04 -6.867462e-04
N -3.222130e+00 -1.925982e+00 4.311709e+00 1.359219e-04 -2.759452e-04 -4.999490e-05
N -3.223883e+00 -1.851815e+00 -5.941971e+00 5.625667e-05 -1.118669e-04 -1.972118e-04
N -3.205689e+00 -1.876181e+00 -7.606851e-01 -1.327995e-04 -1.378782e-05 -1.049872e-04
N -1.594873e+00 8.986530e-01 4.385837e+00 -2.917163e-05 1.720814e-04 -2.342479e-04
N -1.587792e+00 8.807244e-01 -5.896795e+00 2.349860e-04 -1.729527e-04 -7.910865e-05
N -1.649837e+00 8.546512e-01 -7.652051e-01 2.655845e-04 -1.885972e-04 -3.467405e-06
N -3.235564e+00 3.688288e+00 4.405478e+00 5.704427e-04 -3.642450e-04 -1.657240e-04
N -3.182850e+00 3.628772e+00 -5.906598e+00 -1.431478e-05 -8.822494e-05 -1.444938e-04
N -3.156371e+00 3.610632e+00 -7.028436e-01 -3.628144e-04 7.744245e-05 -2.940044e-04
N 4.134913e-05 -1.894445e+00 4.397991e+00 4.993506e-05 3.434973e-04 -1.545494e-04
N 4.953530e-02 -1.849717e+00 -5.942260e+00 -5.848987e-05 -1.750813e-04 3.387199e-05
N -1.154859e-02 -1.817730e+00 -7.165148e-01 -8.604926e-05 -1.930825e-04 -3.473983e-04
N 1.319382e-02 1.822899e+00 1.839544e+00 -1.039370e-04 1.254495e-05 3.529410e-04
N -7.035606e-03 1.822850e+00 6.893281e+00 5.770972e-05 2.503716e-04 5.102060e-04
N -8.543796e-03 1.746669e+00 -3.282923e+00 -1.134210e-05 3.110053e-04 -2.150801e-04
N 3.201685e+00 -3.684645e+00 1.805859e+00 -1.005092e-04 -1.519719e-04 -2.289507e-04
N 3.182150e+00 -3.725849e+00 6.876920e+00 -6.880882e-05 -6.167701e-05 7.178102e-04
N 3.186630e+00 -3.712110e+00 -3.323104e+00 1.001587e-04 1.055015e-04 -2.256638e-04
N 1.604538e+00 -9.251377e-01 1.784836e+00 2.536136e-04 -4.371770e-04 5.079984e-04
N 1.502052e+00 -9.279214e-01 6.903757e+00 2.287185e-04 5.202940e-04 9.911902e-05
N 1.589824e+00 -9.150873e-01 -3.381488e+00 -2.383343e-04 2.153685e-04 -2.967469e-05
N 3.140614e+00 1.750617e+00 1.843505e+00 3.136297e-05 -2.863156e-04 -7.803325e-05
N 3.084682e+00 1.821069e+00 6.960926e+00 -3.416838e-04 -5.236021e-04 -8.615208e-05
N 3.171601e+00 1.744525e+00 -3.353811e+00 -1.463536e-04 2.402515e-04 1.635128e-04
N 6.293508e+00 -3.684955e+00 1.784241e+00 4.957589e-05 -3.150818e-05 2.252496e-05
N 6.314850e+00 -3.703084e+00 6.919883e+00 -2.016968e-05 -1.362724e-04 3.102248e-05
N 6.359782e+00 -3.659133e+00 -3.325395e+00 -1.599333e-05 -2.332585e-04 -3.852372e-04
N 4.745139e+00 -9.571695e-01 1.792454e+00 -2.411941e-04 -5.983149e-05 -6.750930e-05
N 4.765304e+00 -9.768725e-01 6.927462e+00 -1.633598e-04 6.061733e-05 -2.304974e-04
N 4.814489e+00 -9.414470e-01 -3.341228e+00 -1.835998e-04 -2.557224e-05 1.258221e-04
N -3.260876e+00 1.773485e+00 1.763033e+00 3.555057e-04 6.185068e-05 -1.519701e-04
N -3.247159e+00 1.792031e+00 6.934068e+00 1.183228e-04 5.224729e-05 -1.473208e-04
N -3.191949e+00 1.745861e+00 -3.275075e+00 8.798824e-05 1.030889e-04 -1.245572e-04
N -3.241826e-02 -3.710666e+00 1.816722e+00 3.161384e-04 1.155675e-04 1.951849e-04
N -9.576457e-02 -3.681617e+00 6.919388e+00 3.765705e-04 -1.826257e-04 -5.132027e-05
N -1.180517e-03 -3.708589e+00 -3.318039e+00 -2.277238e-04 -7.887326e-05 -1.472330e-04
N -1.666292e+00 -9.829074e-01 1.763818e+00 4.767885e-04 1.508827e-04 -2.848028e-04
N -1.647294e+00 -1.008708e+00 6.968443e+00 -1.105749e-04 2.149296e-04 -1.624840e-04
N -1.641444e+00 -9.384185e-01 -3.291848e+00 -9.331474e-05 4.155176e-05 -1.555423e-04
