108
Energy=-1.626827e+06 Lattice="9.539359e+00 0.000000e+00 0.000000e+00 -4.769430e+00 8.260915e+00 0.000000e+00 -1.619424e-02 2.022374e-03 1.541452e+01" Stress="-3.921108e-05 1.157900e-05 -6.363431e-04 1.988691e-05 2.000464e-04 4.646719e-05 -6.450100e-04 4.055900e-05 -1.500799e-04" Properties=species:S:1:pos:R:3:forces:R:3 Config_type=AlGaN_super3_26_0_40.xyz
Al 1.568971e+00 8.669961e-01 2.436353e+00 -2.430222e-04 4.615671e-04 -1.490121e-04
Al 1.554877e+00 8.830789e-01 7.547819e+00 -1.455234e-04 -2.678961e-04 -1.566118e-04
Al 1.576501e+00 8.695667e-01 -2.723583e+00 -5.156553e-05 1.063923e-05 7.789950e-05
Al -1.920485e-02 3.648232e+00 2.427958e+00 6.978946e-04 -7.497108e-04 1.356937e-05
Al -1.045678e-02 3.631744e+00 7.514783e+00 -1.976059e-05 -6.830486e-07 -1.749217e-05
Ga -1.138475e-02 3.631311e+00 -2.683566e+00 -3.309347e-05 -6.909617e-07 3.127176e-05
Al 3.162419e+00 -1.864613e+00 2.409062e+00 -2.848894e-04 6.511439e-05 -9.044514e-04
Ga 3.149213e+00 -1.869140e+00 7.550270e+00 -1.318249e-04 9.582649e-05 8.148491e-05
Ga 3.166508e+00 -1.850195e+00 -2.697822e+00 -1.236182e-05 -2.689815e-05 1.882019e-06
Al -4.799875e+00 8.587555e-01 2.396411e+00 -8.351320e-05 2.827786e-05 -5.204599e-06
Ga -4.814724e+00 8.715232e-01 7.585269e+00 -3.181804e-05 -8.436839e-06 5.128059e-05
Al -4.791480e+00 8.624723e-01 -2.716002e+00 1.221801e-04 1.881399e-04 4.002023e-04
Ga -6.410989e+00 3.632082e+00 2.440668e+00 -5.783191e-05 -9.954852e-05 -6.222773e-05
Al -6.404097e+00 3.640850e+00 7.535350e+00 -8.669171e-05 1.535777e-05 5.195610e-04
Ga -6.394659e+00 3.618072e+00 -2.710634e+00 -3.940608e-05 1.487904e-05 5.150872e-05
Al -3.221841e+00 -1.880712e+00 2.397300e+00 -3.350573e-04 1.664244e-04 5.528573e-04
Al -3.209007e+00 -1.891691e+00 7.552735e+00 -2.004145e-05 -1.171231e-05 1.818959e-05
Al -3.207137e+00 -1.858800e+00 -2.690340e+00 -1.562071e-06 -1.886609e-05 3.366593e-05
Ga -1.616863e+00 8.737265e-01 2.413157e+00 8.362012e-05 6.614375e-05 -3.436719e-05
Ga -1.595675e+00 8.750626e-01 7.546012e+00 -1.116647e-05 -2.666033e-05 4.204041e-05
Al -1.615798e+00 8.676837e-01 -2.687625e+00 -3.871949e-05 2.503693e-05 4.819442e-05
Ga -3.192522e+00 3.630248e+00 2.427919e+00 -1.295984e-04 -3.837301e-05 -6.617656e-05
Ga -3.209612e+00 3.647305e+00 7.533462e+00 -6.429054e-05 2.857154e-05 9.102567e-05
Ga -3.191238e+00 3.617382e+00 -2.682584e+00 -4.197252e-05 -1.165920e-05 5.449572e-05
Ga -1.830947e-02 -1.858090e+00 2.426612e+00 2.392277e-05 5.312110e-05 -1.632303e-05
Al -2.714659e-02 -1.872640e+00 7.541760e+00 4.327342e-05 1.278986e-04 -4.532846e-08
Ga -1.972118e-02 -1.845010e+00 -2.697876e+00 -6.138632e-05 -1.669134e-06 2.079465e-05
Al -1.023090e-02 1.808552e+00 4.974918e+00 4.204891e-04 -2.130498e-04 -1.081019e-04
Ga 5.680871e-03 1.790589e+00 -5.279251e+00 -5.535757e-05 -1.568941e-05 4.558424e-05
Ga -2.111536e-02 1.790168e+00 -1.395554e-01 1.102257e-05 -4.983720e-05 1.233189e-04
Al 3.161564e+00 -3.703543e+00 4.964571e+00 4.691534e-04 4.168608e-05 -6.545813e-06
Ga 3.173356e+00 -3.697891e+00 -5.293992e+00 -5.310276e-05 2.385708e-06 2.600226e-05
Al 3.167000e+00 -3.699233e+00 -1.120185e-01 -6.181432e-05 -6.349099e-05 -4.470999e-05
Al 1.562322e+00 -9.603548e-01 4.981550e+00 -6.949063e-04 5.323674e-04 7.970730e-04
Al 1.582355e+00 -9.423060e-01 -5.303701e+00 -5.976315e-05 -2.990571e-05 -2.828795e-05
Al 1.578181e+00 -9.535697e-01 -1.295929e-01 -3.869931e-04 3.349508e-04 3.813131e-04
Ga 3.137258e+00 1.794015e+00 4.987287e+00 -1.394629e-04 -1.021790e-04 -4.381070e-05
Al 3.154161e+00 1.779854e+00 -5.292847e+00 -2.402360e-05 6.383615e-05 -3.263656e-05
Ga 3.157890e+00 1.773621e+00 -1.366004e-01 -9.966105e-05 -5.662048e-06 6.544205e-05
Al 6.320636e+00 -3.711215e+00 4.992649e+00 -1.552150e-04 4.721412e-04 1.536787e-05
Ga 6.339536e+00 -3.705951e+00 -5.309595e+00 1.768961e-07 -2.023269e-05 2.956386e-05
Al 6.321564e+00 -3.688176e+00 -1.272266e-01 -2.680118e-05 -9.239095e-05 4.861597e-06
Ga 4.737327e+00 -9.743625e-01 4.958924e+00 2.290675e-04 -1.945651e-05 9.183797e-05
Al 4.749964e+00 -9.553220e-01 -5.268375e+00 -4.287790e-05 -2.640592e-05 -2.229867e-05
Al 4.753754e+00 -9.632946e-01 -1.367506e-01 -1.249515e-04 1.695329e-08 -9.827438e-05
Ga -3.208736e+00 1.803133e+00 4.981024e+00 -2.704134e-05 -8.293677e-05 4.447387e-05
Ga -3.207068e+00 1.785761e+00 -5.258310e+00 -4.322496e-05 7.813863e-06 2.703903e-05
Al -3.204570e+00 1.776659e+00 -1.540720e-01 3.274287e-04 3.750681e-04 4.066226e-05
Al -2.899887e-02 -3.698491e+00 5.003977e+00 -9.758634e-05 6.626704e-05 1.541624e-05
Ga -2.211382e-02 -3.705524e+00 -5.299948e+00 -9.560846e-05 -4.136255e-06 -6.080182e-06
Ga -2.026973e-02 -3.703454e+00 -1.373192e-01 -2.645812e-05 -2.882565e-05 -5.683228e-06
Ga -1.613917e+00 -9.772371e-01 4.997282e+00 -1.005713e-04 -5.327871e-05 1.506749e-05
Ga -1.611302e+00 -9.657385e-01 -5.283957e+00 -3.079149e-05 -1.920198e-05 2.167331e-05
Al -1.631599e+00 -9.586071e-01 -1.514424e-01 4.516916e-05 4.245928e-05 -7.535091e-06
N 1.522302e+00 8.464541e-01 4.350557e+00 -3.425267e-04 4.001230e-04 1.257735e-04
N 1.612633e+00 8.556112e-01 -5.940454e+00 -8.128120e-06 5.211898e-05 -1.380902e-05
N 1.570154e+00 8.255049e-01 -8.097106e-01 1.240642e-04 -4.362553e-05 -5.162026e-05
N -2.274331e-02 3.636129e+00 4.362160e+00 9.814970e-05 7.785457e-05 -5.035983e-05
N -1.619739e-02 3.624975e+00 -5.982366e+00 4.576402e-05 6.413286e-06 -4.855533e-05
N -2.336596e-02 3.680427e+00 -7.117808e-01 5.346217e-05 6.168311e-05 -2.413031e-05
N 3.104844e+00 -1.892893e+00 4.333903e+00 4.914590e-04 -9.092175e-04 3.290900e-04
N 3.166956e+00 -1.823006e+00 -5.878527e+00 8.518816e-05 -1.031766e-05 9.104797e-06
N 3.156187e+00 -1.872046e+00 -7.030209e-01 5.353729e-04 -9.944397e-05 -5.109868e-05
N -4.799556e+00 8.765488e-01 4.302679e+00 -1.028350e-05 3.696900e-05 -2.156504e-05
N -4.828139e+00 8.509952e-01 -5.852960e+00 5.207281e-05 -2.531218e-05 -2.560773e-05
N -4.756568e+00 8.463332e-01 -7.852045e-01 -3.654196e-04 -2.190095e-04 -4.851200e-04
N -6.391936e+00 3.682875e+00 4.420016e+00 1.554013e-04 -9.517097e-05 -1.053362e-04
N -6.377837e+00 3.581282e+00 -5.949672e+00 -4.512172e-05 1.075834e-05 -2.361669e-04
N -6.432512e+00 3.649398e+00 -7.349053e-01 1.356115e-05 1.410604e-05 -4.037277e-05
N -3.204633e+00 -1.927237e+00 4.313594e+00 -3.725188e-05 -3.075234e-04 3.325425e-06
N -3.243236e+00 -1.848378e+00 -5.948335e+00 2.884192e-05 5.679016e-07 -4.674706e-05
N -3.209796e+00 -1.876033e+00 -7.606057e-01 -3.352238e-06 -1.235395e-05 -5.277355e-06
N -1.573791e+00 8.958403e-01 4.388652e+00 -6.830011e-05 -2.898828e-05 2.051748e-05
N -1.601155e+00 8.816825e-01 -5.902173e+00 5.262526e-05 1.241093e-05 -4.153834e-05
N -1.649565e+00 8.529070e-01 -7.668304e-01 3.719145e-05 -2.642737e-05 -7.911447e-05
N -3.208394e+00 3.682872e+00 4.408035e+00 -1.418289e-04 6.346346e-05 1.437020e-05
N -3.192733e+00 3.629515e+00 -5.912788e+00 7.377500e-05 7.642622e-06 -4.258215e-05
N -3.152747e+00 3.608698e+00 -7.050508e-01 4.868343e-05 -9.970646e-05 3.704166e-05
N 1.510405e-02 -1.895825e+00 4.402043e+00 4.876904e-05 -7.910132e-05 -8.523484e-06
N 2.808618e-02 -1.847450e+00 -5.948698e+00 3.788635e-05 1.468532e-05 -4.444340e-06
N -1.779846e-02 -1.818650e+00 -7.185235e-01 4.667928e-05 1.068759e-05 2.124264e-05
N 2.175845e-02 1.821058e+00 1.841715e+00 5.793031e-05 2.412922e-04 2.182785e-04
N 2.078720e-02 1.821091e+00 6.899072e+00 6.209765e-05 5.870999e-05 8.690540e-05
N -1.980029e-02 1.750932e+00 -3.286584e+00 3.308378e-05 -9.352950e-06 -3.636009e-05
N 3.199204e+00 -3.685984e+00 1.805790e+00 -3.382104e-04 5.408432e-04 1.207438e-04
N 3.198263e+00 -3.725803e+00 6.883070e+00 -1.284895e-04 8.088429e-05 -1.257926e-04
N 3.164731e+00 -3.706346e+00 -3.326872e+00 5.535697e-05 1.852571e-06 -2.670849e-05
N 1.606940e+00 -9.264923e-01 1.787555e+00 2.257172e-04 -5.092184e-04 -1.530407e-04
N 1.523415e+00 -9.293416e-01 6.908804e+00 9.603182e-05 1.395355e-04 -2.534559e-04
N 1.571197e+00 -9.109042e-01 -3.385207e+00 3.833607e-05 7.991996e-07 -3.064170e-05
N 3.148210e+00 1.747455e+00 1.844096e+00 1.093436e-04 8.105693e-06 -3.025923e-05
N 3.110231e+00 1.815969e+00 6.966186e+00 4.414856e-05 -3.604054e-05 -7.043730e-05
N 3.157927e+00 1.746915e+00 -3.356849e+00 2.035475e-05 -6.471249e-06 5.000240e-05
N 6.289732e+00 -3.686059e+00 1.786753e+00 2.544950e-05 -1.651021e-04 -1.714436e-04
N 6.329074e+00 -3.703900e+00 6.923628e+00 2.275364e-06 -3.609313e-06 2.520220e-05
N 6.336124e+00 -3.655610e+00 -3.329527e+00 3.042790e-05 1.030650e-05 -2.962768e-05
N 4.745093e+00 -9.595862e-01 1.793565e+00 -1.165974e-04 -6.957162e-05 -6.984609e-05
N 4.783304e+00 -9.784524e-01 6.931448e+00 2.106006e-05 -3.774851e-05 -6.189510e-05
N 4.794229e+00 -9.391463e-01 -3.342860e+00 4.704010e-05 -1.300158e-04 -4.528900e-05
N -3.247525e+00 1.770657e+00 1.763061e+00 -5.700042e-05 1.158249e-05 -1.488074e-07
N -3.216521e+00 1.788723e+00 6.940192e+00 4.199565e-05 4.729558e-06 -5.057752e-05
N -3.199196e+00 1.747286e+00 -3.279022e+00 2.304853e-05 -3.986970e-05 -2.829292e-05
N -3.052099e-02 -3.711507e+00 1.818636e+00 2.514939e-05 -3.298784e-05 5.281533e-06
N -7.452472e-02 -3.683116e+00 6.924561e+00 1.303090e-04 -3.084542e-05 -2.020926e-04
N -1.988184e-02 -3.705731e+00 -3.322150e+00 3.808207e-05 -1.238426e-05 -1.616116e-05
N -1.659981e+00 -9.842666e-01 1.765327e+00 2.426552e-04 8.831489e-06 -2.556283e-04
N -1.623828e+00 -1.010105e+00 6.973651e+00 3.978079e-05 -1.486349e-05 -6.423903e-06
N -1.655500e+00 -9.366769e-01 -3.295570e+00 2.179975e-05 -1.918406e-05 -3.953191e-05
