108
Energy=-802867.897179 Lattice="9.458475 0.000000 0.000000 -4.736831 8.177912 0.000000 -0.003392 0.006728 15.211742" Stress="0.000033 0.000004 -0.000001 0.000004 0.000022 -0.000001 -0.000001 -0.000001 0.000043" Properties=species:S:1:pos:R:3:forces:R:3
Al 1.557118 0.873033 2.383902 0.000032 0.004731 0.001511
Al 1.550223 0.878160 7.460267 0.000329 0.000323 -0.000014
Al 1.554562 0.869930 -2.703421 0.001483 -0.001916 0.000854
Al -0.003345 3.583489 2.392870 0.002162 -0.005359 0.003686
Al -0.024555 3.590247 7.465185 0.000851 0.000052 -0.000426
Al -0.011131 3.588229 -2.698592 -0.000621 0.001469 -0.000106
Al 3.144954 -1.887115 2.405828 -0.001086 0.008474 0.000274
Al 3.134435 -1.856094 7.457756 -0.000691 0.002138 -0.000404
Al 3.139809 -1.874544 -2.706869 -0.000254 0.010186 0.005288
Al -4.760132 0.879355 2.401966 0.000823 0.000473 0.000629
Al -4.767663 0.880606 7.450644 0.001096 -0.002285 -0.000447
Al -4.759224 0.879895 -2.693279 -0.000143 -0.001511 -0.006281
Al -6.328793 3.596172 2.384434 0.003323 0.000518 0.001038
Al -6.343575 3.592335 7.457650 -0.000341 0.000543 0.001099
Al -6.342152 3.596259 -2.693887 0.000824 -0.001011 0.000152
Al -3.180001 -1.863150 2.393676 0.000726 0.000167 -0.000232
Al -3.188323 -1.864152 7.460532 0.000217 0.001316 0.000846
Al -3.159998 -1.863293 -2.693033 -0.001293 0.000641 0.000116
Al -1.612949 0.876117 2.379570 0.001757 0.000307 -0.000994
Al -1.616936 0.894325 7.468973 0.001016 -0.000298 -0.000042
Al -1.611170 0.873557 -2.697815 0.002616 -0.001112 0.000827
Al -3.184892 3.581808 2.401858 0.004169 -0.009961 0.001412
Al -3.195576 3.593531 7.469885 0.001720 0.000253 0.000442
Ga -3.185045 3.603221 -2.687862 0.002384 -0.000241 0.000463
Ga 0.001813 -1.857903 2.392281 -0.000262 0.001973 -0.000363
Ga -0.027629 -1.844731 7.470386 0.002598 0.000783 -0.001673
Al -0.027757 -1.846201 -2.696692 0.002808 0.000097 0.000924
Al -0.018490 1.777748 4.926305 -0.001791 -0.000756 0.000434
Al -0.024345 1.771761 -5.227785 -0.001452 0.000126 0.000801
Al -0.013673 1.766675 -0.159940 -0.003132 0.000066 -0.000227
Ga 3.137653 -3.681500 4.933988 -0.002669 -0.001281 -0.002154
Al 3.135902 -3.688811 -5.235438 -0.000508 0.001665 0.001085
Ga 3.146928 -3.684914 -0.116117 -0.002132 -0.000781 0.001298
Al 1.576035 -0.934409 4.922854 -0.000223 0.002246 0.002026
Al 1.562827 -0.955142 -5.216549 -0.001507 0.002348 0.001207
Al 1.563585 -0.940070 -0.173903 -0.002709 0.001195 0.003234
Al 3.118805 1.782281 4.924363 -0.000664 0.000016 0.000309
Al 3.120062 1.785653 -5.230014 -0.000563 -0.000439 0.001404
Al 3.119409 1.791443 -0.149807 0.002543 -0.002356 -0.003876
Al 6.288297 -3.681699 4.926605 0.000402 0.000679 0.001022
Al 6.291848 -3.684318 -5.225496 -0.000677 0.000095 0.001089
Al 6.304083 -3.680875 -0.154607 -0.002231 0.001590 -0.000820
Al 4.706539 -0.943952 4.928654 0.000227 0.001181 0.000046
Ga 4.714596 -0.955329 -5.217944 -0.001257 0.002361 0.001559
Ga 4.721978 -0.931880 -0.156891 -0.001278 0.000833 0.001344
Al -3.199244 1.784555 4.931267 0.001435 0.000021 -0.000693
Al -3.185636 1.784255 -5.235229 -0.000315 -0.000154 0.001437
Al -3.181205 1.778575 -0.140056 -0.001195 -0.001886 -0.002152
Al -0.030568 -3.694197 4.934534 0.002879 0.003273 -0.002118
Al -0.030527 -3.672962 -5.220131 0.000093 -0.000628 0.000062
Al -0.035791 -3.669273 -0.144905 0.003964 -0.000443 -0.000627
Ga -1.602239 -0.938671 4.932753 -0.000414 0.002089 -0.000583
Al -1.592681 -0.943751 -5.217578 -0.002010 0.001747 0.000061
Al -1.588931 -0.945099 -0.158737 -0.001724 0.001611 -0.001302
N 1.547389 0.876672 4.316734 0.000989 -0.000486 -0.002032
N 1.547784 0.867420 -5.825609 0.001101 -0.001581 -0.000322
N 1.553231 0.873862 -0.773659 0.001824 -0.000267 0.000133
N 0.012215 3.574108 4.314808 0.004648 -0.002281 -0.001730
N -0.020560 3.588476 -5.827954 -0.000233 -0.000203 0.000974
N 0.013173 3.575080 -0.773206 0.003043 -0.001630 -0.000349
N 3.137207 -1.823583 4.319722 -0.000083 0.003297 -0.002233
N 3.104292 -1.878984 -5.840133 -0.003712 -0.002093 -0.001642
N 3.108097 -1.845458 -0.786838 -0.002135 -0.000211 0.000188
N -4.766911 0.876210 4.330513 0.001028 -0.000683 0.000058
N -4.765774 0.908652 -5.844390 0.001183 0.002269 -0.002202
N -4.754569 0.922516 -0.814960 -0.001397 0.003537 0.015393
N -6.337583 3.598775 4.316958 0.000360 -0.000027 -0.001726
N -6.336777 3.595794 -5.830930 0.000744 -0.000052 -0.001109
N -6.334910 3.599859 -0.765910 0.001714 -0.000217 0.001619
N -3.203386 -1.877297 4.311025 -0.003611 -0.002399 -0.001380
N -3.139670 -1.880573 -5.835266 0.004001 -0.002139 -0.001170
N -3.135915 -1.876620 -0.776851 0.003954 -0.002514 0.000392
N -1.616695 0.924497 4.304449 0.002812 0.001100 -0.002190
N -1.614378 0.879471 -5.823636 0.003068 -0.001544 0.000090
N -1.610997 0.878830 -0.767224 0.002674 -0.001218 0.001675
N -3.218316 3.573636 4.291895 -0.004387 -0.000803 0.009358
N -3.192613 3.600081 -5.821605 0.001385 -0.000041 0.000616
N -3.212002 3.577373 -0.719724 -0.002322 0.001576 0.001130
N 0.025969 -1.861889 4.368183 -0.000651 -0.006741 -0.000701
N -0.021413 -1.850909 -5.778619 0.001383 -0.000708 0.004238
N -0.021690 -1.849065 -0.760277 0.001969 -0.001744 0.000563
N -0.020393 1.773924 1.769306 -0.000334 -0.002136 0.000621
N -0.026665 1.777587 6.858088 -0.001637 -0.000197 -0.000803
N -0.021396 1.771461 -3.302767 -0.002261 0.000849 0.000756
N 3.137356 -3.733931 1.898648 0.004390 0.017090 -0.012972
N 3.131379 -3.681720 6.903109 -0.001765 0.000215 0.004051
N 3.178588 -3.637491 -3.305935 0.001473 -0.012077 -0.005981
N 1.608899 -0.903709 1.765172 0.003370 -0.010964 -0.004269
N 1.590147 -0.915831 6.833626 0.002924 -0.001251 0.002126
N 1.570426 -0.958925 -3.295131 -0.003400 0.002474 0.000548
N 3.127829 1.785667 1.776999 0.000864 0.000011 0.000449
N 3.118118 1.786016 6.852205 -0.000198 -0.000484 -0.001483
N 3.126635 1.781762 -3.305433 -0.000875 0.000491 -0.000120
N 6.292778 -3.674084 1.774214 0.000796 -0.000132 -0.000162
N 6.282318 -3.675179 6.853345 -0.000183 -0.000175 -0.000711
N 6.290409 -3.676635 -3.302638 -0.000384 -0.000064 -0.000115
N 4.714168 -0.937581 1.841229 -0.002845 -0.004971 -0.002730
N 4.708900 -0.949957 6.859008 -0.001592 0.001539 -0.001191
N 4.712841 -0.950693 -3.244518 0.001668 0.001026 0.001608
N -3.186190 1.778403 1.777810 -0.000770 -0.004608 0.000662
N -3.189728 1.786372 6.857422 0.000017 0.000543 -0.001278
N -3.181223 1.750297 -3.320137 0.000359 -0.004057 -0.002087
N 0.037808 -3.722956 1.784642 -0.021993 0.003319 -0.008064
N -0.030254 -3.704956 6.850508 0.000500 -0.004522 -0.002048
N -0.057058 -3.653348 -3.307049 -0.003810 0.002120 -0.000237
N -1.632557 -0.951144 1.765216 0.000277 0.006570 0.000926
N -1.645830 -0.914300 6.893710 -0.001845 0.000782 0.001964
N -1.594812 -0.944204 -3.296590 -0.001432 0.001242 0.000450
