108
Energy=-1.306398e+06 Lattice="9.494231e+00 0.000000e+00 0.000000e+00 -4.748047e+00 8.219723e+00 0.000000e+00 -2.030158e-03 -7.795810e-04 1.532132e+01" Stress="-1.632006e-03 -2.687800e-04 -1.686637e-05 -2.674858e-04 -2.246935e-03 1.331014e-05 -1.717064e-05 1.962270e-05 -1.078498e-03" Properties=species:S:1:pos:R:3:forces:R:3 Config_type=AlGaN_super3_19_2_12.xyz
Al 1.562339e+00 8.744745e-01 2.437542e+00 7.287272e-04 5.604242e-04 4.244059e-04
Al 1.558843e+00 8.673404e-01 7.479909e+00 5.428708e-06 -2.804248e-05 3.529680e-05
Al 1.560252e+00 8.690000e-01 -2.706500e+00 1.749544e-04 -1.489186e-04 -1.987491e-04
Al -1.792250e-02 3.606747e+00 2.422062e+00 -1.356188e-03 3.592618e-04 1.706616e-04
Al -1.142238e-02 3.607774e+00 7.495051e+00 -8.361672e-04 3.211609e-04 -1.114624e-03
Al -2.425282e-02 3.609367e+00 -2.694147e+00 -1.647188e-04 1.554329e-04 -7.184892e-05
Al 3.155641e+00 -1.856505e+00 2.398898e+00 -2.319601e-03 -5.416240e-04 8.183520e-04
Al 3.141310e+00 -1.853344e+00 7.535550e+00 -2.314606e-04 -1.248915e-04 -2.362226e-04
Ga 3.148883e+00 -1.861058e+00 -2.721218e+00 -1.958490e-04 1.371100e-04 7.973929e-05
Al -4.779517e+00 8.748103e-01 2.407980e+00 -1.598154e-04 -1.293336e-03 -2.958175e-04
Al -4.771106e+00 8.718603e-01 7.504380e+00 2.353637e-06 6.119126e-05 -3.739279e-05
Al -4.775305e+00 8.683885e-01 -2.696985e+00 2.483628e-04 -3.559040e-05 1.360363e-04
Ga -6.368732e+00 3.594056e+00 2.406780e+00 8.752179e-05 1.958512e-04 -3.137665e-04
Al -6.368307e+00 3.606107e+00 7.494265e+00 -1.098631e-04 -1.179727e-04 2.200715e-04
Ga -6.358266e+00 3.601098e+00 -2.674954e+00 -2.303212e-04 8.679341e-05 5.348193e-05
Ga -3.195224e+00 -1.861650e+00 2.408127e+00 -2.981613e-04 -1.224738e-04 5.133307e-04
Al -3.180727e+00 -1.864937e+00 7.504541e+00 -1.634204e-04 1.201098e-04 1.215478e-04
Ga -3.184145e+00 -1.855899e+00 -2.696629e+00 -2.217996e-05 2.918232e-04 1.106130e-04
Al -1.612332e+00 8.715048e-01 2.420608e+00 -1.936157e-04 2.089519e-03 1.003825e-03
Al -1.609545e+00 8.687992e-01 7.498463e+00 4.637160e-04 -2.071246e-04 4.142275e-04
Ga -1.608071e+00 8.711693e-01 -2.705159e+00 5.313394e-04 -4.029390e-04 -7.797590e-05
Ga -3.174688e+00 3.605638e+00 2.400497e+00 9.232814e-05 -2.523796e-04 -4.086658e-04
Ga -3.182452e+00 3.602749e+00 7.522406e+00 1.091807e-04 -2.483978e-04 -5.092830e-05
Ga -3.178467e+00 3.611247e+00 -2.694992e+00 4.054014e-05 -2.667976e-04 1.301428e-04
Ga -2.054670e-02 -1.843908e+00 2.428922e+00 3.972979e-04 -3.045877e-04 2.059527e-04
Al -2.259981e-02 -1.840060e+00 7.504735e+00 2.286219e-04 -3.324705e-04 -2.028411e-04
Al -2.318205e-02 -1.847326e+00 -2.705931e+00 3.318274e-05 1.964300e-05 -3.528946e-04
Al -2.247188e-02 1.777203e+00 4.953575e+00 -2.585851e-04 2.124309e-04 -1.446148e-04
Ga -3.206245e-02 1.779261e+00 -5.275723e+00 9.591938e-05 1.386889e-04 2.239411e-04
Ga -2.306071e-02 1.795072e+00 -1.283498e-01 -2.084973e-04 -5.826983e-05 6.140508e-04
Ga 3.156616e+00 -3.688648e+00 4.967536e+00 8.914959e-05 1.553245e-04 -1.827557e-06
Al 3.151900e+00 -3.688376e+00 -5.274658e+00 2.331091e-05 2.111574e-04 1.001110e-04
Al 3.156937e+00 -3.694707e+00 -1.341837e-01 -1.362729e-04 3.344141e-04 5.293165e-04
Al 1.563994e+00 -9.389965e-01 4.971088e+00 2.479116e-06 4.692219e-05 -1.317073e-04
Al 1.558932e+00 -9.551478e-01 -5.271197e+00 -8.340942e-05 1.120856e-04 1.769341e-04
Ga 1.565771e+00 -9.548814e-01 -1.447995e-01 -4.148623e-04 5.366423e-05 6.396457e-04
Al 3.134740e+00 1.780300e+00 4.971002e+00 1.467610e-04 -3.960446e-04 2.358423e-04
Ga 3.149849e+00 1.764624e+00 -5.270540e+00 2.798445e-04 5.662159e-05 3.736809e-04
Al 3.151441e+00 1.778397e+00 -1.450136e-01 2.281800e-04 -1.346938e-04 1.111631e-04
Al 6.304873e+00 -3.702396e+00 4.982691e+00 -9.690306e-05 -6.095558e-05 -4.896598e-07
Ga 6.294193e+00 -3.681240e+00 -5.275221e+00 2.801847e-04 1.315599e-04 4.528262e-04
Al 6.299112e+00 -3.689880e+00 -1.469349e-01 1.811682e-04 -9.117638e-05 7.578122e-06
Ga 4.722347e+00 -9.424971e-01 4.976037e+00 -2.684615e-04 -2.438740e-04 2.139993e-04
Al 4.731587e+00 -9.437950e-01 -5.289963e+00 -7.701133e-05 3.444078e-05 -3.149251e-04
Al 4.732386e+00 -9.425496e-01 -1.353215e-01 -2.089312e-04 2.839558e-05 6.142207e-05
Al -3.187768e+00 1.766481e+00 4.958672e+00 6.561254e-04 8.877831e-04 3.195492e-05
Al -3.193143e+00 1.773487e+00 -5.265568e+00 1.175038e-03 -1.638227e-03 -5.114421e-04
Al -3.204350e+00 1.778099e+00 -1.364985e-01 1.148186e-04 -6.886651e-05 2.643873e-04
Ga -3.744249e-02 -3.689228e+00 4.988847e+00 5.244820e-04 -1.076738e-04 3.429977e-04
Ga -1.657442e-02 -3.673536e+00 -5.269994e+00 -7.046735e-05 1.879025e-04 3.636084e-04
Al -2.743543e-02 -3.688003e+00 -1.549376e-01 2.314855e-04 -6.515123e-05 7.700257e-05
Al -1.602894e+00 -9.370098e-01 4.986216e+00 -4.305983e-04 4.286803e-05 -2.704608e-04
Al -1.604478e+00 -9.449536e-01 -5.287777e+00 -3.246673e-05 -6.338462e-04 -8.239774e-05
Al -1.611794e+00 -9.545324e-01 -1.412620e-01 -3.640008e-05 -1.833536e-04 3.667564e-04
N 1.562544e+00 8.742892e-01 4.364876e+00 1.430038e-04 -2.405190e-05 7.082426e-06
N 1.559316e+00 8.260527e-01 -5.927850e+00 -1.405764e-04 -1.100920e-04 -1.735248e-04
N 1.595545e+00 8.967453e-01 -7.971914e-01 1.948771e-04 1.924264e-04 2.411103e-04
N 2.120338e-02 3.590146e+00 4.339092e+00 7.511226e-05 1.027748e-04 1.268669e-04
N -6.003995e-02 3.629722e+00 -5.927265e+00 -1.953796e-04 6.347518e-05 4.243903e-04
N -2.606430e-02 3.656454e+00 -7.804442e-01 -6.673997e-05 -1.556507e-04 4.670399e-04
N 3.105257e+00 -1.839658e+00 4.311856e+00 1.645215e-04 1.439563e-05 -7.510818e-04
N 3.140108e+00 -1.862157e+00 -5.860984e+00 -4.849093e-05 -1.318781e-04 9.527807e-05
N 3.190240e+00 -1.890562e+00 -7.385991e-01 -1.871436e-04 8.858364e-05 1.368989e-04
N -4.774125e+00 9.221067e-01 4.331427e+00 -7.436516e-04 -2.477901e-05 -1.602213e-03
N -4.729130e+00 8.572750e-01 -5.909641e+00 2.582838e-04 -1.507727e-04 -6.365667e-05
N -4.769759e+00 8.707264e-01 -7.683678e-01 1.217531e-05 7.915963e-05 1.093725e-04
N -6.396567e+00 3.586542e+00 4.386290e+00 -1.374451e-04 1.732968e-04 -9.560478e-05
N -6.354678e+00 3.607639e+00 -5.921998e+00 -3.127714e-04 1.853158e-04 -5.032800e-04
N -6.355432e+00 3.608713e+00 -6.955194e-01 -2.013379e-04 1.320344e-04 3.588150e-04
N -3.144982e+00 -1.891236e+00 4.392270e+00 2.533769e-04 2.566533e-04 -4.011320e-05
N -3.181549e+00 -1.820292e+00 -5.900862e+00 -2.306987e-04 -1.725577e-05 -1.535319e-04
N -3.187590e+00 -1.861924e+00 -7.077876e-01 1.195630e-05 2.116690e-04 1.574152e-04
N -1.610121e+00 8.703246e-01 4.349709e+00 6.605370e-05 -1.996836e-04 2.725949e-05
N -1.647699e+00 8.507263e-01 -5.901148e+00 -9.987724e-04 1.974988e-03 -4.013164e-04
N -1.649914e+00 8.536679e-01 -7.297868e-01 2.954363e-04 -1.114865e-04 1.241520e-04
N -3.189973e+00 3.570512e+00 4.372618e+00 -7.433068e-05 -8.341287e-04 1.526343e-04
N -3.146197e+00 3.585300e+00 -5.827753e+00 2.587755e-04 2.699533e-04 3.670332e-05
N -3.180824e+00 3.613019e+00 -7.011855e-01 -1.002014e-04 -1.547795e-04 3.033139e-04
N -2.496676e-02 -1.815001e+00 4.401236e+00 1.251730e-04 2.034322e-04 -4.538423e-05
N -1.916361e-02 -1.808134e+00 -5.904614e+00 1.215681e-04 -4.159941e-04 -1.672467e-05
N -6.444310e-02 -1.879081e+00 -7.847276e-01 -2.286294e-05 -3.586937e-05 1.894747e-04
N -2.652659e-02 1.779350e+00 1.870845e+00 1.414778e-03 1.206499e-03 -1.729800e-03
N -2.737315e-02 1.783470e+00 6.884806e+00 -1.223202e-04 -1.000135e-05 -1.213492e-04
N 1.771513e-02 1.809351e+00 -3.292014e+00 -1.608847e-04 3.085025e-04 3.414223e-04
N 3.193485e+00 -3.669746e+00 1.788891e+00 2.919271e-04 -2.782166e-04 -2.642560e-04
N 3.184186e+00 -3.660236e+00 6.935136e+00 5.273151e-04 -2.857128e-04 4.763182e-04
N 3.189136e+00 -3.719111e+00 -3.360843e+00 6.022692e-05 1.162544e-04 -7.356376e-05
N 1.598608e+00 -9.218397e-01 1.834212e+00 5.982383e-04 -1.006517e-03 -1.219447e-03
N 1.571144e+00 -9.576888e-01 6.891218e+00 -3.815037e-04 2.610558e-04 9.107980e-06
N 1.521176e+00 -9.303066e-01 -3.342631e+00 -4.072723e-04 2.281480e-04 -5.625361e-05
N 3.134577e+00 1.732502e+00 1.776313e+00 7.851249e-05 -5.822384e-04 4.438779e-04
N 3.144009e+00 1.781503e+00 6.892484e+00 -4.242965e-05 -1.269706e-04 -2.521174e-04
N 3.142367e+00 1.737864e+00 -3.290971e+00 2.669143e-04 -9.772224e-05 5.412760e-05
N 6.261536e+00 -3.716339e+00 1.762309e+00 -1.445134e-04 -4.529591e-04 -3.362494e-04
N 6.304201e+00 -3.691374e+00 6.900317e+00 1.688836e-04 -5.213489e-05 -2.649939e-04
N 6.267825e+00 -3.714351e+00 -3.302430e+00 2.433982e-04 -2.037104e-04 1.360110e-04
N 4.685790e+00 -9.270918e-01 1.784004e+00 1.079289e-03 2.358079e-03 5.923009e-05
N 4.721051e+00 -9.542490e-01 6.955557e+00 -1.668637e-04 2.053140e-05 -5.010682e-06
N 4.732343e+00 -9.023382e-01 -3.371318e+00 -1.902901e-04 1.326323e-05 2.468567e-04
N -3.192375e+00 1.733821e+00 1.782711e+00 -4.520647e-04 -2.171477e-04 -1.186642e-04
N -3.190696e+00 1.736914e+00 6.870812e+00 2.070608e-04 -1.880776e-04 -9.142604e-05
N -3.234467e+00 1.761743e+00 -3.351559e+00 -8.024675e-05 9.706416e-05 1.457558e-04
N -2.701430e-02 -3.683630e+00 1.756856e+00 1.831907e-04 1.205243e-04 -1.984178e-04
N -6.155643e-02 -3.666259e+00 6.956840e+00 -5.425115e-05 3.799668e-04 -9.201698e-05
N -2.665478e-02 -3.644067e+00 -3.293131e+00 3.545124e-04 -1.129876e-04 2.375046e-04
N -1.604219e+00 -9.023793e-01 1.770223e+00 -2.765287e-05 -1.674572e-03 -1.282346e-03
N -1.605541e+00 -9.471786e-01 6.900739e+00 -1.584369e-04 -1.350849e-04 -2.372838e-04
N -1.565177e+00 -9.743604e-01 -3.372007e+00 -1.737032e-04 -1.904719e-04 2.762959e-04
