108
Energy=-9.859699e+05 Lattice="9.466118e+00 0.000000e+00 0.000000e+00 -4.735487e+00 8.193634e+00 0.000000e+00 1.737748e-03 3.222261e-03 1.522410e+01" Stress="9.015192e-04 -1.423927e-04 7.689373e-05 -1.329703e-04 4.474409e-04 1.281490e-04 7.831871e-05 1.218653e-04 6.546526e-04" Properties=species:S:1:pos:R:3:forces:R:3 Config_type=AlGaN_super3_12_0_18.xyz
Al 1.545950e+00 8.660906e-01 2.375138e+00 2.352955e-04 1.493333e-04 3.540985e-05
Al 1.553816e+00 8.761026e-01 7.469424e+00 -4.287623e-04 -8.898145e-04 -3.789676e-04
Al 1.551266e+00 8.638067e-01 -2.692858e+00 3.661607e-04 1.222913e-04 6.545258e-05
Al -3.219831e-02 3.594303e+00 2.411255e+00 1.094720e-04 -5.769162e-05 -4.696077e-04
Al -3.404466e-02 3.590499e+00 7.438029e+00 5.445602e-04 6.898551e-04 1.452409e-04
Al -4.148571e-02 3.585828e+00 -2.684402e+00 1.870559e-04 3.592378e-04 3.645848e-04
Al 3.132554e+00 -1.861289e+00 2.383825e+00 -4.288761e-05 -6.236529e-05 6.940593e-04
Al 3.127258e+00 -1.861544e+00 7.441403e+00 -2.797440e-04 9.504794e-04 -3.645312e-05
Al 3.124893e+00 -1.860813e+00 -2.672790e+00 -5.276283e-04 -6.814172e-05 8.620242e-04
Al -4.751389e+00 8.685423e-01 2.386041e+00 1.673377e-04 7.656389e-04 -8.225776e-05
Al -4.756253e+00 8.825490e-01 7.452773e+00 6.061490e-04 -2.569460e-05 -3.101009e-05
Al -4.761329e+00 8.716436e-01 -2.675519e+00 -1.199592e-04 2.681069e-04 4.781595e-04
Al -6.340565e+00 3.592425e+00 2.399586e+00 -5.576584e-04 7.663763e-04 -5.593982e-04
Al -6.335588e+00 3.589189e+00 7.469222e+00 -4.113984e-04 3.912353e-04 1.357812e-04
Ga -6.330843e+00 3.581740e+00 -2.683972e+00 2.128480e-04 4.934937e-04 -4.675187e-04
Al -3.188824e+00 -1.855641e+00 2.416031e+00 1.413673e-03 8.177209e-05 -6.927270e-04
Ga -3.180778e+00 -1.852218e+00 7.439454e+00 1.195226e-04 -1.847612e-04 3.709625e-04
Ga -3.180035e+00 -1.843974e+00 -2.674636e+00 4.317880e-04 -2.037971e-05 -6.404808e-04
Al -1.599748e+00 8.859617e-01 2.403682e+00 7.179166e-05 -7.150603e-04 -5.102178e-04
Al -1.597548e+00 8.886538e-01 7.454885e+00 -3.554519e-04 -6.344794e-04 -1.429328e-05
Al -1.592605e+00 8.823758e-01 -2.696953e+00 -2.233612e-04 -5.257749e-04 2.084112e-04
Al -3.164589e+00 3.594640e+00 2.393896e+00 -5.571835e-04 -1.695082e-04 -8.679526e-05
Al -3.165404e+00 3.591323e+00 7.468280e+00 1.106712e-05 1.984097e-04 2.195675e-05
Ga -3.165655e+00 3.600476e+00 -2.696101e+00 2.841666e-04 -2.206001e-04 1.860306e-04
Al -1.082178e-02 -1.849310e+00 2.410872e+00 -3.755785e-04 -7.822432e-04 9.312773e-05
Ga -1.319603e-02 -1.846679e+00 7.467232e+00 2.994552e-04 3.655760e-04 -1.892804e-04
Al -8.814319e-03 -1.842223e+00 -2.708058e+00 4.859865e-04 -4.402187e-04 -1.227180e-04
Al -3.068072e-02 1.776293e+00 4.925710e+00 -5.890651e-05 2.301407e-04 9.985409e-05
Al -2.856849e-02 1.772897e+00 -5.236931e+00 -7.386868e-05 4.400849e-04 4.449056e-04
Al -2.711656e-02 1.780839e+00 -1.510111e-01 1.909258e-04 2.911258e-04 1.110943e-03
Al 3.140731e+00 -3.681584e+00 4.918585e+00 -3.249709e-04 4.659792e-04 5.960914e-04
Al 3.128067e+00 -3.685869e+00 -5.244009e+00 6.224383e-06 5.257169e-04 3.475206e-04
Al 3.142365e+00 -3.679825e+00 -1.306709e-01 2.104729e-04 3.695049e-04 6.300997e-04
Al 1.563966e+00 -9.437906e-01 4.911220e+00 -6.443750e-04 1.823753e-04 1.250874e-03
Al 1.558442e+00 -9.486088e-01 -5.217433e+00 -2.702657e-04 1.991403e-04 4.722452e-04
Al 1.570215e+00 -9.431345e-01 -1.521330e-01 -2.048461e-04 2.276660e-04 3.902189e-04
Ga 3.122781e+00 1.769271e+00 4.926543e+00 -1.069764e-04 -6.995218e-05 3.965476e-04
Al 3.131931e+00 1.772103e+00 -5.240194e+00 1.159399e-04 -1.150726e-04 1.219170e-04
Al 3.130755e+00 1.756861e+00 -1.310176e-01 1.990873e-04 -1.223185e-04 8.043707e-04
Al 6.273648e+00 -3.680674e+00 4.916950e+00 2.643925e-04 2.029002e-04 2.113721e-04
Ga 6.284720e+00 -3.698767e+00 -5.230128e+00 -2.189622e-04 -1.616204e-05 -2.123384e-04
Ga 6.267657e+00 -3.694501e+00 -1.170506e-01 8.666399e-05 4.500551e-04 5.623175e-04
Al 4.706937e+00 -9.514193e-01 4.913515e+00 -2.897225e-04 3.460697e-05 2.685854e-04
Ga 4.694030e+00 -9.363706e-01 -5.223892e+00 -7.898433e-04 1.804649e-04 5.564523e-04
Al 4.693016e+00 -9.368714e-01 -1.309566e-01 -2.618459e-04 -2.466734e-04 -1.306604e-04
Al -3.164123e+00 1.775696e+00 4.926460e+00 -3.730060e-04 3.818176e-04 1.763652e-04
Al -3.176277e+00 1.780648e+00 -5.242301e+00 -1.378882e-04 4.738791e-04 2.924967e-04
Al -3.179023e+00 1.776114e+00 -1.386208e-01 5.896558e-05 1.989856e-04 9.905008e-04
Ga -1.324818e-02 -3.679210e+00 4.921359e+00 9.835032e-06 3.909646e-04 1.056231e-04
Al -1.354059e-02 -3.682147e+00 -5.241754e+00 2.292107e-04 -4.878972e-04 -6.560410e-05
Ga -1.753931e-03 -3.674124e+00 -1.180194e-01 -5.466051e-04 -2.466652e-04 1.713077e-03
Al -1.601362e+00 -9.316590e-01 4.899756e+00 -3.258521e-04 7.635692e-05 -8.755394e-05
Al -1.581355e+00 -9.280809e-01 -5.214824e+00 -1.258129e-04 -1.354495e-04 2.568568e-04
Ga -1.587801e+00 -9.257455e-01 -1.238655e-01 -2.998974e-04 -9.905241e-06 2.143694e-06
N 1.508152e+00 8.489287e-01 4.288150e+00 7.603319e-05 9.437565e-05 -8.387020e-05
N 1.548786e+00 8.661447e-01 -5.830735e+00 1.555744e-04 -2.163441e-04 -3.260963e-05
N 1.553042e+00 8.728561e-01 -7.569798e-01 1.173511e-05 1.818867e-04 -9.314162e-06
N -2.985411e-02 3.595211e+00 4.329559e+00 2.277559e-06 -9.595410e-05 -8.091552e-05
N -6.868545e-02 3.573620e+00 -5.869310e+00 -3.078156e-04 -5.672855e-04 -3.890566e-04
N -6.904206e-02 3.575860e+00 -7.671719e-01 -4.375234e-04 -1.096088e-04 -9.403179e-04
N 3.132277e+00 -1.861539e+00 4.309646e+00 2.200646e-04 -2.768057e-04 -5.322122e-04
N 3.089331e+00 -1.883268e+00 -5.864248e+00 -2.068080e-04 -2.776934e-04 -5.988032e-04
N 3.134082e+00 -1.863764e+00 -7.415950e-01 1.101873e-04 -5.025447e-04 -6.659788e-04
N -4.714932e+00 8.522535e-01 4.301124e+00 7.504400e-04 -7.548725e-05 -1.634338e-04
N -4.754223e+00 9.179054e-01 -5.862763e+00 2.117733e-04 6.340309e-05 -2.823171e-04
N -4.757551e+00 8.750160e-01 -7.452628e-01 4.347814e-04 2.592064e-04 6.969630e-05
N -6.376220e+00 3.620281e+00 4.297151e+00 -2.099187e-04 -9.631137e-05 -4.791090e-04
N -6.297235e+00 3.576240e+00 -5.843486e+00 3.685321e-04 -1.210046e-04 -3.019548e-04
N -6.327711e+00 3.552956e+00 -7.159361e-01 -2.764395e-04 9.664825e-05 2.636432e-04
N -3.183566e+00 -1.857961e+00 4.335155e+00 1.955446e-04 -3.985936e-05 -4.807048e-04
N -3.135015e+00 -1.831838e+00 -5.811895e+00 2.105677e-04 4.060116e-05 -3.884213e-04
N -3.212774e+00 -1.833216e+00 -7.115176e-01 -4.255241e-04 1.992888e-04 4.135662e-04
N -1.601064e+00 8.846034e-01 4.316234e+00 3.073158e-04 -3.499045e-04 -2.385332e-04
N -1.602068e+00 8.737806e-01 -5.842989e+00 6.833683e-04 -3.301529e-04 -7.535900e-04
N -1.604219e+00 9.241545e-01 -7.780699e-01 5.100926e-04 -1.817830e-04 -7.972188e-05
N -3.132561e+00 3.576171e+00 4.305566e+00 6.198432e-04 -8.517872e-04 -2.534506e-04
N -3.174802e+00 3.600312e+00 -5.831640e+00 1.031040e-04 -9.578419e-04 -4.500488e-04
N -3.133641e+00 3.581587e+00 -7.165975e-01 -1.760430e-04 -6.401595e-04 -9.766472e-05
N -1.539827e-02 -1.808304e+00 4.315795e+00 1.628155e-04 -4.182883e-04 -3.865736e-04
N -1.976003e-02 -1.853643e+00 -5.778837e+00 3.518348e-05 7.316815e-04 -1.088386e-04
N 2.070210e-02 -1.831068e+00 -7.927867e-01 -2.197645e-05 -8.502950e-04 3.305864e-04
N -2.611297e-02 1.783589e+00 1.777848e+00 -9.072232e-05 -7.380600e-05 -6.980390e-04
N -1.952482e-02 1.776508e+00 6.849301e+00 1.585478e-05 -4.724767e-05 -3.577967e-04
N -1.994803e-02 1.779660e+00 -3.305939e+00 3.385435e-05 2.405837e-04 -8.881959e-05
N 3.141272e+00 -3.681734e+00 1.790578e+00 -3.467058e-04 2.273441e-04 4.219672e-05
N 3.130553e+00 -3.680997e+00 6.843568e+00 2.925284e-04 1.710314e-04 -4.040962e-04
N 3.178499e+00 -3.654105e+00 -3.322739e+00 1.625656e-04 3.728122e-04 -3.699597e-04
N 1.557686e+00 -9.542556e-01 1.772101e+00 -1.398939e-04 4.589184e-04 -2.608697e-04
N 1.592801e+00 -9.194101e-01 6.825533e+00 1.883574e-03 4.663402e-04 3.964786e-04
N 1.567069e+00 -9.484610e-01 -3.292686e+00 -1.249164e-04 7.352286e-05 -5.671555e-04
N 3.131452e+00 1.773583e+00 1.791932e+00 -2.270525e-04 -5.778687e-04 -5.869308e-04
N 3.127209e+00 1.781056e+00 6.903550e+00 1.118725e-04 -7.156065e-04 -1.908862e-04
N 3.133593e+00 1.726061e+00 -3.320041e+00 -5.299510e-04 -4.039755e-04 -4.057132e-05
N 6.277161e+00 -3.680670e+00 1.857955e+00 1.006734e-03 -4.956161e-04 1.348517e-04
N 6.290581e+00 -3.728880e+00 6.836330e+00 -3.898711e-04 -6.142618e-04 -1.565049e-05
N 6.246205e+00 -3.707301e+00 -3.266886e+00 -3.210966e-04 -3.112939e-04 4.228253e-04
N 4.707978e+00 -9.485663e-01 1.790935e+00 -2.751581e-04 -1.171457e-04 3.976474e-05
N 4.668030e+00 -9.202408e-01 6.829924e+00 -1.536015e-03 -2.515126e-04 -4.222881e-04
N 4.659029e+00 -9.238633e-01 -3.250749e+00 8.825092e-04 5.932927e-05 -6.771682e-04
N -3.176315e+00 1.777717e+00 1.783638e+00 -1.368655e-04 -1.692638e-04 -9.146142e-04
N -3.174839e+00 1.782405e+00 6.851370e+00 -2.856310e-04 4.470535e-04 -2.031812e-04
N -3.182813e+00 1.730784e+00 -3.320974e+00 -4.026377e-05 -5.124064e-04 1.381316e-04
N -2.068169e-02 -3.680783e+00 1.866829e+00 1.073643e-03 1.373838e-03 -2.038516e-03
N -1.609607e-02 -3.726750e+00 6.896306e+00 -3.793596e-04 -3.832036e-04 2.656933e-04
N -1.985356e-02 -3.638571e+00 -3.332228e+00 -2.707293e-04 5.227336e-04 7.940988e-04
N -1.595162e+00 -9.450383e-01 1.854304e+00 -1.099948e-03 -1.721820e-05 1.187319e-03
N -1.595206e+00 -8.955718e-01 6.804614e+00 2.019108e-04 6.370772e-04 6.541954e-04
N -1.556987e+00 -9.177161e-01 -3.302365e+00 -5.628418e-04 2.551200e-04 -2.037607e-04
