108
Energy=-1626826.690753 Lattice="9.541359 0.000000 0.000000 -4.773160 8.262159 0.000000 -0.039869 0.004418 15.409103" Stress="0.000002 -0.000001 -0.000009 -0.000001 0.000003 0.000001 -0.000009 0.000001 -0.000004" Properties=species:S:1:pos:R:3:forces:R:3
Al 1.564528 0.868821 2.435188 0.000060 -0.000011 -0.000183
Al 1.542676 0.883080 7.544749 -0.000019 0.000414 0.000147
Al 1.581696 0.868966 -2.722766 -0.000045 -0.000005 0.000009
Al -0.021697 3.647813 2.426674 -0.000189 -0.000012 0.000076
Al -0.023467 3.633594 7.512016 -0.000036 0.000007 0.000019
Ga -0.007465 3.631075 -2.682866 -0.000049 0.000015 0.000020
Al 3.159423 -1.863974 2.406597 -0.000144 -0.000164 -0.000302
Ga 3.138590 -1.867959 7.547765 0.000038 -0.000099 -0.000006
Ga 3.173024 -1.851275 -2.697151 -0.000033 0.000027 0.000045
Al -4.805249 0.859368 2.395314 -0.000047 0.000045 0.000020
Ga -4.827854 0.872762 7.582177 -0.000016 0.000006 0.000052
Al -4.787314 0.862369 -2.714772 -0.000019 0.000011 -0.000023
Ga -6.417000 3.633155 2.438893 0.000002 -0.000047 0.000022
Al -6.418413 3.642666 7.533859 -0.000032 -0.000116 0.000109
Ga -6.392262 3.617840 -2.709871 -0.000027 0.000023 0.000013
Al -3.226584 -1.879696 2.397304 -0.000126 -0.000150 0.000204
Al -3.220696 -1.890999 7.550100 -0.000008 0.000002 0.000027
Al -3.202323 -1.859767 -2.689537 -0.000015 0.000012 -0.000018
Ga -1.620872 0.874178 2.411936 -0.000054 0.000063 0.000051
Ga -1.608105 0.876177 7.543079 -0.000015 0.000022 0.000025
Al -1.611325 0.867247 -2.686784 -0.000029 -0.000007 0.000014
Ga -3.198069 3.631227 2.426894 -0.000007 0.000010 0.000022
Ga -3.223234 3.648978 7.530351 0.000052 0.000001 0.000007
Ga -3.187886 3.617261 -2.682111 -0.000050 -0.000000 0.000056
Ga -0.021229 -1.857952 2.425565 0.000009 -0.000007 0.000031
Al -0.038042 -1.871620 7.538781 -0.000060 -0.000018 0.000048
Ga -0.014229 -1.845950 -2.697314 -0.000005 0.000014 0.000048
Al -0.018102 1.809826 4.973383 -0.000103 -0.000087 -0.000041
Ga 0.013559 1.789649 -5.277565 -0.000007 0.000023 0.000010
Ga -0.020431 1.790779 -0.139673 -0.000070 -0.000025 0.000031
Al 3.157548 -3.703194 4.961179 -0.000048 -0.000344 0.000472
Ga 3.183878 -3.699717 -5.292418 -0.000034 0.000020 0.000000
Al 3.169530 -3.699708 -0.112010 -0.000042 0.000037 0.000002
Al 1.554236 -0.958086 4.981378 -0.000198 -0.000117 0.000117
Al 1.591554 -0.943536 -5.302012 -0.000039 0.000039 0.000046
Al 1.578398 -0.952691 -0.129028 0.000082 -0.000039 -0.000013
Ga 3.128830 1.795112 4.985256 0.000018 0.000009 0.000043
Al 3.162773 1.779130 -5.291155 -0.000042 -0.000011 -0.000018
Ga 3.158983 1.774103 -0.137114 -0.000069 -0.000011 0.000033
Al 6.316007 -3.710541 4.991054 -0.000089 0.000212 0.000027
Ga 6.350621 -3.707564 -5.307695 -0.000028 -0.000002 -0.000002
Al 6.324727 -3.688598 -0.127399 -0.000047 -0.000020 -0.000012
Ga 4.730836 -0.974304 4.957423 0.000088 0.000014 0.000045
Al 4.759836 -0.956599 -5.266844 -0.000039 0.000025 0.000029
Al 4.755810 -0.963330 -0.137427 -0.000150 0.000089 -0.000144
Ga -3.218255 1.804044 4.978731 0.000004 0.000003 0.000064
Ga -3.199778 1.784883 -5.256889 -0.000048 0.000006 0.000028
Al -3.204368 1.777982 -0.154253 -0.000004 -0.000056 -0.000019
Al -0.035558 -3.698272 5.001833 -0.000010 0.000039 0.000041
Ga -0.012258 -3.707158 -5.298316 -0.000045 0.000003 0.000001
Ga -0.018158 -3.704070 -0.137770 -0.000040 0.000019 0.000010
Ga -1.621747 -0.976679 4.995266 -0.000062 -0.000003 0.000022
Ga -1.602630 -0.967002 -5.282334 -0.000057 0.000020 0.000023
Al -1.630986 -0.958796 -0.151642 -0.000008 0.000064 -0.000010
N 1.513188 0.848580 4.348978 0.000138 -0.000005 0.000154
N 1.621311 0.854853 -5.938035 -0.000008 -0.000063 -0.000051
N 1.571471 0.825971 -0.809188 0.000017 -0.000039 -0.000006
N -0.030059 3.637350 4.360618 0.000055 -0.000016 -0.000028
N -0.008597 3.624412 -5.980013 0.000032 0.000008 0.000003
N -0.023822 3.681279 -0.711301 0.000093 -0.000043 -0.000012
N 3.099101 -1.894737 4.333377 0.000055 0.000282 -0.000065
N 3.176877 -1.824392 -5.876081 0.000040 0.000004 -0.000016
N 3.158975 -1.872403 -0.702612 0.000092 0.000066 0.000033
N -4.809331 0.877044 4.301422 0.000035 -0.000011 -0.000038
N -4.820890 0.850042 -5.850815 0.000059 -0.000007 -0.000017
N -4.757403 0.846754 -0.786399 0.000020 -0.000154 0.000149
N -6.401854 3.684121 4.418049 0.000097 -0.000044 -0.000035
N -6.371793 3.580850 -5.947185 0.000011 0.000024 -0.000092
N -6.434372 3.650169 -0.734510 0.000066 -0.000006 -0.000029
N -3.212320 -1.927049 4.312791 0.000003 -0.000124 -0.000044
N -3.234499 -1.849768 -5.946004 0.000042 -0.000003 -0.000030
N -3.208883 -1.876203 -0.760227 0.000023 -0.000022 0.000002
N -1.582444 0.896700 4.387414 0.000104 0.000051 0.000003
N -1.593173 0.880715 -5.899949 0.000046 -0.000013 -0.000020
N -1.648882 0.853301 -0.766243 0.000054 -0.000041 -0.000007
N -3.217896 3.684308 4.406935 0.000040 -0.000005 -0.000073
N -3.185988 3.628997 -5.910623 0.000045 -0.000005 -0.000012
N -3.153495 3.609176 -0.704597 0.000005 0.000049 -0.000036
N 0.008201 -1.895104 4.400977 0.000064 -0.000004 -0.000003
N 0.037464 -1.848745 -5.946402 0.000059 -0.000009 -0.000032
N -0.016458 -1.818821 -0.718064 0.000045 -0.000001 0.000016
N 0.018264 1.822167 1.841727 -0.000041 -0.000008 -0.000062
N 0.009045 1.822593 6.897395 0.000060 -0.000052 -0.000035
N -0.014598 1.750320 -3.285178 -0.000011 0.000018 -0.000017
N 3.197833 -3.685639 1.805591 0.000071 0.000129 0.000144
N 3.188912 -3.724983 6.881110 -0.000017 0.000048 -0.000322
N 3.172409 -3.707739 -3.325574 0.000006 -0.000006 -0.000019
N 1.604419 -0.926352 1.786785 0.000086 -0.000088 0.000098
N 1.512994 -0.927460 6.906967 0.000017 -0.000207 -0.000233
N 1.577573 -0.911914 -3.383784 -0.000005 0.000009 -0.000000
N 3.145119 1.748177 1.843277 0.000024 -0.000007 -0.000004
N 3.098629 1.816930 6.964087 0.000059 0.000062 -0.000077
N 3.163761 1.746384 -3.355380 0.000001 0.000024 0.000017
N 6.289259 -3.686484 1.786102 0.000195 0.000145 -0.000120
N 6.320718 -3.703501 6.921776 0.000024 0.000027 -0.000016
N 6.344347 -3.656896 -3.328077 -0.000006 -0.000004 -0.000002
N 4.742870 -0.958998 1.792613 -0.000006 -0.000029 -0.000007
N 4.773562 -0.977762 6.929603 -0.000007 0.000011 -0.000059
N 4.801271 -0.940177 -3.341621 0.000035 -0.000000 -0.000007
N -3.251974 1.771173 1.762613 -0.000016 -0.000009 -0.000027
N -3.228937 1.789868 6.937765 -0.000004 0.000015 -0.000031
N -3.194542 1.746798 -3.277769 -0.000008 0.000003 -0.000026
N -0.032173 -3.711730 1.817958 -0.000010 0.000008 0.000003
N -0.084219 -3.682618 6.922036 0.000008 0.000009 -0.000059
N -0.013069 -3.707146 -3.320690 0.000012 0.000005 -0.000016
N -1.662985 -0.984335 1.764745 0.000144 0.000062 -0.000121
N -1.634856 -1.009390 6.971422 0.000019 0.000011 -0.000022
N -1.649950 -0.937615 -3.294230 -0.000011 0.000015 -0.000006
