108
Energy=-1.123296e+06 Lattice="9.476376e+00 0.000000e+00 0.000000e+00 -4.739576e+00 8.203163e+00 0.000000e+00 -2.091575e-03 -3.655759e-02 1.527572e+01" Stress="5.680488e-05 -1.119782e-04 -9.963890e-05 -1.128701e-04 -5.179820e-04 -1.583213e-03 -1.042453e-04 -1.588395e-03 6.586099e-04" Properties=species:S:1:pos:R:3:forces:R:3 Config_type=AlGaN_super3_15_1_27.xyz
Al 1.554226e+00 8.675083e-01 2.399033e+00 7.206753e-06 -6.306060e-05 -5.711827e-05
Al 1.554170e+00 8.564733e-01 7.463003e+00 -4.059420e-05 1.534184e-04 8.085132e-05
Al 1.559668e+00 8.783307e-01 -2.669860e+00 -6.211186e-05 4.042218e-05 -4.403303e-05
Al -3.914499e-02 3.597421e+00 2.386429e+00 -1.074778e-04 3.032863e-05 -1.737525e-04
Al -2.265474e-02 3.578949e+00 7.472439e+00 7.616906e-05 1.842523e-06 1.525854e-04
Al -1.668957e-02 3.616133e+00 -2.664619e+00 4.676132e-05 1.020620e-04 1.804871e-05
Al 3.129934e+00 -1.878568e+00 2.380332e+00 -2.697855e-05 3.325219e-05 -2.744716e-05
Al 3.131442e+00 -1.876040e+00 7.498335e+00 1.991175e-04 -1.001033e-04 -1.477092e-05
Ga 3.138305e+00 -1.845245e+00 -2.682359e+00 2.100130e-05 -1.712935e-05 3.301306e-06
Al -4.767299e+00 8.681736e-01 2.415217e+00 1.720847e-05 1.776016e-04 3.411560e-05
Al -4.762572e+00 8.570299e-01 7.481165e+00 3.744167e-05 3.241904e-04 8.288697e-05
Al -4.756778e+00 8.801752e-01 -2.698931e+00 -2.959226e-05 -2.342728e-04 -1.054199e-04
Ga -6.335582e+00 3.594426e+00 2.385000e+00 5.415654e-05 -1.130915e-04 -5.973694e-05
Al -6.340233e+00 3.584358e+00 7.485932e+00 9.615507e-05 -1.874435e-04 1.307840e-04
Ga -6.346060e+00 3.614857e+00 -2.673721e+00 -2.602566e-05 3.395125e-05 -1.878877e-05
Al -3.175714e+00 -1.860467e+00 2.400964e+00 -5.657436e-05 1.034592e-04 1.990087e-04
Ga -3.176702e+00 -1.877507e+00 7.503027e+00 4.345742e-05 3.170527e-05 -6.925802e-05
Al -3.184247e+00 -1.855248e+00 -2.707869e+00 3.903705e-05 -1.398526e-04 1.754722e-05
Al -1.594121e+00 8.622405e-01 2.401773e+00 4.702953e-05 -8.174940e-05 -1.956678e-05
Al -1.598211e+00 8.541055e-01 7.469387e+00 -1.275212e-05 -2.449205e-04 4.718166e-06
Ga -1.608380e+00 8.838161e-01 -2.680151e+00 3.934907e-05 -7.550931e-05 -3.406124e-05
Al -3.171814e+00 3.609533e+00 2.422223e+00 1.262916e-04 -4.758330e-05 3.172164e-05
Ga -3.185256e+00 3.583776e+00 7.466091e+00 -4.048296e-05 -3.292229e-05 2.935877e-05
Al -3.184789e+00 3.606472e+00 -2.694223e+00 -1.418071e-04 -1.692391e-05 -3.776152e-05
Al -2.465472e-02 -1.863217e+00 2.389058e+00 1.564023e-04 -2.102424e-05 -2.083121e-04
Al -2.354726e-02 -1.875765e+00 7.490336e+00 -1.574943e-04 1.153297e-04 5.623149e-05
Ga -1.975948e-02 -1.849269e+00 -2.683298e+00 -1.531456e-05 -6.106427e-05 1.018129e-05
Al -3.358941e-02 1.772062e+00 4.932214e+00 -8.430296e-05 -3.570346e-05 4.222433e-05
Ga -2.162645e-02 1.791686e+00 -5.245788e+00 3.074920e-06 3.112631e-06 1.100429e-05
Al -8.172889e-03 1.786752e+00 -1.312560e-01 1.093252e-04 -1.798057e-05 -6.961004e-05
Al 3.133461e+00 -3.707939e+00 4.934207e+00 -6.709763e-05 8.934943e-05 -8.815227e-06
Ga 3.140103e+00 -3.670310e+00 -5.235747e+00 -5.810328e-06 -5.458957e-07 1.928102e-05
Al 3.131175e+00 -3.693897e+00 -1.394623e-01 4.413934e-05 4.043274e-05 2.515016e-05
Ga 1.546215e+00 -9.680386e-01 4.935138e+00 3.567320e-05 -2.251082e-05 -9.028640e-05
Al 1.551248e+00 -9.375256e-01 -5.266874e+00 -1.567646e-05 3.799724e-05 -4.316377e-05
Al 1.544506e+00 -9.393516e-01 -1.119607e-01 -1.499862e-04 -1.130649e-04 -2.632848e-06
Al 3.139906e+00 1.775364e+00 4.956854e+00 1.506217e-04 -1.410097e-04 -1.321522e-04
Ga 3.143131e+00 1.792901e+00 -5.249956e+00 -3.111754e-05 -1.346035e-05 -1.409176e-05
Al 3.123648e+00 1.777754e+00 -1.467817e-01 5.445921e-06 -1.064589e-05 -8.537892e-05
Ga 6.293915e+00 -3.708622e+00 4.938077e+00 4.422273e-06 7.901392e-05 4.607590e-06
Al 6.299478e+00 -3.664812e+00 -5.241629e+00 1.050149e-05 2.316538e-05 1.950275e-04
Al 6.289387e+00 -3.681065e+00 -1.371414e-01 1.148719e-04 -8.825466e-05 -1.176670e-04
Ga 4.712266e+00 -9.559920e-01 4.933504e+00 2.367759e-05 -2.516974e-05 -7.007465e-05
Al 4.724365e+00 -9.310335e-01 -5.241647e+00 2.655247e-08 2.167407e-05 6.437410e-05
Ga 4.722616e+00 -9.506045e-01 -1.287064e-01 -4.085309e-05 -7.532881e-05 -1.290044e-04
Al -3.175884e+00 1.771698e+00 4.919246e+00 -4.690147e-05 -2.475815e-06 -9.672572e-05
Al -3.186834e+00 1.785234e+00 -5.245029e+00 2.164521e-05 5.872334e-05 5.987918e-06
Ga -3.185078e+00 1.800244e+00 -1.180653e-01 1.280736e-05 -4.843120e-05 -6.467968e-05
Al -1.953200e-02 -3.695723e+00 4.938637e+00 1.101802e-04 1.440603e-04 1.237586e-04
Al -2.744530e-02 -3.662636e+00 -5.252319e+00 -1.420221e-05 7.021534e-05 3.938142e-05
Al -1.248113e-02 -3.677159e+00 -1.302826e-01 -2.758568e-06 5.122034e-05 -1.803231e-05
Al -1.589242e+00 -9.543247e-01 4.933954e+00 -2.792904e-04 -9.104352e-05 1.543362e-04
Al -1.601124e+00 -9.417370e-01 -5.253395e+00 5.489276e-05 -4.913635e-05 1.395213e-04
Al -1.597126e+00 -9.612996e-01 -1.250079e-01 1.243409e-04 -1.724317e-05 -1.147649e-04
N 1.558360e+00 9.120584e-01 4.321382e+00 1.093804e-04 3.544714e-05 6.524616e-06
N 1.556519e+00 8.452466e-01 -5.908779e+00 2.970615e-05 -2.534437e-05 -6.425469e-05
N 1.553032e+00 8.677655e-01 -7.469844e-01 2.101370e-05 1.473868e-05 -1.137277e-05
N -6.850367e-02 3.569175e+00 4.302440e+00 5.936246e-05 -2.432265e-05 2.233239e-04
N 1.734150e-02 3.641629e+00 -5.896016e+00 -8.643606e-05 -1.323897e-05 -9.595485e-05
N -2.224279e-02 3.608464e+00 -7.407629e-01 3.891720e-05 -3.138548e-06 3.397507e-05
N 3.131383e+00 -1.925532e+00 4.287098e+00 2.094915e-05 4.682924e-05 -1.123657e-04
N 3.140450e+00 -1.804149e+00 -5.859378e+00 -2.620539e-05 2.815886e-05 4.483265e-05
N 3.090212e+00 -1.877754e+00 -7.024991e-01 7.899756e-05 -6.397840e-05 -1.016102e-04
N -4.768842e+00 9.120727e-01 4.321017e+00 -1.955664e-04 9.432445e-05 7.946733e-05
N -4.717653e+00 8.641474e-01 -5.879153e+00 6.939553e-06 -4.061854e-05 2.162236e-05
N -4.795264e+00 8.977707e-01 -7.902629e-01 1.341608e-05 2.240240e-05 1.426980e-04
N -6.297901e+00 3.567997e+00 4.356788e+00 -1.010809e-04 -7.764423e-05 -5.291870e-05
N -6.340502e+00 3.667463e+00 -5.868036e+00 1.280429e-05 -1.285567e-05 -5.008855e-05
N -6.339932e+00 3.612607e+00 -6.848870e-01 -1.023814e-04 7.343970e-05 4.018218e-06
N -3.136560e+00 -1.851119e+00 4.307068e+00 5.683812e-05 9.362531e-05 -1.801770e-04
N -3.179812e+00 -1.848110e+00 -5.797598e+00 -1.277750e-06 2.002772e-05 -1.940602e-05
N -3.137726e+00 -1.882208e+00 -7.815258e-01 5.761055e-06 5.068739e-05 8.127463e-05
N -1.596398e+00 8.573329e-01 4.324235e+00 3.457567e-05 3.573923e-05 2.469041e-05
N -1.641982e+00 8.643913e-01 -5.879032e+00 -4.841195e-05 1.060301e-04 -6.881968e-05
N -1.563951e+00 8.506382e-01 -7.029923e-01 -1.473741e-04 -1.596862e-04 2.224323e-05
N -3.182520e+00 3.600247e+00 4.345776e+00 1.751907e-05 3.073184e-05 6.098384e-05
N -3.221979e+00 3.594505e+00 -5.833008e+00 7.364698e-05 -1.434272e-04 -4.152572e-05
N -3.186378e+00 3.653361e+00 -7.780520e-01 1.704410e-05 -2.749586e-05 1.627995e-04
N -6.556993e-02 -1.898888e+00 4.301731e+00 2.146683e-05 -3.192466e-05 1.555001e-04
N -2.430138e-02 -1.848640e+00 -5.860927e+00 1.311680e-05 -9.249861e-06 9.390388e-06
N -2.083522e-02 -1.857046e+00 -6.981040e-01 5.739412e-05 4.172602e-05 3.509222e-05
N -1.942855e-02 1.777367e+00 1.789785e+00 -2.464146e-05 5.294281e-05 8.016750e-05
N -2.677341e-02 1.766014e+00 6.859968e+00 -4.336751e-05 4.457846e-05 -1.260424e-05
N 2.097464e-02 1.817026e+00 -3.263801e+00 3.872258e-05 -3.033109e-05 2.292305e-05
N 3.131180e+00 -3.699580e+00 1.779942e+00 -4.787144e-07 9.518954e-06 7.570167e-05
N 3.179266e+00 -3.675025e+00 6.854635e+00 -5.359987e-05 -4.747226e-05 -1.617896e-05
N 3.141792e+00 -3.724968e+00 -3.259851e+00 1.647996e-04 3.055359e-06 -6.725365e-05
N 1.552593e+00 -9.489109e-01 1.805654e+00 -1.994030e-05 4.531970e-05 8.620709e-05
N 1.555846e+00 -9.740653e-01 6.917428e+00 -2.331514e-04 -8.925829e-06 -1.008900e-04
N 1.555162e+00 -8.906594e-01 -3.349708e+00 -2.647220e-06 -4.398970e-05 1.073189e-04
N 3.135006e+00 1.722774e+00 1.762151e+00 1.480083e-04 -5.933676e-05 2.150632e-04
N 3.138817e+00 1.766501e+00 6.880663e+00 -4.946768e-06 4.172470e-05 -2.944965e-05
N 3.132369e+00 1.745905e+00 -3.270451e+00 2.902547e-05 8.261263e-06 6.331148e-06
N 6.249044e+00 -3.663596e+00 1.778642e+00 1.207861e-04 -2.128032e-05 -1.960651e-05
N 6.295804e+00 -3.748451e+00 6.905514e+00 -2.948192e-04 1.346229e-04 -9.679774e-05
N 6.252069e+00 -3.659733e+00 -3.316977e+00 -1.387292e-05 -8.334881e-05 -7.603857e-05
N 4.719306e+00 -9.518442e-01 1.849497e+00 -3.393571e-05 -1.325505e-04 1.498439e-04
N 4.673508e+00 -9.474713e-01 6.906123e+00 -6.322876e-06 -1.413233e-04 -2.779260e-05
N 4.754514e+00 -9.176454e-01 -3.318953e+00 -1.397961e-04 2.804885e-04 -1.365977e-05
N -3.183335e+00 1.783058e+00 1.862904e+00 -9.385491e-05 -4.308058e-05 6.530306e-06
N -3.180667e+00 1.713959e+00 6.836719e+00 -3.138302e-05 3.644402e-05 3.429051e-05
N -3.220404e+00 1.813087e+00 -3.323231e+00 6.210062e-05 1.224655e-05 -1.070786e-04
N 2.990690e-02 -3.669640e+00 1.779044e+00 -2.009875e-04 9.695726e-05 -1.583838e-06
N -6.510301e-02 -3.673508e+00 6.855202e+00 1.523522e-04 8.206885e-05 -1.157054e-04
N 1.432231e-02 -3.696283e+00 -3.338506e+00 -4.455016e-05 -8.449212e-06 1.378608e-05
N -1.604892e+00 -9.560576e-01 1.790272e+00 -3.518618e-05 -1.060194e-05 4.432763e-05
N -1.559084e+00 -9.465085e-01 6.853890e+00 1.841288e-04 1.135158e-04 -1.003831e-04
N -1.636362e+00 -9.621458e-01 -3.342866e+00 2.021406e-05 3.009010e-05 -1.162988e-04
