108
Energy=-1718377.735166 Lattice="9.548575 0.000000 0.000000 -4.776041 8.268792 0.000000 -0.000437 0.001198 15.434383" Stress="-0.000004 -0.000000 0.000000 -0.000000 -0.000004 -0.000000 0.000000 -0.000000 -0.000008" Properties=species:S:1:pos:R:3:forces:R:3
Al 1.555991 0.890685 2.423486 -0.000161 0.000123 0.000092
Al 1.562754 0.890292 7.542906 0.000022 0.000020 0.000046
Al 1.574669 0.893175 -2.702647 0.000055 0.000003 0.000008
Al -0.028651 3.612883 2.448428 0.000001 0.000012 0.000135
Al -0.023351 3.619957 7.520250 -0.000009 0.000003 0.000143
Al -0.010190 3.618254 -2.697768 0.000000 0.000041 0.000046
Al 3.165435 -1.877070 2.437768 0.000015 -0.000016 0.000041
Ga 3.163506 -1.868394 7.552212 0.000001 -0.000001 -0.000016
Ga 3.158528 -1.862667 -2.713468 -0.000009 0.000013 0.000019
Ga -4.814175 0.870331 2.416536 0.000020 0.000004 0.000013
Al -4.801861 0.879189 7.544752 -0.000011 -0.000001 0.000027
Al -4.802667 0.893360 -2.690882 0.000018 -0.000017 0.000040
Ga -6.398601 3.618971 2.451209 -0.000005 -0.000003 0.000006
Ga -6.401798 3.620018 7.532732 -0.000013 0.000003 -0.000062
Al -6.400466 3.612783 -2.702046 -0.000001 0.000006 -0.000001
Ga -3.212606 -1.871576 2.427792 0.000029 -0.000014 0.000017
Ga -3.217914 -1.875143 7.537225 0.000013 -0.000013 0.000015
Ga -3.208079 -1.879329 -2.685227 -0.000029 0.000039 0.000044
Al -1.588375 0.885362 2.402971 -0.000130 -0.000086 0.000104
Al -1.606610 0.898641 7.558616 0.000016 -0.000020 0.000061
Ga -1.615117 0.895196 -2.690164 -0.000005 -0.000043 -0.000010
Ga -3.194220 3.637767 2.441570 0.000003 0.000027 -0.000017
Ga -3.196129 3.624290 7.550371 0.000009 -0.000000 -0.000016
Ga -3.207422 3.612746 -2.708449 0.000027 -0.000013 -0.000013
Al -0.021048 -1.863601 2.429711 -0.000001 0.000011 0.000024
Ga -0.014419 -1.862263 7.562652 0.000009 -0.000117 0.000043
Ga -0.016735 -1.863724 -2.704696 0.000007 -0.000026 -0.000031
Al -0.014856 1.810001 4.984930 0.000067 0.000056 -0.000096
Ga -0.021843 1.794353 -5.306081 0.000005 0.000037 0.000002
Al -0.019451 1.793719 -0.133034 -0.000057 -0.000016 0.000244
Al 3.180855 -3.713708 4.976096 0.000002 0.000121 0.000182
Ga 3.166521 -3.721917 -5.296398 0.000006 0.000023 0.000019
Ga 3.176630 -3.726014 -0.122016 -0.000026 0.000020 -0.000002
Ga 1.579256 -0.949314 4.958510 0.000038 0.000004 0.000030
Al 1.570065 -0.940630 -5.294329 -0.000016 0.000027 0.000046
Ga 1.571049 -0.934914 -0.104869 0.000000 -0.000006 0.000053
Al 3.148961 1.794618 5.000986 0.000028 -0.000017 -0.000018
Ga 3.165197 1.779253 -5.286394 0.000008 0.000019 0.000013
Al 3.158599 1.787075 -0.163050 0.000014 -0.000080 -0.000035
Al 6.329397 -3.728921 4.978001 -0.000022 -0.000010 0.000009
Ga 6.333848 -3.724193 -5.281357 0.000014 -0.000006 0.000073
Ga 6.339715 -3.728747 -0.133160 0.000007 0.000003 0.000013
Al 4.740438 -0.961096 4.990897 0.000033 0.000007 0.000006
Ga 4.748986 -0.935739 -5.288566 -0.000015 -0.000015 -0.000017
Al 4.755050 -0.938261 -0.139791 -0.000024 -0.000002 0.000047
Ga -3.203641 1.792978 4.991416 0.000020 0.000031 0.000012
Al -3.212171 1.785460 -5.308314 0.000023 0.000016 0.000027
Al -3.207710 1.774422 -0.126797 -0.000030 0.000001 0.000021
Al -0.025874 -3.714629 4.982847 0.000018 -0.000027 0.000050
Ga -0.017642 -3.716677 -5.278702 0.000096 0.000038 0.000051
Ga -0.032689 -3.725220 -0.136726 0.000014 -0.000014 0.000048
Ga -1.611932 -0.952270 4.982988 -0.000019 -0.000030 0.000006
Ga -1.611691 -0.941006 -5.303078 0.000079 0.000041 0.000056
Al -1.617376 -0.939421 -0.111898 0.000007 -0.000017 0.000019
N 1.567516 0.941026 4.343178 -0.000066 0.000033 0.000179
N 1.569892 0.838232 -5.967697 0.000020 -0.000027 -0.000041
N 1.563143 0.922179 -0.777866 -0.000008 0.000032 -0.000079
N -0.024645 3.624948 4.370107 -0.000000 0.000033 0.000065
N -0.021216 3.632623 -5.996727 -0.000011 -0.000013 -0.000148
N -0.024207 3.580525 -0.790648 0.000007 -0.000057 -0.000068
N 3.207891 -1.900848 4.353758 0.000013 -0.000034 -0.000016
N 3.120660 -1.853136 -5.898155 -0.000018 0.000000 -0.000041
N 3.194142 -1.852847 -0.737732 0.000040 -0.000014 -0.000031
N -4.843906 0.857282 4.394827 -0.000068 -0.000034 -0.000001
N -4.762083 0.904479 -5.971015 0.000040 0.000027 -0.000032
N -4.793067 0.882826 -0.757806 0.000033 -0.000015 -0.000049
N -6.389727 3.627050 4.436424 -0.000017 -0.000034 -0.000036
N -6.391750 3.630423 -5.925281 -0.000084 -0.000034 -0.000032
N -6.392531 3.584581 -0.791678 0.000009 0.000029 -0.000043
N -3.248189 -1.897596 4.408985 -0.000050 -0.000009 -0.000018
N -3.210808 -1.881826 -5.922021 -0.000082 -0.000049 -0.000071
N -3.201051 -1.829791 -0.701057 -0.000005 0.000015 -0.000029
N -1.566611 0.909204 4.320143 0.000127 0.000021 -0.000001
N -1.651454 0.911515 -5.957710 0.000010 -0.000023 -0.000038
N -1.612787 0.882183 -0.698027 0.000033 0.000014 -0.000054
N -3.203456 3.679778 4.417002 -0.000007 0.000030 0.000002
N -3.206184 3.588808 -5.901120 -0.000018 -0.000039 -0.000028
N -3.202682 3.578630 -0.730162 0.000029 0.000003 -0.000020
N -0.025745 -1.921732 4.336092 -0.000011 -0.000025 -0.000064
N 0.022818 -1.854896 -5.894524 0.000014 -0.000006 0.000009
N -0.059095 -1.846039 -0.728896 0.000009 -0.000003 0.000015
N -0.016239 1.802906 1.795371 -0.000121 -0.000004 0.000135
N -0.023557 1.794488 6.921844 -0.000006 0.000003 -0.000019
N 0.018768 1.818332 -3.315910 0.000025 0.000045 -0.000016
N 3.210002 -3.694815 1.856391 -0.000050 0.000029 -0.000048
N 3.203322 -3.732656 6.895588 0.000064 -0.000057 0.000013
N 3.208453 -3.741615 -3.314270 0.000005 0.000005 -0.000046
N 1.572949 -0.952483 1.884904 0.000021 -0.000016 -0.000099
N 1.570316 -0.905807 6.930047 0.000061 0.000097 -0.000082
N 1.568905 -0.898239 -3.371308 -0.000022 0.000017 -0.000040
N 3.113766 1.774379 1.754724 -0.000012 -0.000051 0.000021
N 3.155951 1.743967 6.918889 -0.000011 -0.000038 -0.000099
N 3.161992 1.790183 -3.286207 0.000002 -0.000000 -0.000024
N 6.299397 -3.746510 1.839314 -0.000037 -0.000020 -0.000013
N 6.298858 -3.739410 6.888182 -0.000025 0.000003 -0.000053
N 6.341173 -3.762215 -3.291264 0.000032 -0.000039 -0.000064
N 4.707244 -0.980902 1.768005 0.000018 0.000010 -0.000051
N 4.745719 -0.908664 6.899978 -0.000010 0.000018 -0.000026
N 4.756030 -0.900800 -3.311556 -0.000017 -0.000002 -0.000024
N -3.170196 1.770557 1.787552 0.000069 -0.000024 -0.000061
N -3.204169 1.745931 6.964631 -0.000004 -0.000018 -0.000059
N -3.249342 1.763384 -3.380068 -0.000002 -0.000007 -0.000033
N -0.028167 -3.673178 1.834655 0.000030 0.000001 -0.000051
N -0.020906 -3.708422 6.891320 0.000004 0.000002 -0.000062
N -0.065415 -3.737561 -3.300937 -0.000000 -0.000003 0.000011
N -1.573552 -0.934077 1.806073 0.000022 0.000024 -0.000050
N -1.610838 -0.902854 6.956798 -0.000104 0.000058 -0.000075
N -1.617626 -0.948796 -3.334981 -0.000015 0.000004 -0.000030
