108
Energy=-8.486435e+05 Lattice="9.448098e+00 0.000000e+00 0.000000e+00 -4.727389e+00 8.177459e+00 0.000000e+00 -1.287708e-02 -7.867304e-03 1.519581e+01" Stress="1.295752e-03 -2.306001e-04 -5.759722e-04 -2.333088e-04 4.392500e-04 -3.348486e-04 -5.903524e-04 -3.392201e-04 1.967856e-03" Properties=species:S:1:pos:R:3:forces:R:3 Config_type=AlGaN_super3_9_1_30.xyz
Al 1.550237e+00 8.689283e-01 2.422738e+00 -3.434060e-04 -2.137963e-04 3.510276e-04
Al 1.550495e+00 8.730418e-01 7.446520e+00 -3.387390e-05 7.527298e-05 4.945189e-06
Al 1.553150e+00 8.727992e-01 -2.719669e+00 9.226724e-05 -4.950155e-06 -5.053603e-04
Al -9.808522e-03 3.597622e+00 2.419345e+00 3.708228e-05 3.086500e-05 1.871840e-05
Al -3.077476e-02 3.590206e+00 7.445363e+00 -3.915869e-05 -1.531736e-05 -2.818058e-05
Al -2.001927e-02 3.590898e+00 -2.715395e+00 -9.751856e-06 -5.634953e-05 -6.867734e-05
Al 3.135116e+00 -1.846122e+00 2.414697e+00 4.142731e-05 -5.103228e-05 -1.096825e-05
Al 3.130099e+00 -1.861069e+00 7.447570e+00 1.012270e-04 -3.834901e-05 4.339293e-05
Al 3.129022e+00 -1.849816e+00 -2.710821e+00 -4.314492e-05 -2.448689e-05 -1.173601e-04
Al -4.746312e+00 8.601766e-01 2.402934e+00 -3.154299e-04 -2.843550e-04 2.372208e-04
Al -4.759715e+00 8.635351e-01 7.435501e+00 8.312873e-05 2.326219e-05 -1.586262e-04
Al -4.752279e+00 8.694313e-01 -2.689672e+00 5.840134e-05 2.072561e-04 -8.019350e-06
Al -6.338155e+00 3.598067e+00 2.391147e+00 -5.008366e-04 -3.372408e-04 2.410015e-04
Al -6.340275e+00 3.578767e+00 7.462169e+00 -7.553614e-06 -3.189977e-05 -7.718024e-05
Al -6.319169e+00 3.594038e+00 -2.700904e+00 6.821353e-05 4.838704e-06 1.895788e-06
Al -3.173980e+00 -1.859388e+00 2.381006e+00 -9.488718e-05 -5.443444e-05 -5.102994e-05
Al -3.184407e+00 -1.859238e+00 7.446758e+00 -5.898763e-06 4.839046e-05 -1.067447e-06
Ga -3.172562e+00 -1.853734e+00 -2.679280e+00 -2.406342e-05 -5.055345e-06 -3.962206e-05
Al -1.602201e+00 8.605814e-01 2.400240e+00 1.810333e-04 -2.856904e-04 3.054332e-04
Al -1.603701e+00 8.685598e-01 7.437800e+00 2.226831e-05 3.024240e-05 -5.917865e-05
Al -1.587952e+00 8.751699e-01 -2.684859e+00 1.637556e-04 -3.592861e-04 -3.506097e-04
Ga -3.175276e+00 3.585993e+00 2.390590e+00 -1.928734e-06 3.793416e-05 -6.746608e-05
Al -3.168578e+00 3.585704e+00 7.453328e+00 2.032748e-04 -1.385565e-04 2.283855e-05
Al -3.175558e+00 3.601667e+00 -2.685929e+00 4.851941e-06 -1.209046e-04 -2.556250e-05
Al -3.247064e-02 -1.848788e+00 2.393005e+00 4.359804e-05 -6.255054e-06 1.573133e-04
Ga -2.917866e-02 -1.850499e+00 7.467616e+00 -6.809481e-05 1.026774e-05 -7.254131e-05
Al -1.568085e-02 -1.855189e+00 -2.703484e+00 6.094948e-05 -1.036231e-04 -2.316679e-04
Al -2.904713e-02 1.775270e+00 4.922723e+00 4.205141e-05 -7.144556e-06 -1.660626e-05
Al -1.324979e-02 1.779606e+00 -5.228945e+00 -1.957751e-05 -7.174689e-06 -3.772973e-05
Ga -2.890163e-02 1.781145e+00 -1.393096e-01 4.124947e-06 1.346814e-04 7.872274e-05
Al 3.138715e+00 -3.671895e+00 4.934697e+00 2.114039e-04 4.745775e-05 8.054940e-05
Al 3.137178e+00 -3.664375e+00 -5.221551e+00 -3.775226e-05 4.875823e-05 -3.534125e-05
Ga 3.139857e+00 -3.667909e+00 -1.561245e-01 -3.140266e-05 -2.636948e-05 -4.243390e-05
Al 1.556491e+00 -9.418406e-01 4.919229e+00 -9.170791e-05 1.056368e-05 -1.621754e-04
Al 1.564073e+00 -9.425477e-01 -5.213372e+00 2.539190e-04 9.969948e-05 1.433916e-04
Ga 1.551604e+00 -9.545844e-01 -1.480012e-01 -6.549666e-05 -1.356912e-05 3.918627e-05
Al 3.117296e+00 1.771213e+00 4.921184e+00 -9.567685e-06 -2.168179e-04 1.451244e-04
Al 3.123765e+00 1.779803e+00 -5.221209e+00 4.421403e-05 -3.358006e-05 -7.155017e-05
Ga 3.138664e+00 1.784852e+00 -1.456309e-01 -8.666592e-06 -7.326578e-06 8.177345e-06
Al 6.267026e+00 -3.673249e+00 4.928148e+00 3.199132e-05 -7.571676e-06 4.354870e-05
Al 6.282019e+00 -3.673116e+00 -5.236019e+00 -6.284390e-05 2.705981e-05 -1.073746e-04
Al 6.286472e+00 -3.666195e+00 -1.405804e-01 -6.499993e-04 -1.934428e-04 1.242943e-04
Al 4.701754e+00 -9.525106e-01 4.921877e+00 -6.989360e-05 2.917338e-05 4.749987e-07
Al 4.700453e+00 -9.496241e-01 -5.237987e+00 2.325346e-05 1.567344e-07 -2.474880e-04
Al 4.712378e+00 -9.438856e-01 -1.323816e-01 -3.072005e-04 2.033834e-04 4.145552e-04
Al -3.173349e+00 1.761196e+00 4.939514e+00 2.742137e-05 -3.689539e-04 2.258437e-04
Ga -3.168152e+00 1.777856e+00 -5.218138e+00 8.268168e-05 -5.037094e-05 -2.150271e-05
Al -3.177242e+00 1.763602e+00 -1.629037e-01 1.799040e-04 1.390169e-04 -2.472877e-04
Ga -3.368920e-02 -3.677599e+00 4.932561e+00 -1.041714e-04 9.669341e-05 -1.092536e-05
Al -2.086860e-02 -3.672142e+00 -5.212095e+00 9.007162e-05 -1.592505e-05 -4.746713e-07
Al -3.608246e-02 -3.668044e+00 -1.585227e-01 1.182696e-04 6.142526e-05 -3.095690e-04
Al -1.612339e+00 -9.429328e-01 4.909063e+00 -4.478344e-05 -3.085820e-05 2.247584e-04
Al -1.592646e+00 -9.455353e-01 -5.215163e+00 -9.505396e-05 2.379430e-04 5.662164e-05
Al -1.600709e+00 -9.499006e-01 -1.390280e-01 -2.801555e-04 -1.079851e-04 2.249150e-05
N 1.546182e+00 8.692708e-01 4.333149e+00 6.217234e-05 -4.313337e-05 -9.315423e-07
N 1.556986e+00 8.716490e-01 -5.824069e+00 5.759718e-05 2.854065e-05 -1.579813e-05
N 1.552142e+00 8.723638e-01 -8.168009e-01 5.360841e-05 -1.551646e-05 5.413981e-04
N -2.481560e-02 3.595129e+00 4.335414e+00 6.081603e-05 4.235478e-05 2.873558e-05
N -2.217483e-02 3.597263e+00 -5.828827e+00 -2.095810e-05 3.483204e-07 2.807320e-05
N 2.385615e-02 3.618326e+00 -8.048883e-01 1.351675e-04 1.106956e-04 2.103760e-04
N 3.127580e+00 -1.858253e+00 4.329778e+00 9.234025e-06 5.378555e-06 -1.091508e-05
N 3.130118e+00 -1.855231e+00 -5.828565e+00 1.217405e-06 4.910838e-05 2.843347e-05
N 3.175171e+00 -1.825868e+00 -8.008171e-01 -1.917203e-04 -9.266368e-05 1.256639e-05
N -4.748141e+00 8.669291e-01 4.327242e+00 1.162913e-04 1.826819e-05 2.170546e-05
N -4.785660e+00 8.509157e-01 -5.850299e+00 -2.803270e-05 4.063447e-05 2.244717e-04
N -4.711533e+00 8.396355e-01 -7.753417e-01 3.739807e-05 1.619753e-04 -3.649985e-05
N -6.372863e+00 3.571157e+00 4.302115e+00 -2.966530e-05 3.602051e-04 -3.527221e-04
N -6.319017e+00 3.594127e+00 -5.818851e+00 -4.287949e-06 5.150168e-05 7.327768e-05
N -6.327537e+00 3.642768e+00 -7.809286e-01 2.509806e-04 -4.599064e-06 -1.623505e-04
N -3.177479e+00 -1.862189e+00 4.307556e+00 3.602718e-05 2.610991e-05 -9.076632e-06
N -3.164761e+00 -1.851816e+00 -5.827161e+00 1.911586e-05 -7.623730e-06 4.793135e-05
N -3.173166e+00 -1.854044e+00 -6.932126e-01 6.363700e-04 -2.014774e-04 -1.384060e-04
N -1.606375e+00 8.697054e-01 4.319671e+00 1.422514e-04 -7.079375e-05 5.876626e-05
N -1.551883e+00 8.480962e-01 -5.849034e+00 3.117685e-05 -1.896260e-04 3.831599e-04
N -1.631028e+00 8.438549e-01 -7.712093e-01 -6.097000e-05 6.707672e-05 3.709864e-04
N -3.135242e+00 3.565254e+00 4.361745e+00 -1.867735e-04 3.024855e-04 -4.075241e-04
N -3.166284e+00 3.645151e+00 -5.832281e+00 7.957784e-05 -7.312662e-05 8.432166e-05
N -3.214808e+00 3.576870e+00 -7.621624e-01 1.004219e-04 -2.977383e-04 -6.042338e-05
N -2.760520e-02 -1.811567e+00 4.307272e+00 -1.896606e-05 -3.665531e-05 -1.352545e-04
N -1.522108e-02 -1.850115e+00 -5.757036e+00 -4.030001e-04 -2.771238e-04 -1.617562e-04
N -6.386801e-02 -1.874804e+00 -7.809262e-01 4.231139e-05 -8.272274e-05 2.443452e-04
N -2.408616e-02 1.778206e+00 1.847610e+00 3.351112e-05 1.975371e-04 -1.212865e-04
N -2.759788e-02 1.773706e+00 6.843788e+00 1.353258e-05 9.088426e-05 -3.823884e-05
N -2.524244e-02 1.778478e+00 -3.309007e+00 -4.622747e-05 -2.599731e-05 -4.614196e-05
N 3.175213e+00 -3.648616e+00 1.820217e+00 -1.802599e-04 1.261626e-04 -6.173759e-05
N 3.126296e+00 -3.675917e+00 6.851360e+00 1.728627e-05 1.252477e-04 1.855765e-05
N 3.128833e+00 -3.673005e+00 -3.296762e+00 -4.068773e-05 8.110004e-05 2.250146e-05
N 1.553313e+00 -9.474196e-01 1.839123e+00 2.453918e-04 -2.568259e-04 -1.597282e-04
N 1.588971e+00 -9.285696e-01 6.832171e+00 -1.079453e-04 9.064408e-05 5.263957e-05
N 1.557471e+00 -9.471694e-01 -3.297860e+00 -9.819662e-05 7.445428e-05 3.568837e-05
N 3.122660e+00 1.773028e+00 1.839385e+00 9.381681e-04 3.462833e-04 -1.348603e-04
N 3.118127e+00 1.776636e+00 6.840424e+00 -7.046034e-06 -3.306725e-05 -7.387097e-07
N 3.132826e+00 1.780978e+00 -3.300149e+00 2.793675e-05 3.904008e-05 4.523849e-05
N 6.272955e+00 -3.678636e+00 1.781899e+00 4.416971e-05 2.286536e-05 5.208120e-05
N 6.273156e+00 -3.676723e+00 6.851647e+00 2.777601e-05 6.580078e-06 2.515585e-05
N 6.282234e+00 -3.713926e+00 -3.326465e+00 6.110611e-05 4.260110e-06 6.657436e-05
N 4.696285e+00 -9.462894e-01 1.791917e+00 -1.941020e-05 9.803042e-06 8.647168e-05
N 4.697767e+00 -9.546175e-01 6.841453e+00 -8.059259e-05 -1.602181e-05 -4.480131e-05
N 4.668508e+00 -9.210882e-01 -3.328791e+00 -2.411542e-05 -1.936520e-04 1.913212e-04
N -3.173947e+00 1.722790e+00 1.758110e+00 -4.546514e-04 3.528418e-04 -5.096911e-04
N -3.179176e+00 1.771223e+00 6.856519e+00 2.390386e-06 -4.679573e-06 9.772222e-06
N -3.169578e+00 1.778681e+00 -3.240503e+00 -1.736058e-04 2.220419e-04 1.095667e-04
N -6.616614e-02 -3.651401e+00 1.764977e+00 1.448939e-04 4.562558e-04 1.841628e-04
N -3.163883e-02 -3.724053e+00 6.895928e+00 -1.497578e-04 1.326041e-04 -1.042735e-04
N -1.852026e-02 -3.675519e+00 -3.293857e+00 -2.450150e-06 -5.697760e-05 2.504901e-05
N -1.596832e+00 -9.458107e-01 1.785354e+00 4.231195e-05 -1.181942e-04 1.167670e-05
N -1.645391e+00 -9.308335e-01 6.822073e+00 -3.254645e-05 -8.194455e-05 -3.481546e-04
N -1.560054e+00 -9.200984e-01 -3.306818e+00 -1.282708e-05 1.512021e-04 -4.164563e-05
