108
Energy=-2313458.199361 Lattice="9.587317 0.000000 0.000000 -4.809818 8.308020 0.000000 -0.032618 -0.108788 15.421937" Stress="-0.000129 0.000011 -0.000007 0.000011 -0.000096 -0.000024 -0.000007 -0.000024 -0.000160" Properties=species:S:1:pos:R:3:forces:R:3
Al 1.549156 0.845965 2.444750 0.000712 -0.006453 -0.002409
Al 1.555379 0.828750 7.556236 -0.000763 -0.005176 0.000454
Al 1.587084 0.933640 -2.742974 0.000347 -0.007165 -0.000125
Al -0.035586 3.599604 2.421978 -0.000704 0.000778 0.001857
Ga -0.034242 3.590045 7.557879 -0.002550 -0.001884 0.000960
Ga -0.002087 3.691968 -2.737400 -0.001048 -0.000949 0.000697
Ga 3.176750 -1.951223 2.436466 -0.001202 0.001281 -0.003113
Al 3.173282 -1.949327 7.564933 -0.000746 -0.000775 0.000925
Ga 3.203321 -1.850504 -2.728070 -0.001939 0.000822 0.002179
Ga -4.851027 0.855892 2.426692 0.002482 -0.006095 -0.000560
Ga -4.859169 0.836126 7.565565 0.001476 -0.006661 -0.000912
Ga -4.822730 0.941458 -2.726347 0.000081 -0.007404 -0.001920
Ga -6.446974 3.597019 2.426522 -0.000078 0.001264 -0.000023
Ga -6.447036 3.594529 7.572692 0.000452 -0.000591 0.001375
Ga -6.417964 3.697819 -2.738987 0.001069 -0.000075 0.001078
Ga -3.229082 -1.949058 2.442282 0.000357 0.001997 -0.002404
Ga -3.232543 -1.958804 7.570074 0.000108 0.001966 0.000804
Ga -3.196731 -1.857773 -2.726716 -0.000030 0.001155 0.002433
Ga -1.661970 0.865619 2.434878 0.006751 -0.004681 -0.003003
Ga -1.664571 0.844442 7.558926 0.008277 -0.003295 -0.002094
Ga -1.636820 0.944660 -2.723175 0.008603 -0.004340 -0.002283
Al -3.249098 3.610029 2.428665 0.006457 0.003669 -0.000731
Ga -3.265557 3.604379 7.568141 0.008216 0.002467 -0.000033
Ga -3.232247 3.699856 -2.729290 0.006003 0.003762 0.000593
Ga -0.042457 -1.945983 2.441659 0.006828 0.004460 -0.003170
Ga -0.037033 -1.948576 7.576084 0.006728 0.004072 -0.000644
Ga -0.009317 -1.842661 -2.738750 0.007938 0.003167 -0.000889
Al -0.029621 1.757165 4.987062 -0.005658 -0.001343 0.000925
Ga 0.008719 1.854991 -5.298516 -0.007145 -0.002889 -0.000491
Ga 0.001330 1.859090 -0.171933 -0.007139 -0.008375 0.010503
Ga 3.186367 -3.795733 4.991945 -0.005951 -0.004251 0.000577
Ga 3.212452 -3.682192 -5.300381 -0.006158 -0.003365 -0.001058
Al 3.208105 -3.722489 -0.175370 -0.005968 0.000224 0.013946
Ga 1.590697 -1.029465 5.005213 -0.007923 0.005363 -0.001774
Al 1.621790 -0.931353 -5.302676 -0.006601 0.004131 -0.000562
Ga 1.623039 -0.934078 -0.163023 -0.007590 0.002193 0.008982
Ga 3.135059 1.758324 4.997923 0.000582 -0.001065 0.001336
Ga 3.169124 1.861239 -5.296689 -0.000216 -0.000022 0.000240
Ga 3.174872 1.858846 -0.179845 -0.001571 -0.004904 0.013056
Ga 6.359197 -3.795829 4.990559 -0.000731 -0.000556 0.001665
Al 6.398146 -3.687553 -5.295115 -0.000163 -0.000792 0.000681
Al 6.378318 -3.711209 -0.178593 0.000923 0.001441 0.015615
Ga 4.767308 -1.035737 5.008059 -0.000265 0.008911 -0.000349
Ga 4.795580 -0.937572 -5.293013 -0.000682 0.007350 -0.000605
Ga 4.802056 -0.945256 -0.157928 -0.002386 0.003825 0.007163
Ga -3.253691 1.768635 4.988887 0.000242 -0.000530 0.000818
Ga -3.229704 1.869529 -5.295688 0.001317 -0.000230 0.000244
Al -3.231111 1.850306 -0.181686 0.000913 0.000458 0.015386
Ga -0.040477 -3.788372 4.993744 0.001088 -0.000432 0.001346
Al -0.011532 -3.680162 -5.290714 0.000082 -0.000027 0.000038
Ga -0.010049 -3.690961 -0.164886 0.000585 -0.002945 0.010464
Ga -1.631839 -1.026939 5.005304 -0.000576 0.008925 -0.001192
Ga -1.599122 -0.935915 -5.290085 -0.000547 0.008364 -0.001889
Ga -1.606015 -0.937142 -0.162321 -0.002207 0.004640 0.008658
N 1.534301 0.851071 4.369544 -0.008661 -0.003095 -0.006025
N 1.586303 0.918519 -5.932105 0.000699 -0.017194 -0.007413
N 1.587099 0.936907 -0.818694 -0.000749 -0.008708 -0.009487
N -0.036607 3.575562 4.365479 -0.001001 -0.010808 -0.009254
N 0.014383 3.707770 -5.902193 0.008063 0.005467 0.003152
N -0.010004 3.706080 -0.775614 -0.001474 0.010822 0.007110
N 3.178543 -1.952420 4.386899 -0.001387 0.000756 -0.000434
N 3.189371 -1.837260 -5.923054 -0.009945 0.005417 -0.009578
N 3.205058 -1.882873 -0.762166 -0.000734 -0.012855 0.001152
N -4.851940 0.844064 4.385456 0.000861 -0.007777 0.001482
N -4.820757 0.945015 -5.903741 0.000755 -0.008064 0.000955
N -4.802180 0.946854 -0.775228 0.009240 -0.003466 0.006878
N -6.443570 3.597855 4.383039 0.000569 0.000388 -0.000982
N -6.411807 3.722916 -5.887094 0.000615 0.010823 0.007021
N -6.432767 3.707077 -0.777572 -0.009445 0.005703 0.003410
N -3.227093 -1.949697 4.392276 0.000187 0.001225 -0.000258
N -3.195654 -1.871489 -5.895167 -0.000243 -0.009364 0.002803
N -3.197783 -1.883424 -0.764235 -0.000002 -0.011548 0.000509
N -1.646798 0.861198 4.392866 0.015641 -0.001123 0.005884
N -1.636814 0.949397 -5.908444 0.007584 -0.005312 0.002580
N -1.658068 0.949991 -0.769581 -0.000965 -0.000065 0.007082
N -3.260592 3.605141 4.359772 0.006543 0.003627 -0.011352
N -3.252222 3.716982 -5.897305 -0.002384 0.008492 0.004459
N -3.217148 3.682420 -0.765565 0.014105 -0.004150 0.006597
N -0.045540 -1.946963 4.391594 0.007053 0.003951 0.001332
N 0.007234 -1.854714 -5.885955 0.014655 -0.002882 0.007548
N -0.011795 -1.848352 -0.784203 0.005998 0.001928 0.001288
N -0.006706 1.771044 1.830712 0.002981 0.005850 -0.001363
N -0.010939 1.744059 6.927158 0.002729 -0.008736 -0.007309
N 0.019590 1.843477 -3.338502 0.001511 -0.008520 0.004482
N 3.188407 -3.797220 1.827461 -0.004736 -0.013912 -0.016490
N 3.183363 -3.772959 6.956890 -0.006588 0.008100 0.004567
N 3.214300 -3.691001 -3.344395 -0.006620 -0.003562 0.000847
N 1.588788 -1.003808 1.838021 -0.006954 0.016741 -0.004356
N 1.609733 -1.023370 6.964347 0.000987 0.007810 0.009383
N 1.624987 -0.910003 -3.366123 -0.007636 0.013087 -0.006907
N 3.118147 1.746183 1.828035 -0.006503 -0.002141 -0.008751
N 3.123997 1.746929 6.960363 -0.008822 -0.005383 0.002501
N 3.156706 1.847523 -3.337812 -0.008198 -0.005631 0.002900
N 6.348601 -3.783626 1.820317 -0.009314 -0.007306 -0.021860
N 6.362547 -3.793969 6.947078 0.000850 0.000226 -0.001615
N 6.392761 -3.689246 -3.367781 -0.000238 -0.000462 -0.012880
N 4.770363 -1.028885 1.823040 0.000224 0.012162 -0.006647
N 4.749707 -1.047775 6.965008 -0.009590 0.001912 0.004239
N 4.799536 -0.935382 -3.336512 -0.000488 0.007683 0.000093
N -3.251706 1.805753 1.818706 0.000076 0.007399 -0.021465
N -3.260685 1.763293 6.947908 0.000228 -0.000953 -0.000971
N -3.227496 1.861845 -3.341662 0.000727 -0.000942 -0.001165
N -0.018933 -3.797681 1.832092 0.009411 -0.001634 -0.006540
N -0.043806 -3.788668 6.951742 -0.000416 0.000483 -0.001470
N -0.011015 -3.686180 -3.362227 0.000532 -0.000578 -0.011925
N -1.636753 -1.026606 1.827891 0.001620 0.012146 -0.007763
N -1.634345 -1.034777 6.959454 -0.000395 0.006712 0.000898
N -1.605223 -0.930172 -3.337176 -0.001038 0.007844 0.000341
