108
Energy=-1443724.834977 Lattice="9.508693 0.000000 0.000000 -4.757223 8.231513 0.000000 0.002797 0.011848 15.347527" Stress="-0.000015 -0.000001 -0.000000 -0.000001 -0.000019 0.000003 -0.000000 0.000003 -0.000020" Properties=species:S:1:pos:R:3:forces:R:3
Al 1.562688 0.894436 2.425204 -0.000220 -0.000056 0.000478
Al 1.536822 0.882286 7.555371 0.003377 0.003387 -0.000346
Al 1.549197 0.879609 -2.752029 -0.000161 0.000253 -0.000005
Al -0.020105 3.617509 2.409132 -0.000268 -0.000278 -0.000959
Al -0.037642 3.596944 7.513763 0.000492 0.000021 0.000326
Al -0.013846 3.597678 -2.690182 -0.000261 0.000223 0.000111
Ga 3.172262 -1.876724 2.419417 -0.001105 -0.000029 -0.000150
Ga 3.150162 -1.862030 7.523106 0.000401 0.000295 0.000620
Ga 3.144471 -1.870145 -2.704775 -0.000084 0.000028 0.000230
Al -4.781417 0.885665 2.392971 0.001127 -0.001688 0.001428
Al -4.774131 0.882230 7.545972 -0.000533 0.000026 -0.000176
Ga -4.779000 0.883286 -2.711511 0.000444 -0.000081 -0.000113
Al -6.372011 3.624968 2.422229 0.000954 -0.001154 -0.002426
Ga -6.344335 3.620272 7.533549 -0.000106 -0.000522 0.000377
Al -6.371168 3.612080 -2.718625 -0.000518 0.000056 0.000256
Al -3.205724 -1.866683 2.393214 0.005867 -0.000733 -0.003079
Ga -3.193106 -1.852374 7.534917 -0.000396 0.000153 0.000729
Ga -3.181979 -1.878608 -2.687791 -0.000198 0.000095 0.000589
Ga -1.612623 0.886660 2.407172 0.000474 -0.001232 0.000168
Al -1.595826 0.901853 7.529119 -0.000074 -0.000117 0.000521
Al -1.600911 0.884139 -2.711639 0.000090 -0.000106 0.000118
Al -3.192585 3.614828 2.405996 0.000508 0.000873 0.000339
Al -3.194142 3.625496 7.524991 -0.001418 -0.000592 0.002670
Ga -3.196886 3.609227 -2.708620 0.000562 -0.000578 -0.000243
Ga -0.031744 -1.872637 2.414890 -0.000407 0.000350 -0.000227
Al -0.010209 -1.868022 7.538872 -0.000269 -0.000481 0.000362
Al -0.021513 -1.862231 -2.717243 -0.000306 0.000307 0.000031
Al -0.022293 1.805044 4.978954 0.000370 -0.000146 -0.000151
Al -0.026471 1.789244 -5.259315 -0.000026 -0.001702 0.000461
Ga -0.029927 1.795078 -0.163193 -0.000223 -0.000075 -0.001367
Al 3.147950 -3.709952 4.973049 0.000158 0.000341 -0.000473
Ga 3.144184 -3.712648 -5.274004 -0.000482 0.000006 0.000472
Al 3.163105 -3.709507 -0.141109 0.000112 0.000116 -0.000396
Ga 1.568057 -0.947496 4.990723 -0.000595 0.000457 -0.000441
Al 1.557397 -0.948518 -5.272354 0.000093 -0.000002 0.000292
Ga 1.567337 -0.954354 -0.154627 -0.000492 0.000372 0.000041
Ga 3.147395 1.785781 4.969444 -0.000032 -0.000875 0.000770
Al 3.147971 1.775485 -5.271754 -0.000716 -0.001473 0.000444
Ga 3.143852 1.789322 -0.134867 -0.000511 0.000539 -0.002494
Ga 6.305361 -3.693625 4.949370 -0.000292 -0.000065 0.000233
Ga 6.310521 -3.722561 -5.255021 0.000242 0.000124 0.000757
Al 6.310149 -3.693480 -0.137550 0.000284 0.000019 -0.000222
Al 4.742401 -0.947338 4.958412 -0.000468 -0.000126 -0.000177
Al 4.722705 -0.938311 -5.265158 -0.000138 -0.000279 0.000828
Al 4.750490 -0.958701 -0.131693 0.000226 -0.000631 -0.000409
Ga -3.200752 1.808035 4.981759 0.000126 -0.000332 -0.000037
Al -3.199930 1.777510 -5.298893 0.000324 0.003049 0.001281
Al -3.191573 1.784940 -0.134855 0.000857 -0.000215 -0.000927
Al -0.005308 -3.697773 4.967277 0.000230 0.000243 0.000137
Al -0.017644 -3.699775 -5.252452 -0.000154 -0.002422 -0.001617
Ga -0.028416 -3.700498 -0.150386 0.000045 0.000064 -0.001197
Ga -1.608660 -0.949422 4.990977 0.000052 -0.000029 -0.000074
Ga -1.592731 -0.941777 -5.266277 0.000018 -0.000046 0.000815
Al -1.620054 -0.949596 -0.166482 -0.000253 -0.000023 -0.000125
N 1.515832 0.903975 4.332253 0.000406 0.000197 -0.000570
N 1.550011 0.878560 -5.865566 0.000328 -0.000750 -0.000136
N 1.563113 0.875937 -0.843910 0.000340 -0.000042 -0.000288
N -0.068798 3.596280 4.329423 0.000061 0.000075 0.000043
N -0.027421 3.560832 -5.926795 0.000042 0.000763 -0.000779
N -0.019347 3.663922 -0.776551 -0.000157 0.000206 0.000108
N 3.193541 -1.894163 4.404175 0.000001 -0.000183 -0.000055
N 3.148615 -1.827870 -5.846183 -0.000192 0.000450 -0.000763
N 3.195287 -1.894458 -0.721777 0.000017 0.000203 0.000129
N -4.772740 0.833528 4.312188 -0.000452 0.001114 -0.002482
N -4.783713 0.867337 -5.880990 0.000476 -0.000148 -0.000139
N -4.739660 0.851946 -0.729994 0.000107 0.000111 0.000305
N -6.319985 3.645207 4.334296 -0.000016 0.000402 -0.000797
N -6.324417 3.583582 -5.842443 0.002492 0.003835 0.000440
N -6.407125 3.636744 -0.800032 -0.000256 0.000245 -0.000129
N -3.223073 -1.838503 4.303594 -0.000552 0.000027 0.002060
N -3.232873 -1.852839 -5.847473 0.000072 0.000376 -0.000550
N -3.192503 -1.874438 -0.706862 -0.000408 0.000118 -0.000244
N -1.572495 0.906906 4.379636 0.000027 -0.000293 -0.000220
N -1.598998 0.925186 -5.903878 -0.000986 -0.000014 -0.000077
N -1.655826 0.859708 -0.786581 0.000132 0.000025 -0.000048
N -3.189128 3.670371 4.329880 -0.000453 -0.000362 0.000197
N -3.239925 3.600085 -5.900398 -0.001245 -0.001555 0.000038
N -3.153411 3.593333 -0.732294 -0.000097 -0.000196 -0.000213
N -0.023446 -1.906844 4.378572 0.000193 -0.000230 -0.000020
N 0.019012 -1.902487 -5.891284 -0.000198 -0.000246 -0.000486
N -0.059615 -1.846121 -0.803439 0.000265 -0.000219 -0.000012
N 0.020281 1.809852 1.806802 -0.000197 0.001626 0.001924
N -0.019187 1.790330 6.901170 0.000274 0.000603 -0.000021
N -0.031289 1.792875 -3.329840 0.000144 -0.000050 0.000271
N 3.151962 -3.748733 1.778304 0.000162 -0.000235 0.000616
N 3.144343 -3.746040 6.898928 0.001240 0.000423 -0.001196
N 3.194157 -3.731274 -3.307501 -0.000022 0.000371 -0.000057
N 1.569552 -0.903641 1.822206 0.000234 -0.000319 -0.000049
N 1.523839 -0.916172 6.963016 -0.000192 -0.001179 -0.000355
N 1.523896 -0.937962 -3.350250 -0.000206 0.000048 0.000063
N 3.134482 1.793907 1.843081 0.001946 0.001412 0.003135
N 3.146544 1.743572 6.950576 -0.002204 -0.001358 0.000886
N 3.108717 1.809230 -3.351901 0.000286 -0.000220 -0.000067
N 6.314486 -3.699113 1.801539 0.000285 -0.000459 0.000552
N 6.278005 -3.717529 6.923866 0.000042 0.000039 -0.000403
N 6.310271 -3.749646 -3.284397 0.000420 0.000012 -0.000289
N 4.779019 -0.931519 1.779387 -0.003497 0.003338 -0.000235
N 4.738718 -0.895010 6.867219 0.000010 -0.000095 0.000205
N 4.736973 -0.956053 -3.366613 -0.000236 0.000212 0.000177
N -3.230096 1.818397 1.781753 -0.001569 -0.000453 0.000195
N -3.198499 1.797488 6.970244 0.000211 -0.000089 -0.000116
N -3.154029 1.763978 -3.377086 -0.000086 -0.000372 -0.001572
N -0.020819 -3.743483 1.818755 -0.001652 -0.000907 0.002024
N 0.024682 -3.668302 6.886460 -0.000136 -0.000012 -0.000210
N -0.061617 -3.674195 -3.332056 0.000012 -0.000271 -0.000216
N -1.641192 -0.969715 1.747287 -0.001755 -0.000747 0.001754
N -1.561798 -0.922447 6.967889 -0.000136 -0.000292 -0.000267
N -1.566675 -0.926355 -3.289053 -0.000057 -0.000248 -0.000114
