108
Energy=-1672602.241087 Lattice="9.546941 0.000000 0.000000 -4.778063 8.266141 0.000000 -0.002216 0.005086 15.422221" Stress="0.000003 -0.000002 -0.000000 -0.000002 0.000001 0.000001 -0.000000 0.000001 -0.000005" Properties=species:S:1:pos:R:3:forces:R:3
Al 1.574933 0.892011 2.393356 -0.000296 0.000672 -0.000579
Al 1.569788 0.903646 7.575857 -0.000409 -0.000016 0.000353
Al 1.559724 0.888375 -2.714273 -0.000027 0.000263 0.000160
Al -0.014485 3.619283 2.409486 -0.000051 -0.000033 -0.000133
Al -0.010947 3.613414 7.568490 0.000032 0.000088 -0.000029
Al -0.026744 3.612728 -2.711199 0.000004 -0.000078 0.000087
Al 3.168105 -1.856231 2.401997 0.000293 -0.000302 -0.000510
Ga 3.170365 -1.858024 7.579066 -0.000008 0.000090 0.000030
Ga 3.167144 -1.870959 -2.711152 0.000000 0.000060 -0.000056
Al -4.811990 0.876406 2.395655 0.000796 0.000684 -0.000706
Al -4.813011 0.882887 7.564201 0.000158 -0.000087 0.000061
Ga -4.799546 0.875539 -2.698930 -0.000029 0.000069 0.000052
Al -6.394664 3.613535 2.389575 0.000053 -0.000054 -0.000048
Al -6.402350 3.612827 7.580425 0.000026 0.000132 0.000070
Ga -6.396822 3.616646 -2.701365 0.000012 -0.000087 -0.000035
Ga -3.232362 -1.880554 2.423772 0.000054 -0.000003 0.000044
Ga -3.223502 -1.876712 7.560238 -0.000047 0.000053 -0.000034
Al -3.218248 -1.872157 -2.708433 -0.000091 0.000038 -0.000046
Ga -1.607429 0.907850 2.414971 -0.000109 0.000079 -0.000058
Ga -1.604607 0.904391 7.561067 0.000020 -0.000084 0.000061
Al -1.600765 0.899172 -2.704171 0.000130 0.000052 0.000004
Ga -3.212724 3.624996 2.411132 -0.000063 -0.000161 0.000007
Ga -3.211432 3.622221 7.548988 0.000031 -0.000067 -0.000019
Al -3.196159 3.622380 -2.683934 0.000012 -0.000047 0.000043
Ga -0.005116 -1.878726 2.390461 -0.000111 -0.000089 -0.000066
Ga -0.017161 -1.870117 7.586449 -0.000155 0.000001 0.000052
Ga -0.010128 -1.867339 -2.696640 -0.000056 -0.000037 0.000060
Al -0.018458 1.803869 4.985079 -0.000098 0.000152 -0.000013
Al -0.000722 1.789816 -5.269708 0.000030 -0.000579 0.000211
Al -0.012714 1.789787 -0.165612 0.000107 0.000390 -0.000277
Ga 3.179154 -3.715561 4.970647 0.000030 -0.000006 -0.000000
Ga 3.172945 -3.719232 -5.266150 -0.000081 0.000075 0.000110
Ga 3.159451 -3.716434 -0.147057 0.000109 -0.000097 0.000107
Ga 1.581849 -0.936204 4.978853 -0.000112 -0.000067 0.000074
Al 1.579882 -0.927647 -5.277458 -0.000042 0.000086 0.000008
Al 1.583130 -0.938150 -0.142429 -0.000415 0.000654 0.000162
Ga 3.162169 1.787206 4.980716 0.000146 0.000122 -0.000004
Al 3.144774 1.773094 -5.305618 0.000125 -0.000158 0.000175
Al 3.155211 1.781561 -0.130092 0.000280 -0.000312 -0.000138
Ga 6.336322 -3.730608 4.990681 -0.000027 -0.000069 0.000008
Ga 6.335431 -3.728469 -5.278081 -0.000027 0.000051 0.000065
Ga 6.339758 -3.722363 -0.149281 -0.000046 -0.000122 0.000053
Al 4.744662 -0.935347 4.975480 0.000015 -0.000074 -0.000004
Al 4.741912 -0.944751 -5.277863 -0.000045 -0.000019 0.000005
Al 4.741785 -0.941507 -0.137315 -0.000107 0.000056 0.000049
Al -3.216791 1.780555 4.985921 0.000189 0.000014 -0.000065
Ga -3.214127 1.784022 -5.266032 0.000051 0.000006 0.000054
Al -3.212682 1.796446 -0.162998 -0.000439 -0.000022 0.000039
Ga -0.031969 -3.724044 4.992057 0.000050 -0.000036 -0.000025
Ga -0.021217 -3.723899 -5.272169 0.000099 -0.000054 0.000031
Al -0.013976 -3.729230 -0.149817 0.000020 -0.000078 0.000012
Ga -1.620568 -0.937903 4.988375 -0.000019 -0.000047 0.000002
Ga -1.615170 -0.948258 -5.253055 0.000048 -0.000024 0.000054
Ga -1.618563 -0.941761 -0.167625 0.000117 -0.000038 0.000039
N 1.525552 0.910634 4.311769 -0.000032 -0.000072 0.000152
N 1.560975 0.881270 -5.916182 0.000023 0.000015 0.000146
N 1.572290 0.880387 -0.778397 -0.000090 0.000112 0.000076
N -0.021939 3.580174 4.320424 0.000022 0.000049 0.000035
N -0.025501 3.573361 -5.934575 -0.000001 0.000481 -0.000167
N -0.025572 3.582246 -0.804454 0.000011 -0.000094 -0.000011
N 3.202248 -1.846410 4.323126 -0.000107 0.000178 0.000085
N 3.161358 -1.831696 -5.856274 -0.000006 0.000015 -0.000032
N 3.160958 -1.824518 -0.732934 0.000309 -0.000329 -0.000182
N -4.758423 0.859209 4.323854 -0.000138 -0.000108 0.000191
N -4.836135 0.851990 -5.927133 -0.000023 0.000055 -0.000026
N -4.805013 0.877957 -0.716320 -0.000083 0.000355 0.000176
N -6.391298 3.627740 4.301401 0.000031 -0.000091 0.000031
N -6.391155 3.580261 -5.924463 -0.000019 0.000169 -0.000130
N -6.350836 3.597977 -0.725177 -0.000007 0.000087 -0.000047
N -3.251660 -1.856306 4.397665 0.000004 -0.000013 -0.000012
N -3.248457 -1.853967 -5.884164 -0.000009 -0.000061 -0.000137
N -3.258062 -1.852338 -0.794701 0.000054 -0.000069 0.000087
N -1.612166 0.940205 4.401075 0.000067 -0.000126 0.000025
N -1.568425 0.907967 -5.881141 -0.000069 0.000087 -0.000078
N -1.610199 0.937631 -0.785979 0.000288 -0.000148 -0.000181
N -3.210076 3.584464 4.389663 -0.000012 0.000018 0.000028
N -3.202662 3.626335 -5.909466 -0.000023 -0.000051 -0.000071
N -3.245275 3.610138 -0.770016 -0.000005 0.000060 -0.000100
N -0.017338 -1.875379 4.361013 -0.000002 -0.000051 -0.000067
N 0.021104 -1.851615 -5.859760 -0.000105 -0.000071 -0.000037
N 0.029246 -1.898076 -0.716022 -0.000079 -0.000140 -0.000160
N 0.019423 1.821374 1.752078 0.000424 -0.000375 0.000627
N 0.026481 1.822944 6.910047 0.000006 -0.000014 -0.000020
N -0.015314 1.794453 -3.338204 -0.000005 0.000025 0.000040
N 3.205445 -3.689754 1.837929 -0.000033 0.000208 0.000076
N 3.212245 -3.730074 6.957169 -0.000021 0.000039 -0.000087
N 3.163631 -3.764005 -3.281384 -0.000015 0.000098 -0.000069
N 1.615997 -0.923384 1.776372 -0.000133 -0.000201 0.000299
N 1.572009 -0.898900 6.959719 0.000083 -0.000104 -0.000124
N 1.572415 -0.901102 -3.362530 0.000056 -0.000196 -0.000154
N 3.156367 1.790550 1.793995 0.000047 0.000032 0.000103
N 3.155620 1.795916 6.983736 0.000242 0.000088 -0.000185
N 3.117208 1.766203 -3.381508 -0.000042 -0.000023 -0.000088
N 6.340647 -3.758645 1.827412 0.000040 0.000024 -0.000100
N 6.344762 -3.765393 6.980041 -0.000046 -0.000048 -0.000026
N 6.302295 -3.693731 -3.291905 0.000046 -0.000024 -0.000043
N 4.711335 -0.931643 1.773765 -0.000010 -0.000007 0.000164
N 4.743551 -0.900638 6.893280 -0.000120 -0.000004 0.000053
N 4.791822 -0.973668 -3.370598 -0.000023 -0.000042 0.000065
N -3.245755 1.772476 1.749048 -0.000664 -0.000501 0.000514
N -3.256193 1.765353 6.904564 -0.000032 -0.000001 0.000012
N -3.168741 1.817338 -3.286031 -0.000034 0.000037 -0.000022
N -0.059703 -3.741933 1.758276 -0.000010 0.000009 0.000040
N -0.074425 -3.734501 6.967802 0.000051 -0.000098 -0.000021
N 0.021551 -3.742327 -3.300592 -0.000020 0.000046 -0.000030
N -1.622110 -0.950333 1.800074 -0.000011 -0.000072 0.000069
N -1.614171 -0.952022 6.954712 0.000030 -0.000049 -0.000071
N -1.653853 -0.930740 -3.267009 0.000064 -0.000043 -0.000105
