108
Energy=-1.397949e+06 Lattice="9.509299e+00 0.000000e+00 0.000000e+00 -4.756575e+00 8.232456e+00 0.000000e+00 -3.972586e-04 3.584735e-03 1.534811e+01" Stress="-7.420922e-04 -1.810520e-04 7.376108e-05 -1.889884e-04 -1.052165e-03 -3.823574e-05 6.806289e-05 -3.126091e-05 -5.858365e-04" Properties=species:S:1:pos:R:3:forces:R:3 Config_type=AlGaN_super3_21_1_54.xyz
Al 1.566560e+00 8.689952e-01 2.391010e+00 -3.570815e-05 8.447654e-05 -9.963582e-05
Al 1.547706e+00 8.832515e-01 7.537088e+00 1.164564e-04 6.619834e-05 9.679166e-05
Al 1.581002e+00 8.684090e-01 -2.695412e+00 -1.174501e-04 1.133221e-04 1.473943e-04
Al -3.392457e-02 3.626949e+00 2.416036e+00 7.216263e-05 -7.495819e-05 -3.319627e-05
Al -1.870226e-02 3.609695e+00 7.505460e+00 4.643708e-06 1.011642e-04 -1.946675e-05
Ga -2.441491e-02 3.623156e+00 -2.692684e+00 -8.704991e-05 3.934834e-05 2.729291e-05
Al 3.148097e+00 -1.873208e+00 2.369368e+00 -6.272575e-05 2.800944e-05 2.894031e-06
Ga 3.146260e+00 -1.872553e+00 7.521989e+00 1.784390e-05 1.434148e-05 2.768849e-05
Al 3.144037e+00 -1.861170e+00 -2.663974e+00 -8.236702e-05 1.538347e-04 -7.230087e-05
Al -4.777891e+00 8.722817e-01 2.366465e+00 -9.071972e-05 1.651182e-04 -8.195712e-05
Ga -4.774794e+00 8.813345e-01 7.539670e+00 1.598082e-04 -1.259283e-05 1.346381e-04
Al -4.785466e+00 8.796156e-01 -2.675015e+00 2.983449e-05 1.085803e-05 -4.734670e-05
Ga -6.363734e+00 3.615474e+00 2.414461e+00 8.445831e-06 -4.423689e-05 1.407142e-05
Ga -6.375049e+00 3.621990e+00 7.533142e+00 -1.235738e-05 4.163881e-05 2.443187e-05
Al -6.361622e+00 3.604133e+00 -2.712336e+00 1.078230e-04 7.792771e-05 -7.677260e-05
Al -3.199725e+00 -1.865046e+00 2.387521e+00 -4.811636e-05 -2.070346e-04 1.029210e-04
Ga -3.189672e+00 -1.877842e+00 7.541101e+00 -1.484160e-04 -2.795106e-05 2.619730e-05
Al -3.189462e+00 -1.859231e+00 -2.694094e+00 7.444689e-05 -2.731974e-05 -1.254097e-08
Ga -1.614232e+00 8.807633e-01 2.403387e+00 1.244253e-04 -5.927508e-05 6.050095e-05
Al -1.598041e+00 8.897759e-01 7.505724e+00 1.494353e-04 -1.016723e-04 -1.079669e-05
Al -1.621156e+00 8.662413e-01 -2.675391e+00 -1.539798e-05 1.170646e-04 -7.387051e-05
Al -3.183788e+00 3.621049e+00 2.408014e+00 -1.064057e-04 6.945289e-05 -4.821342e-05
Ga -3.184623e+00 3.617221e+00 7.505336e+00 8.615592e-05 -1.466079e-04 9.331836e-05
Al -3.195296e+00 3.613409e+00 -2.680652e+00 -1.043399e-04 -8.296252e-05 -7.500742e-05
Al -1.421815e-02 -1.863568e+00 2.381612e+00 6.681560e-05 -2.018560e-04 -3.235617e-05
Ga -1.874361e-02 -1.858906e+00 7.559171e+00 8.029746e-05 -1.586188e-04 1.131410e-04
Ga -2.214145e-02 -1.857838e+00 -2.707306e+00 -4.762627e-06 -6.437824e-06 9.260452e-05
Al -2.276670e-02 1.808668e+00 4.965251e+00 -3.549473e-06 -1.242940e-04 -8.073639e-05
Ga -1.339182e-02 1.775224e+00 -5.262450e+00 -1.832061e-04 6.896309e-05 1.312455e-04
Ga -2.072583e-02 1.776083e+00 -1.467146e-01 2.434764e-05 8.614457e-05 6.087356e-05
Al 3.153179e+00 -3.714731e+00 4.930604e+00 8.183220e-06 1.775037e-04 1.004575e-04
Ga 3.143849e+00 -3.692923e+00 -5.245002e+00 -1.359541e-04 1.631365e-04 3.317077e-05
Al 3.135696e+00 -3.692270e+00 -1.315288e-01 -2.112568e-05 -5.802837e-05 8.383421e-06
Ga 1.557580e+00 -9.576607e-01 4.937094e+00 -3.466954e-05 3.450880e-05 1.618506e-05
Al 1.562556e+00 -9.464524e-01 -5.238955e+00 -9.993637e-05 1.030769e-04 7.478577e-05
Al 1.574992e+00 -9.492335e-01 -1.388160e-01 -1.697579e-05 4.443932e-05 -9.352977e-06
Ga 3.144122e+00 1.793518e+00 4.953070e+00 1.418949e-04 -1.570683e-05 8.598265e-05
Al 3.134355e+00 1.793367e+00 -5.236552e+00 1.517975e-04 -6.139681e-05 -9.363768e-05
Al 3.153545e+00 1.771880e+00 -1.554516e-01 -1.576681e-04 -7.066108e-05 8.428263e-05
Al 6.303808e+00 -3.701785e+00 4.944608e+00 6.697404e-05 -7.133290e-05 8.557973e-05
Al 6.332582e+00 -3.700878e+00 -5.240629e+00 1.317427e-04 -9.311151e-05 -1.603772e-05
Ga 6.317392e+00 -3.687119e+00 -1.427576e-01 7.297212e-05 -1.239914e-04 -4.145435e-05
Ga 4.737711e+00 -9.582940e-01 4.924032e+00 -1.031994e-04 -1.258208e-05 4.179666e-05
Ga 4.730266e+00 -9.581278e-01 -5.210822e+00 -7.971537e-05 -6.075292e-05 4.584735e-05
Al 4.729906e+00 -9.471819e-01 -1.584294e-01 2.164778e-05 -2.099943e-06 -7.599290e-05
Al -3.190148e+00 1.805911e+00 4.944389e+00 -5.261299e-05 -7.978568e-05 5.339903e-05
Ga -3.193188e+00 1.787908e+00 -5.227224e+00 9.315773e-05 1.947843e-05 2.208304e-04
Al -3.201369e+00 1.787747e+00 -1.597265e-01 -2.831828e-06 2.564962e-04 -1.011643e-04
Al -1.145051e-02 -3.696681e+00 4.933495e+00 4.101127e-05 -1.103236e-04 4.157657e-05
Al -3.464218e-02 -3.698303e+00 -5.225602e+00 1.863962e-05 1.638583e-05 9.104093e-05
Ga -1.018903e-02 -3.704417e+00 -1.494005e-01 1.357543e-04 8.619916e-05 4.571825e-05
Ga -1.604809e+00 -9.592608e-01 4.953500e+00 -6.654225e-05 -8.373262e-05 9.176000e-05
Al -1.605373e+00 -9.555259e-01 -5.246132e+00 7.726186e-05 1.528496e-04 -7.146686e-05
Al -1.618093e+00 -9.483740e-01 -1.436259e-01 2.004683e-04 -1.747596e-04 -3.714484e-05
N 1.518284e+00 9.017198e-01 4.300050e+00 1.622908e-05 1.243701e-05 2.642798e-05
N 1.603992e+00 8.501361e-01 -5.889008e+00 1.519617e-04 2.058721e-06 -3.012029e-05
N 1.607333e+00 8.469600e-01 -7.799884e-01 7.104504e-05 -6.983322e-05 -2.205633e-04
N -2.398101e-02 3.616416e+00 4.339923e+00 -1.183355e-04 -5.431048e-07 2.447591e-05
N 1.889473e-02 3.643458e+00 -5.909799e+00 8.666619e-05 -2.007025e-05 -6.524193e-05
N -6.615328e-02 3.644371e+00 -7.350125e-01 -6.842721e-05 8.600335e-06 1.167949e-05
N 3.146014e+00 -1.918119e+00 4.285192e+00 4.394313e-05 -1.313176e-04 -4.406954e-05
N 3.109134e+00 -1.845121e+00 -5.856962e+00 -3.689525e-05 3.512706e-05 -1.016082e-04
N 3.143230e+00 -1.871164e+00 -7.374904e-01 -1.168076e-05 -1.861927e-05 8.443085e-05
N -4.736434e+00 9.040498e-01 4.284292e+00 1.686720e-04 6.206228e-05 -4.970116e-05
N -4.817351e+00 8.970452e-01 -5.835978e+00 -1.180616e-04 7.995323e-05 1.351690e-05
N -4.780706e+00 8.767423e-01 -7.541725e-01 1.044967e-04 2.380984e-05 5.955458e-05
N -6.363835e+00 3.665962e+00 4.383165e+00 -1.496219e-04 1.164164e-04 -3.419974e-05
N -6.362119e+00 3.618775e+00 -5.817239e+00 -1.512822e-04 1.555997e-05 7.523771e-05
N -6.364514e+00 3.568812e+00 -7.955973e-01 -7.330931e-05 1.432160e-05 -9.303469e-06
N -3.187618e+00 -1.914461e+00 4.295131e+00 3.538403e-05 4.298443e-06 -1.308240e-04
N -3.154642e+00 -1.895350e+00 -5.826090e+00 4.555388e-05 6.305415e-05 3.450478e-06
N -3.188980e+00 -1.821489e+00 -7.781435e-01 -9.454488e-06 1.149539e-04 -3.825575e-05
N -1.606014e+00 9.255645e-01 4.379513e+00 1.495034e-04 7.927179e-05 -1.369325e-06
N -1.613063e+00 8.327892e-01 -5.920006e+00 -2.879690e-06 -2.198668e-04 -8.954395e-05
N -1.650083e+00 8.488319e-01 -7.615898e-01 2.019705e-06 -7.100219e-05 4.291257e-05
N -3.190245e+00 3.618700e+00 4.335842e+00 1.481408e-05 -7.884970e-05 -7.684223e-05
N -3.238922e+00 3.641859e+00 -5.864691e+00 -2.404747e-05 -9.815179e-05 -1.354131e-04
N -3.149270e+00 3.597621e+00 -7.727240e-01 1.521186e-05 -1.771869e-04 1.499173e-04
N -2.345127e-02 -1.910219e+00 4.289556e+00 5.757656e-05 -7.260121e-05 -2.584300e-06
N -2.016784e-02 -1.871642e+00 -5.793148e+00 -1.323113e-05 -1.274441e-05 3.511080e-05
N -2.155724e-02 -1.816139e+00 -7.272923e-01 -1.005051e-04 9.489093e-05 6.665288e-05
N 1.763360e-02 1.815111e+00 1.821652e+00 8.875056e-05 -2.785105e-05 3.372724e-05
N -1.667868e-02 1.791845e+00 6.906691e+00 -8.520811e-05 9.917870e-05 -4.788017e-05
N -2.491084e-02 1.735325e+00 -3.274659e+00 1.054557e-04 -1.628264e-04 6.701469e-05
N 3.145347e+00 -3.704442e+00 1.791655e+00 -1.577417e-05 2.286299e-05 8.571111e-06
N 3.192676e+00 -3.721299e+00 6.854163e+00 5.575357e-05 -1.713999e-05 -9.385913e-05
N 3.104260e+00 -3.670321e+00 -3.272365e+00 2.656616e-05 4.264556e-05 -2.991435e-05
N 1.565238e+00 -9.498083e-01 1.782535e+00 -1.325075e-04 -1.459691e-05 -1.116477e-05
N 1.560358e+00 -9.053324e-01 6.913942e+00 -3.018270e-04 1.610083e-04 -7.234471e-05
N 1.611367e+00 -9.292532e-01 -3.323667e+00 1.377083e-04 -4.826567e-05 3.949873e-05
N 3.143001e+00 1.744960e+00 1.762768e+00 2.493630e-04 -4.049185e-05 -4.090685e-05
N 3.104704e+00 1.764939e+00 6.925036e+00 -8.453303e-05 -7.173775e-05 -6.197156e-05
N 3.145456e+00 1.784472e+00 -3.312217e+00 -7.020350e-06 -1.284154e-05 3.846757e-05
N 6.276242e+00 -3.678063e+00 1.824821e+00 -3.686855e-05 2.041060e-04 8.138591e-05
N 6.276350e+00 -3.718216e+00 6.863287e+00 -4.329090e-05 -3.600185e-05 -8.323931e-05
N 6.357646e+00 -3.673946e+00 -3.321558e+00 -3.401996e-06 1.157683e-04 -1.795835e-05
N 4.733927e+00 -9.542229e-01 1.771123e+00 -3.144240e-05 -9.663404e-06 4.952708e-06
N 4.737084e+00 -9.516078e-01 6.893491e+00 -1.284324e-04 -1.652344e-05 -1.573276e-04
N 4.727220e+00 -9.545034e-01 -3.228086e+00 -4.789478e-05 2.959724e-05 5.551386e-05
N -3.232810e+00 1.820212e+00 1.758020e+00 -7.941336e-05 -5.255174e-05 1.958403e-05
N -3.158248e+00 1.767130e+00 6.861804e+00 1.381644e-05 1.755811e-05 -1.729923e-04
N -3.192584e+00 1.787877e+00 -3.243495e+00 -4.063314e-05 -3.001891e-06 6.602286e-05
N 2.141159e-02 -3.680907e+00 1.821448e+00 1.028903e-04 5.903156e-06 5.262182e-05
N -2.321259e-02 -3.688110e+00 6.850640e+00 -8.039169e-05 1.562388e-04 -1.614014e-04
N -1.914274e-02 -3.746884e+00 -3.309405e+00 1.197821e-05 -8.145047e-05 4.299519e-05
N -1.610406e+00 -9.973558e-01 1.771992e+00 -2.961519e-05 1.425050e-08 -1.306530e-04
N -1.604157e+00 -9.123305e-01 6.926193e+00 -2.897260e-05 7.164193e-05 -2.639055e-06
N -1.651607e+00 -9.222373e-01 -3.331298e+00 -1.110448e-04 -8.546288e-05 -6.871116e-05
