108
Energy=-1581051.232506 Lattice="9.534504 0.000000 0.000000 -4.772741 8.258137 0.000000 0.002749 0.001524 15.384528" Stress="-0.000001 -0.000002 0.000000 -0.000002 0.000002 0.000000 0.000001 0.000000 -0.000013" Properties=species:S:1:pos:R:3:forces:R:3
Al 1.557265 0.872838 2.405413 -0.000011 -0.000914 -0.000952
Al 1.550929 0.870045 7.542135 0.000085 -0.000041 0.000046
Al 1.551240 0.870486 -2.704116 -0.000092 0.000208 -0.000045
Al -0.040622 3.623839 2.396416 -0.000460 -0.000613 -0.000875
Al -0.032210 3.613125 7.539171 0.000021 0.000031 0.000131
Al -0.037293 3.620503 -2.691493 0.000422 -0.000298 0.000835
Al 3.147400 -1.881481 2.376786 -0.000568 0.000129 -0.000709
Al 3.142213 -1.875725 7.550177 -0.000099 0.000151 -0.000005
Ga 3.145076 -1.877324 -2.685748 -0.000158 0.000006 0.000331
Ga -4.793006 0.878647 2.398644 0.000127 -0.000114 -0.000063
Ga -4.782177 0.885244 7.546220 0.000063 0.000084 0.000052
Al -4.781158 0.880568 -2.691036 -0.000090 -0.000187 -0.000023
Ga -6.394512 3.619128 2.380796 0.000221 0.000009 0.000007
Ga -6.384666 3.625716 7.559551 -0.000072 0.000029 0.000033
Ga -6.387974 3.626407 -2.683449 -0.000092 0.000033 0.000122
Ga -3.203469 -1.869401 2.382761 0.000103 0.000248 -0.000080
Ga -3.204358 -1.877567 7.540859 -0.000069 -0.000036 0.000114
Al -3.198129 -1.865903 -2.668215 0.000592 -0.000644 0.000068
Al -1.600788 0.886538 2.422221 -0.000231 0.000098 -0.000134
Ga -1.600983 0.905756 7.542402 0.000066 -0.000078 0.000343
Al -1.610373 0.884470 -2.721027 0.000011 -0.000026 -0.000084
Al -3.174272 3.630155 2.406049 0.000032 0.000088 -0.000007
Al -3.186708 3.623686 7.545626 -0.000017 -0.000023 0.000114
Al -3.190884 3.621073 -2.699994 0.000182 0.000017 0.000276
Ga -0.007676 -1.849012 2.409752 -0.000066 0.000093 -0.000129
Ga 0.004532 -1.861888 7.533161 0.000047 -0.000033 -0.000002
Al -0.018091 -1.854051 -2.689494 0.000189 -0.000415 -0.000322
Al -0.025185 1.780001 4.951173 0.000029 0.000595 -0.000540
Al -0.021829 1.790573 -5.256777 -0.000327 -0.000291 -0.000108
Ga -0.017572 1.791062 -0.147330 0.000120 0.000137 -0.000007
Ga 3.156522 -3.713089 4.975082 -0.000054 -0.000012 0.000071
Ga 3.154654 -3.725904 -5.283740 -0.000016 -0.000042 0.000052
Al 3.166821 -3.705324 -0.137591 0.000098 0.000977 -0.000123
Al 1.569966 -0.943157 4.963910 0.000059 0.000216 0.000305
Al 1.560963 -0.944519 -5.264078 -0.000229 0.000460 0.000150
Al 1.573961 -0.947463 -0.147773 -0.000280 -0.000328 0.000013
Ga 3.137327 1.778474 4.982008 -0.000017 -0.000038 0.000099
Ga 3.138873 1.771607 -5.257340 0.000048 -0.000036 0.000002
Al 3.140222 1.773599 -0.162310 0.000614 0.000052 -0.000102
Ga 6.324992 -3.714483 4.970313 -0.000013 -0.000048 0.000044
Ga 6.314772 -3.719113 -5.243398 0.000022 0.000032 0.000168
Al 6.316816 -3.700339 -0.158149 -0.000049 -0.000156 -0.000599
Ga 4.737242 -0.958365 4.969048 -0.000021 -0.000044 0.000054
Ga 4.738199 -0.952589 -5.247022 -0.000068 0.000092 0.000194
Al 4.740190 -0.961237 -0.162769 -0.000134 -0.000113 0.000677
Al -3.178496 1.796317 4.954410 -0.000031 0.000025 0.000095
Al -3.194700 1.801967 -5.240982 -0.000027 -0.000006 0.000068
Ga -3.196017 1.790705 -0.155649 -0.000006 -0.000122 0.000116
Ga -0.003322 -3.707726 4.968697 -0.000031 -0.000137 0.000103
Ga 0.000893 -3.709609 -5.247249 -0.000052 -0.000047 0.000145
Ga -0.010485 -3.695354 -0.157199 0.000076 -0.000132 0.000108
Al -1.600372 -0.931451 4.965658 -0.000063 -0.000045 0.000116
Ga -1.601958 -0.943687 -5.235680 -0.000019 -0.000067 0.000166
Al -1.610995 -0.951033 -0.175481 -0.000168 0.000035 0.000724
N 1.525284 0.850151 4.321419 -0.000223 0.000319 0.000850
N 1.510805 0.850530 -5.912053 0.000100 -0.000244 0.000172
N 1.596014 0.849830 -0.792758 0.000284 0.000123 0.000081
N -0.031351 3.584609 4.309217 0.000337 -0.000749 0.000904
N -0.024917 3.570719 -5.927473 -0.000031 0.000107 -0.000054
N -0.032935 3.671692 -0.774289 -0.000297 -0.000065 -0.000545
N 3.111722 -1.855500 4.299325 0.000004 -0.000080 0.000392
N 3.108836 -1.849175 -5.910088 0.000182 -0.000180 -0.000041
N 3.149082 -1.877690 -0.705808 0.000112 -0.000465 0.000223
N -4.750976 0.903238 4.371604 0.000070 0.000057 -0.000011
N -4.743615 0.903938 -5.861687 0.000112 -0.000075 -0.000172
N -4.826371 0.857610 -0.774567 -0.000506 0.000146 0.000113
N -6.381835 3.625905 4.349273 -0.000096 0.000027 -0.000059
N -6.382778 3.629644 -5.854782 0.000000 0.000038 -0.000155
N -6.425284 3.607009 -0.710139 0.000085 -0.000263 0.000204
N -3.154679 -1.848817 4.360454 -0.000087 0.000033 0.000055
N -3.196035 -1.873818 -5.877346 -0.000014 0.000019 -0.000177
N -3.199374 -1.871574 -0.748814 0.000005 -0.000027 0.000042
N -1.608499 0.877641 4.350268 0.000064 0.000094 -0.000025
N -1.614647 0.928517 -5.844577 0.000214 0.000161 -0.000061
N -1.608309 0.840429 -0.815757 -0.000056 0.000035 -0.000009
N -3.193847 3.586492 4.313377 0.000090 -0.000014 0.000045
N -3.206927 3.572727 -5.923115 0.000152 0.000000 -0.000036
N -3.153761 3.653730 -0.794474 0.000044 -0.000159 -0.000203
N -0.017781 -1.821109 4.392574 -0.000125 -0.000008 -0.000005
N 0.016819 -1.849581 -5.872317 0.000003 0.000068 -0.000042
N -0.015171 -1.818278 -0.775451 0.000462 0.000070 0.000296
N -0.024345 1.789552 1.837285 0.000212 0.001053 0.000581
N 0.022308 1.816769 6.881803 -0.000051 0.000042 -0.000061
N -0.018515 1.800151 -3.323059 -0.000067 0.000029 -0.000037
N 3.161592 -3.713819 1.788450 -0.000452 0.000337 -0.000429
N 3.161906 -3.707785 6.976953 -0.000088 0.000008 -0.000134
N 3.160455 -3.756814 -3.303528 -0.000449 0.000067 -0.000098
N 1.605114 -0.926898 1.764225 0.000534 0.000025 0.000312
N 1.619646 -0.927506 6.889651 -0.000209 0.000025 -0.000296
N 1.527059 -0.931454 -3.343173 0.000106 -0.000281 -0.000389
N 3.108219 1.761111 1.749729 -0.000194 0.000077 -0.000242
N 3.108995 1.767201 6.955159 -0.000019 -0.000025 -0.000053
N 3.149958 1.740930 -3.279439 0.000143 -0.000043 0.000033
N 6.283163 -3.731447 1.750215 0.000386 -0.000051 0.000298
N 6.291819 -3.736931 6.940780 -0.000005 0.000010 -0.000105
N 6.285189 -3.684061 -3.265491 0.000202 0.000453 -0.000082
N 4.702947 -0.977708 1.750947 0.000190 0.000071 -0.000636
N 4.699071 -0.982063 6.943321 -0.000114 -0.000035 -0.000111
N 4.783518 -0.938216 -3.266006 -0.000202 0.000533 -0.000208
N -3.153231 1.817373 1.820734 -0.000007 -0.000041 -0.000076
N -3.194046 1.845245 6.870976 0.000042 0.000012 -0.000084
N -3.205069 1.799474 -3.313139 0.000089 -0.000071 -0.000048
N 0.029189 -3.726125 1.815322 -0.000031 -0.000007 -0.000133
N 0.027210 -3.734759 6.946328 0.000006 0.000020 -0.000109
N 0.024462 -3.683068 -3.263390 0.000075 0.000221 0.000025
N -1.607069 -0.898985 1.745447 -0.000039 -0.000357 -0.000585
N -1.607064 -0.945116 6.877518 -0.000130 0.000031 -0.000105
N -1.612874 -0.960240 -3.253774 -0.000407 0.000173 -0.000040
