108
Energy=-9.859651e+05 Lattice="9.476278e+00 0.000000e+00 0.000000e+00 -4.738139e+00 8.206697e+00 0.000000e+00 9.377101e-16 1.624162e-15 1.531397e+01" Stress="-5.608762e-03 5.002059e-03 -2.414721e-04 4.991259e-03 9.125209e-05 -4.218200e-04 -2.349711e-04 -4.289024e-04 6.820342e-03" Properties=species:S:1:pos:R:3:forces:R:3 Config_type=AlGaN_super3_12_0_0.xyz
Al 1.564294e+00 9.031460e-01 2.504900e+00 -1.139215e-03 -1.423271e-02 -1.230871e-02
Al 1.564294e+00 9.031460e-01 7.521855e+00 -1.307936e-03 -1.401031e-02 -5.573983e-03
Al 1.564294e+00 9.031460e-01 -2.775158e+00 -1.453824e-03 -1.433225e-02 -6.258478e-03
Al 2.938992e-08 3.612582e+00 2.504900e+00 -2.965737e-03 -1.272764e-03 -1.072921e-02
Al 2.938992e-08 3.612582e+00 7.521855e+00 -3.002193e-03 -1.469438e-03 -4.710117e-03
Al 2.938992e-08 3.612582e+00 -2.775158e+00 -3.197623e-03 -1.805143e-03 -4.236455e-03
Al 3.173845e+00 -1.884678e+00 2.504900e+00 -2.992270e-03 1.655776e-03 -1.222521e-02
Al 3.173845e+00 -1.884678e+00 7.521855e+00 -3.040326e-03 1.460482e-03 -5.729666e-03
Al 3.173845e+00 -1.884678e+00 -2.775158e+00 -3.603474e-03 1.774681e-03 -4.974939e-03
Al -4.783396e+00 9.031460e-01 2.504900e+00 1.344079e-03 -1.306984e-02 -1.097903e-02
Al -4.783396e+00 9.031460e-01 7.521855e+00 1.362944e-03 -1.284947e-02 -4.650345e-03
Al -4.783396e+00 9.031460e-01 -2.775158e+00 1.267772e-03 -1.303914e-02 -4.674148e-03
Al -6.347690e+00 3.612582e+00 2.504900e+00 -1.135591e-04 -1.776439e-04 -1.002117e-02
Al -6.347690e+00 3.612582e+00 7.521855e+00 -3.280490e-04 -2.383890e-04 -2.282710e-03
Ga -6.347690e+00 3.612582e+00 -2.775158e+00 -3.705702e-04 -2.326359e-04 -2.811284e-03
Al -3.173845e+00 -1.884678e+00 2.504900e+00 -7.175209e-04 3.006836e-03 -1.066692e-02
Ga -3.173845e+00 -1.884678e+00 7.521855e+00 -9.098175e-04 2.786158e-03 -3.932566e-03
Ga -3.173845e+00 -1.884678e+00 -2.775158e+00 -2.265147e-04 3.366588e-03 -3.318595e-03
Al -1.654808e+00 9.031460e-01 2.504900e+00 1.365432e-02 -7.708358e-03 -1.194567e-02
Al -1.654808e+00 9.031460e-01 7.521855e+00 1.374471e-02 -7.240643e-03 -6.932799e-03
Al -1.654808e+00 9.031460e-01 -2.775158e+00 1.392094e-02 -7.942301e-03 -7.387167e-03
Al -3.219102e+00 3.612582e+00 2.504900e+00 1.218324e-02 5.292440e-03 -1.085726e-02
Al -3.219102e+00 3.612582e+00 7.521855e+00 1.225981e-02 5.125286e-03 -4.312489e-03
Ga -3.219102e+00 3.612582e+00 -2.775158e+00 1.535485e-02 7.813407e-03 -6.280489e-03
Al -4.525702e-02 -1.884678e+00 2.504900e+00 1.204826e-02 8.072005e-03 -1.204059e-02
Ga -4.525702e-02 -1.884678e+00 7.521855e+00 1.528698e-02 1.069001e-02 -6.300179e-03
Al -4.525702e-02 -1.884678e+00 -2.775158e+00 1.182359e-02 8.528240e-03 -6.962558e-03
Al 1.469567e-08 1.806291e+00 5.013378e+00 -1.194028e-02 -8.047764e-03 -6.474271e-03
Al 1.469567e-08 1.806291e+00 -5.283635e+00 -1.169830e-02 -8.457790e-03 -6.478648e-03
Al 1.469567e-08 1.806291e+00 -2.666800e-01 -1.165609e-02 -8.563155e-03 3.337460e-02
Al 3.173845e+00 -3.690969e+00 5.013378e+00 -1.170262e-02 -5.243772e-03 -5.524060e-03
Al 3.173845e+00 -3.690969e+00 -5.283635e+00 -1.239721e-02 -5.601182e-03 -5.430167e-03
Al 3.173845e+00 -3.690969e+00 -2.666800e-01 -1.200520e-02 -5.075469e-03 3.498030e-02
Al 1.609551e+00 -9.815320e-01 5.013378e+00 -1.366265e-02 7.841384e-03 -7.687891e-03
Al 1.609551e+00 -9.815320e-01 -5.283635e+00 -1.386801e-02 8.018262e-03 -6.679687e-03
Al 1.609551e+00 -9.815320e-01 -2.666800e-01 -1.346197e-02 8.162236e-03 3.235287e-02
Ga 3.128588e+00 1.806291e+00 5.013378e+00 1.424471e-04 -3.393177e-03 -4.032966e-03
Al 3.128588e+00 1.806291e+00 -5.283635e+00 1.408036e-04 -3.239666e-03 -4.595884e-03
Al 3.128588e+00 1.806291e+00 -2.666800e-01 3.328841e-04 -3.725865e-03 3.612503e-02
Al 6.302433e+00 -3.690969e+00 5.013378e+00 -3.458104e-04 1.603089e-04 -3.430031e-03
Ga 6.302433e+00 -3.690969e+00 -5.283635e+00 3.740446e-04 -5.439898e-04 -2.400889e-03
Ga 6.302433e+00 -3.690969e+00 -2.666800e-01 -2.594265e-04 -3.700980e-04 4.939213e-02
Al 4.738139e+00 -9.815320e-01 5.013378e+00 -1.351452e-03 1.280828e-02 -5.640783e-03
Ga 4.738139e+00 -9.815320e-01 -5.283635e+00 -1.004773e-03 1.736444e-02 -5.585058e-03
Al 4.738139e+00 -9.815320e-01 -2.666800e-01 -1.808398e-03 1.330813e-02 3.528211e-02
Al -3.219102e+00 1.806291e+00 5.013378e+00 3.282268e-03 -1.913632e-03 -5.922225e-03
Al -3.219102e+00 1.806291e+00 -5.283635e+00 3.240403e-03 -1.625126e-03 -5.807538e-03
Al -3.219102e+00 1.806291e+00 -2.666800e-01 2.883359e-03 -2.252187e-03 3.487645e-02
Ga -4.525703e-02 -3.690969e+00 5.013378e+00 3.026351e-03 1.522572e-03 -4.027917e-03
Al -4.525703e-02 -3.690969e+00 -5.283635e+00 3.222939e-03 1.118862e-03 -4.204127e-03
Ga -4.525703e-02 -3.690969e+00 -2.666800e-01 3.207965e-03 1.087533e-03 4.837886e-02
Al -1.609551e+00 -9.815320e-01 5.013378e+00 1.066062e-03 1.434570e-02 -6.768466e-03
Al -1.609551e+00 -9.815320e-01 -5.283635e+00 1.647758e-03 1.472485e-02 -5.248927e-03
Ga -1.609551e+00 -9.815320e-01 -2.666800e-01 1.992074e-03 1.856319e-02 4.426649e-02
N 1.564294e+00 9.031460e-01 4.418497e+00 -1.978593e-02 -2.474322e-02 -1.609564e-03
N 1.564294e+00 9.031460e-01 -5.878516e+00 -5.493310e-04 -1.373348e-02 6.036359e-03
N 1.564294e+00 9.031460e-01 -8.615610e-01 -6.516401e-04 -1.317149e-02 6.589206e-03
N 2.938992e-08 3.612582e+00 4.418497e+00 -1.725550e-03 -2.007296e-04 3.897534e-03
N 2.938992e-08 3.612582e+00 -5.878516e+00 -2.109939e-02 -1.079598e-02 -4.850499e-03
N 2.938992e-08 3.612582e+00 -8.615610e-01 -2.061771e-02 -1.073959e-02 -2.812518e-03
N 3.173845e+00 -1.884678e+00 4.418497e+00 -2.750686e-03 1.606071e-03 3.394623e-03
N 3.173845e+00 -1.884678e+00 -5.878516e+00 -2.133702e-02 -9.375859e-03 -5.041748e-03
N 3.173845e+00 -1.884678e+00 -8.615610e-01 -2.250882e-03 1.041684e-03 4.187084e-03
N -4.783396e+00 9.031460e-01 4.418497e+00 1.987872e-02 -2.418925e-02 -1.199970e-03
N -4.783396e+00 9.031460e-01 -5.878516e+00 5.154542e-04 4.232566e-03 -2.194746e-04
N -4.783396e+00 9.031460e-01 -8.615610e-01 1.093922e-03 -1.298884e-02 7.042500e-03
N -6.347690e+00 3.612582e+00 4.418497e+00 -1.968370e-02 1.123764e-02 -1.201971e-02
N -6.347690e+00 3.612582e+00 -5.878516e+00 1.858456e-02 -1.050766e-02 -4.929307e-03
N -6.347690e+00 3.612582e+00 -8.615610e-01 -5.314497e-04 -2.101354e-02 1.446080e-02
N -3.173845e+00 -1.884678e+00 4.418497e+00 -6.987155e-04 1.628474e-03 3.024620e-03
N -3.173845e+00 -1.884678e+00 -5.878516e+00 1.778950e-02 1.307335e-02 1.057287e-02
N -3.173845e+00 -1.884678e+00 -8.615610e-01 -1.943842e-02 1.256208e-02 1.399935e-02
N -1.654808e+00 9.031460e-01 4.418497e+00 1.357317e-02 -7.858351e-03 9.098907e-03
N -1.654808e+00 9.031460e-01 -5.878516e+00 1.331252e-02 -8.136781e-03 8.377219e-03
N -1.654808e+00 9.031460e-01 -8.615610e-01 1.307509e-02 9.901173e-03 3.438427e-03
N -3.219102e+00 3.612582e+00 4.418497e+00 3.094425e-02 -5.217301e-03 -1.203194e-03
N -3.219102e+00 3.612582e+00 -5.878516e+00 1.187620e-02 6.048382e-03 5.076669e-03
N -3.219102e+00 3.612582e+00 -8.615610e-01 3.090971e-02 -4.821195e-03 2.326937e-02
N -4.525702e-02 -1.884678e+00 4.418497e+00 1.147678e-02 2.943276e-02 -2.605681e-03
N -4.525702e-02 -1.884678e+00 -5.878516e+00 1.130235e-02 7.375719e-03 2.908070e-02
N -4.525702e-02 -1.884678e+00 -8.615610e-01 2.980619e-02 1.798685e-02 -7.622126e-03
N 1.469567e-08 1.806291e+00 1.910020e+00 -1.190309e-02 -7.558540e-03 -2.896834e-02
N 1.469567e-08 1.806291e+00 6.926975e+00 -1.132492e-02 -7.633045e-03 5.685222e-03
N 1.469567e-08 1.806291e+00 -3.370038e+00 -1.119032e-02 -6.995241e-03 5.740984e-03
N 3.173845e+00 -3.690969e+00 1.910020e+00 -1.229287e-02 -6.093163e-03 -2.823181e-02
N 3.173845e+00 -3.690969e+00 6.926975e+00 -1.226736e-02 -5.906968e-03 5.999224e-03
N 3.173845e+00 -3.690969e+00 -3.370038e+00 4.087107e-03 2.925258e-03 -1.625166e-04
N 1.609551e+00 -9.815320e-01 1.910020e+00 -1.394873e-02 7.964762e-03 -2.579674e-02
N 1.609551e+00 -9.815320e-01 6.926975e+00 1.873931e-03 1.658004e-02 2.401686e-03
N 1.609551e+00 -9.815320e-01 -3.370038e+00 -1.317238e-02 7.751828e-03 8.732959e-03
N 3.128588e+00 1.806291e+00 1.910020e+00 1.110392e-03 -1.877397e-03 -3.221144e-02
N 3.128588e+00 1.806291e+00 6.926975e+00 1.128459e-03 -1.728998e-03 2.677823e-02
N 3.128588e+00 1.806291e+00 -3.370038e+00 1.041343e-03 -2.385984e-02 -4.705177e-03
N 6.302433e+00 -3.690969e+00 1.910020e+00 5.454392e-04 -1.593603e-04 -1.931509e-02
N 6.302433e+00 -3.690969e+00 6.926975e+00 8.916671e-04 -2.243423e-02 -5.076639e-03
N 6.302433e+00 -3.690969e+00 -3.370038e+00 -1.854127e-02 -1.118424e-02 1.083140e-02
N 4.738139e+00 -9.815320e-01 1.910020e+00 -8.114633e-04 1.365964e-02 -2.823455e-02
N 4.738139e+00 -9.815320e-01 6.926975e+00 -1.985935e-02 2.463357e-02 -2.779165e-03
N 4.738139e+00 -9.815320e-01 -3.370038e+00 -1.992717e-02 2.434067e-02 2.166993e-02
N -3.219102e+00 1.806291e+00 1.910020e+00 2.900784e-03 -1.533913e-03 -3.230979e-02
N -3.219102e+00 1.806291e+00 6.926975e+00 2.349500e-03 -1.518124e-03 2.869558e-03
N -3.219102e+00 1.806291e+00 -3.370038e+00 2.351107e-03 -2.350515e-02 -5.034829e-03
N -4.525703e-02 -3.690969e+00 1.910020e+00 2.250983e-03 1.496704e-04 -2.055812e-02
N -4.525703e-02 -3.690969e+00 6.926975e+00 2.052782e-03 -2.183323e-02 1.900131e-02
N -4.525703e-02 -3.690969e+00 -3.370038e+00 2.071399e-03 2.194823e-02 -1.305226e-02
N -1.609551e+00 -9.815320e-01 1.910020e+00 7.550511e-04 1.415785e-02 -1.748534e-02
N -1.609551e+00 -9.815320e-01 6.926975e+00 1.076603e-03 3.578637e-02 -1.031439e-02
N -1.609551e+00 -9.815320e-01 -3.370038e+00 1.945434e-02 2.436628e-02 -2.893300e-03
