108
Energy=-2084581.794395 Lattice="9.597574 0.000000 0.000000 -4.799244 8.309641 0.000000 0.002368 0.000369 15.545359" Stress="0.000000 -0.000000 0.000000 -0.000000 -0.000000 0.000000 0.000000 0.000000 -0.000000" Properties=species:S:1:pos:R:3:forces:R:3
Al 1.581223 0.897833 2.431207 -0.000015 -0.000055 0.000080
Al 1.588323 0.905213 7.652827 -0.000008 -0.000029 -0.000078
Al 1.585988 0.887838 -2.760534 0.000077 0.000007 0.000091
Al -0.015344 3.643949 2.444332 -0.000051 -0.000042 0.000067
Al 0.000478 3.641381 7.652882 -0.000004 0.000012 0.000025
Ga -0.003785 3.646507 -2.761718 0.000017 0.000066 0.000065
Ga 3.189709 -1.877495 2.437876 -0.000037 -0.000038 0.000052
Ga 3.186055 -1.870723 7.624812 0.000005 0.000027 0.000051
Ga 3.179860 -1.867753 -2.730574 0.000024 -0.000003 0.000101
Ga -4.844422 0.873049 2.430140 0.000031 -0.000037 0.000134
Al -4.842265 0.886822 7.633281 0.000139 -0.000024 0.000101
Al -4.840953 0.876671 -2.734929 -0.000003 0.000028 -0.000030
Ga -6.430415 3.637366 2.415166 -0.000053 -0.000065 0.000178
Al -6.437307 3.631403 7.656718 0.000012 0.000065 0.000076
Ga -6.425970 3.643414 -2.746387 0.000038 -0.000050 0.000056
Ga -3.235719 -1.884363 2.456998 -0.000038 -0.000042 0.000087
Ga -3.225094 -1.890887 7.620992 0.000017 0.000053 0.000075
Al -3.222301 -1.887239 -2.747966 0.000004 -0.000002 0.000056
Ga -1.606577 0.888048 2.450399 0.000028 -0.000101 0.000042
Ga -1.611842 0.887142 7.637037 0.000065 -0.000066 0.000067
Ga -1.610951 0.876337 -2.753166 0.000061 -0.000031 0.000067
Ga -3.223198 3.658584 2.439059 0.000030 -0.000084 0.000083
Ga -3.226493 3.645311 7.633140 0.000050 -0.000042 0.000027
Ga -3.235144 3.656390 -2.729570 0.000010 -0.000035 0.000009
Ga -0.022686 -1.883363 2.442613 -0.000000 -0.000104 0.000033
Ga -0.026906 -1.878375 7.622841 0.000008 0.000000 0.000062
Al -0.026522 -1.883470 -2.728043 -0.000005 -0.000060 -0.000003
Ga -0.010532 1.805296 5.045420 -0.000034 0.000078 0.000030
Al 0.002569 1.813833 -5.341725 -0.000124 0.000116 0.000075
Ga 0.001367 1.807362 -0.142666 -0.000073 -0.000047 0.000053
Ga 3.196295 -3.731425 5.041484 -0.000017 0.000065 0.000016
Ga 3.196035 -3.743109 -5.334129 -0.000082 0.000053 0.000054
Ga 3.179039 -3.728541 -0.139748 -0.000094 0.000006 0.000068
Ga 1.580054 -0.947625 5.033522 -0.000087 0.000048 0.000004
Ga 1.569571 -0.937104 -5.311691 -0.000027 -0.000022 0.000113
Ga 1.579174 -0.950264 -0.163503 -0.000099 0.000020 0.000110
Ga 3.175074 1.795895 5.061694 -0.000000 0.000009 0.000076
Al 3.162428 1.807250 -5.341034 0.000131 -0.000318 0.000122
Al 3.177875 1.796467 -0.173186 -0.000062 -0.000054 0.000094
Ga 6.372799 -3.729727 5.047585 0.000002 0.000048 0.000099
Al 6.377200 -3.749931 -5.339236 0.000038 0.000058 0.000032
Ga 6.381213 -3.724865 -0.152369 -0.000074 -0.000084 0.000145
Al 4.785772 -0.955152 5.053664 -0.000009 0.000016 0.000047
Ga 4.781850 -0.950587 -5.316748 0.000011 0.000046 0.000041
Al 4.780130 -0.951702 -0.180124 -0.000082 -0.000023 0.000064
Ga -3.228864 1.785093 5.047518 0.000028 0.000009 0.000038
Ga -3.238214 1.796929 -5.321820 -0.000063 0.000075 0.000022
Ga -3.247955 1.802672 -0.161131 -0.000055 -0.000056 0.000118
Ga -0.036952 -3.730200 5.054996 0.000020 0.000051 0.000088
Ga -0.045893 -3.738292 -5.323842 0.000032 0.000016 0.000048
Al -0.029663 -3.732359 -0.163749 -0.000037 -0.000038 0.000039
Al -1.632241 -0.962004 5.039534 0.000000 0.000045 0.000017
Ga -1.625658 -0.970124 -5.300397 -0.000027 0.000043 0.000016
Ga -1.629847 -0.978243 -0.174097 -0.000129 -0.000040 0.000149
N 1.584421 0.891520 4.346544 0.000067 -0.000014 -0.000033
N 1.578071 0.930668 -5.971269 0.000337 0.000073 0.000077
N 1.617504 0.913830 -0.838284 0.000058 0.000001 -0.000096
N -0.016829 3.649562 4.356368 0.000035 -0.000059 -0.000056
N 0.022825 3.627319 -5.967624 0.000002 -0.000078 -0.000034
N -0.018816 3.651606 -0.792368 0.000046 -0.000001 -0.000048
N 3.225105 -1.858006 4.429505 0.000034 -0.000042 -0.000026
N 3.174952 -1.878157 -5.945035 0.000002 -0.000062 -0.000072
N 3.215642 -1.862634 -0.755718 0.000069 -0.000020 -0.000061
N -4.831157 0.834434 4.413966 -0.000009 -0.000011 -0.000058
N -4.870386 0.905048 -5.993474 -0.000162 0.000008 -0.000037
N -4.871553 0.861739 -0.808645 0.000074 0.000019 -0.000085
N -6.422540 3.644423 4.395881 -0.000010 -0.000064 -0.000096
N -6.466239 3.623028 -5.959639 -0.000120 0.000188 -0.000191
N -6.384145 3.625331 -0.751435 0.000033 0.000052 -0.000156
N -3.227123 -1.838453 4.451603 -0.000015 -0.000057 -0.000047
N -3.223221 -1.932734 -5.942810 0.000032 -0.000026 -0.000071
N -3.266447 -1.868676 -0.829277 0.000077 0.000009 -0.000084
N -1.616371 0.840034 4.434190 0.000039 -0.000080 -0.000025
N -1.580769 0.904256 -5.921318 0.000090 -0.000108 -0.000071
N -1.615466 0.891230 -0.778591 0.000115 -0.000016 -0.000072
N -3.224900 3.654717 4.421211 -0.000007 -0.000074 -0.000049
N -3.226079 3.652947 -5.944727 0.000004 -0.000098 -0.000043
N -3.261890 3.680094 -0.753713 0.000061 -0.000044 -0.000055
N -0.063474 -1.864048 4.428413 0.000029 -0.000108 -0.000039
N -0.025139 -1.881091 -5.955162 0.000011 -0.000078 -0.000052
N -0.019552 -1.933027 -0.810943 0.000081 0.000006 -0.000028
N 0.022760 1.829739 1.844510 0.000008 0.000131 -0.000095
N 0.027208 1.831791 7.037166 -0.000011 0.000054 -0.000020
N 0.026535 1.781661 -3.421389 -0.000039 0.000065 -0.000071
N 3.221078 -3.756997 1.840281 0.000022 0.000111 -0.000116
N 3.230039 -3.761087 7.029100 -0.000026 0.000058 -0.000051
N 3.178038 -3.732002 -3.364664 0.000011 0.000041 -0.000046
N 1.575542 -0.912075 1.826300 -0.000036 0.000085 -0.000140
N 1.578154 -0.901236 7.017869 -0.000030 0.000055 -0.000043
N 1.531819 -0.937163 -3.323470 -0.000040 0.000035 -0.000061
N 3.133031 1.776368 1.750808 0.000066 0.000070 -0.000077
N 3.172954 1.806914 7.056943 -0.000064 0.000012 -0.000030
N 3.178919 1.756273 -3.405621 -0.000102 -0.000031 -0.000041
N 6.332226 -3.748825 1.829003 0.000090 0.000085 -0.000117
N 6.378162 -3.786458 7.038273 -0.000013 -0.000014 -0.000099
N 6.381909 -3.686834 -3.414696 -0.000037 -0.000032 -0.000048
N 4.782848 -0.963426 1.736808 0.000045 0.000097 -0.000063
N 4.779487 -0.909476 6.971139 -0.000054 -0.000035 -0.000062
N 4.820524 -0.934467 -3.335315 -0.000050 -0.000013 -0.000047
N -3.227181 1.800891 1.816382 -0.000030 0.000084 -0.000128
N -3.265500 1.775617 7.028001 -0.000059 0.000069 -0.000049
N -3.271464 1.779217 -3.339568 -0.000038 0.000018 -0.000006
N -0.025647 -3.728940 1.754592 0.000019 0.000110 -0.000054
N -0.074976 -3.761405 7.034567 -0.000006 0.000016 -0.000064
N -0.029554 -3.684883 -3.350652 -0.000004 0.000009 -0.000007
N -1.628216 -0.966774 1.803160 0.000007 0.000089 -0.000136
N -1.625104 -0.959058 6.949990 -0.000044 0.000002 -0.000052
N -1.621585 -1.015296 -3.319642 -0.000048 0.000047 -0.000020
