108
Energy=-6.197662e+05 Lattice="9.417555e+00 0.000000e+00 0.000000e+00 -4.710045e+00 8.154625e+00 0.000000e+00 -6.027806e-03 -5.775359e-03 1.511126e+01" Stress="-3.072875e-04 -3.985417e-05 -2.398533e-04 -4.124152e-05 -4.301648e-04 -2.313267e-04 -2.397693e-04 -2.337217e-04 -2.790561e-04" Properties=species:S:1:pos:R:3:forces:R:3 Config_type=AlGaN_super3_4_0_12.xyz
Al 1.543691e+00 8.663230e-01 2.376690e+00 1.408510e-04 8.452881e-05 -1.370051e-04
Al 1.541862e+00 8.660265e-01 7.397568e+00 3.292327e-05 -7.073920e-05 -1.097151e-04
Al 1.555490e+00 8.760214e-01 -2.668765e+00 1.832262e-05 5.084024e-05 -9.484658e-05
Al -2.719948e-02 3.583238e+00 2.370135e+00 1.564908e-04 1.652887e-05 9.713735e-06
Al -2.626151e-02 3.576332e+00 7.381710e+00 2.015135e-06 -1.374571e-04 -8.087574e-05
Al -1.902372e-02 3.579770e+00 -2.641349e+00 -2.843815e-05 -1.164946e-04 -1.237245e-04
Al 3.113788e+00 -1.853744e+00 2.375512e+00 9.787554e-05 2.029190e-05 -1.674226e-04
Al 3.116597e+00 -1.849164e+00 7.386920e+00 2.366697e-05 4.406109e-05 -1.644922e-04
Al 3.129398e+00 -1.841814e+00 -2.653444e+00 3.610874e-05 2.502558e-05 -9.605216e-05
Al -4.736382e+00 8.660095e-01 2.372651e+00 1.500301e-04 6.916284e-05 -7.191564e-05
Al -4.735600e+00 8.622232e-01 7.400778e+00 9.030126e-05 -5.677005e-05 -1.258312e-05
Al -4.728290e+00 8.694513e-01 -2.670946e+00 9.605608e-05 7.627528e-05 -1.450584e-04
Al -6.314331e+00 3.577560e+00 2.389920e+00 7.861140e-05 1.883731e-04 -1.431927e-04
Al -6.301160e+00 3.579763e+00 7.386269e+00 5.993700e-05 -3.800286e-05 -1.521538e-04
Al -6.299906e+00 3.573428e+00 -2.664404e+00 -7.623762e-05 -1.147012e-04 -1.507018e-04
Al -3.166263e+00 -1.853390e+00 2.374693e+00 3.721766e-04 1.033351e-04 -6.243688e-05
Al -3.167447e+00 -1.848918e+00 7.386706e+00 7.167656e-05 8.375859e-05 -1.230887e-04
Al -3.165847e+00 -1.841553e+00 -2.654415e+00 2.962672e-05 3.543123e-05 1.439005e-05
Al -1.598606e+00 8.666392e-01 2.376126e+00 1.882361e-04 -1.394057e-04 -1.619230e-04
Al -1.595228e+00 8.667045e-01 7.397426e+00 1.372308e-04 -1.346843e-04 -7.392291e-05
Al -1.594279e+00 8.766795e-01 -2.669193e+00 1.197723e-04 -3.349786e-05 7.847810e-05
Al -3.158257e+00 3.577148e+00 2.390040e+00 -4.066075e-04 4.502377e-04 -3.294900e-04
Al -3.169984e+00 3.580090e+00 7.386389e+00 -2.694676e-05 -1.160918e-04 -1.463083e-04
Al -3.157029e+00 3.573873e+00 -2.664113e+00 1.135001e-04 -2.166949e-04 -1.347852e-04
Al -2.663704e-02 -1.841874e+00 2.385212e+00 1.804649e-05 4.703189e-05 3.401279e-04
Al -2.557704e-02 -1.854574e+00 7.398138e+00 1.860900e-05 -2.323626e-05 -2.198988e-04
Ga -1.977915e-02 -1.843117e+00 -2.673647e+00 2.498498e-04 -1.340543e-04 -4.262831e-04
Al -2.714749e-02 1.768474e+00 4.880425e+00 -4.291028e-05 1.366005e-04 -2.172543e-05
Al -2.025070e-02 1.762439e+00 -5.190105e+00 1.071761e-06 -1.274088e-03 5.903170e-04
Al -1.829061e-02 1.770303e+00 -1.426076e-01 -5.534856e-04 -4.104437e-05 -6.980075e-05
Al 3.114911e+00 -3.665527e+00 4.886804e+00 4.817395e-05 7.856315e-05 -8.475712e-05
Ga 3.113373e+00 -3.660542e+00 -5.186606e+00 -2.760709e-04 2.464477e-04 -6.735856e-05
Al 3.127477e+00 -3.661891e+00 -1.428222e-01 -2.546086e-04 -1.224966e-04 -1.982520e-04
Al 1.543419e+00 -9.458855e-01 4.887907e+00 -1.125022e-04 3.411576e-05 -2.181391e-05
Al 1.552676e+00 -9.327672e-01 -5.204162e+00 -8.677536e-06 1.929944e-04 -2.078358e-04
Al 1.560084e+00 -9.316073e-01 -1.303713e-01 3.522389e-04 7.452640e-05 -1.423588e-04
Al 3.111922e+00 1.767022e+00 4.888203e+00 -1.624658e-05 2.190097e-05 -9.272328e-05
Al 3.122521e+00 1.767571e+00 -5.195203e+00 4.125887e-06 -9.087281e-05 -1.265695e-04
Al 3.116767e+00 1.765477e+00 -1.447810e-01 -3.803159e-04 -1.946123e-04 5.060410e-04
Al 6.250786e+00 -3.665121e+00 4.886835e+00 -4.795614e-05 6.924356e-05 -1.162947e-04
Ga 6.267109e+00 -3.659989e+00 -5.186873e+00 1.727421e-04 1.010510e-04 -1.086643e-04
Al 6.254670e+00 -3.662075e+00 -1.428916e-01 -4.624859e-04 -4.852016e-06 -3.010190e-04
Al 4.682643e+00 -9.454670e-01 4.879999e+00 -6.855566e-06 -5.929333e-05 -2.973648e-05
Al 4.689434e+00 -9.294054e-01 -5.188240e+00 -4.059220e-05 1.020582e-04 -3.027004e-05
Al 4.691472e+00 -9.412103e-01 -1.410489e-01 -2.914537e-04 -2.356852e-04 -3.668818e-04
Al -3.166982e+00 1.767094e+00 4.888324e+00 3.057879e-05 2.713510e-05 -1.000955e-04
Al -3.163764e+00 1.767818e+00 -5.195246e+00 -3.160109e-05 -1.009486e-04 -1.278275e-04
Al -3.154298e+00 1.765165e+00 -1.441264e-01 -1.174780e-04 -1.916624e-04 1.043829e-04
Al -2.643730e-02 -3.663500e+00 4.879673e+00 3.227399e-06 1.354871e-04 -8.824817e-05
Al -1.942408e-02 -3.666571e+00 -5.200122e+00 2.331035e-06 -8.285998e-05 -3.093300e-04
Ga -1.890131e-02 -3.669657e+00 -1.231209e-01 -9.048070e-05 -3.046974e-04 9.477265e-05
Al -1.595806e+00 -9.453774e-01 4.887973e+00 -5.456699e-05 1.309740e-05 -5.541197e-05
Al -1.591166e+00 -9.322718e-01 -5.205324e+00 -1.286419e-04 1.930523e-04 -1.544777e-04
Al -1.593537e+00 -9.341813e-01 -1.332515e-01 -2.670148e-03 1.351697e-03 9.750155e-04
N 1.543388e+00 8.648351e-01 4.289277e+00 1.187312e-04 -5.852248e-05 1.365219e-04
N 1.548153e+00 8.741053e-01 -5.795811e+00 1.076530e-04 -1.968942e-04 1.487038e-04
N 1.550444e+00 8.685770e-01 -7.474063e-01 6.516129e-05 -2.872138e-04 2.914349e-05
N -2.705913e-02 3.583160e+00 4.288154e+00 2.113421e-05 -9.848951e-05 1.202868e-05
N -1.984807e-02 3.536107e+00 -5.824431e+00 -1.314601e-05 1.507974e-03 -7.632848e-04
N -1.881426e-02 3.582150e+00 -7.285254e-01 -1.124772e-04 -6.351544e-05 2.649736e-05
N 3.112534e+00 -1.853669e+00 4.290549e+00 2.909508e-05 -4.424764e-05 1.040832e-04
N 3.124413e+00 -1.801702e+00 -5.814265e+00 6.456460e-05 -2.666215e-04 1.735201e-04
N 3.120423e+00 -1.845971e+00 -7.346494e-01 -1.222487e-04 7.619886e-05 -1.080670e-04
N -4.736377e+00 8.659350e-01 4.286138e+00 7.041307e-05 5.013430e-05 7.599551e-05
N -4.729586e+00 8.686290e-01 -5.791357e+00 9.354739e-05 -5.389838e-05 1.652593e-04
N -4.727637e+00 8.687456e-01 -7.471345e-01 -6.002880e-05 -3.471925e-05 4.478005e-05
N -6.310683e+00 3.579369e+00 4.300483e+00 1.177952e-04 -4.383370e-05 1.079415e-04
N -6.259353e+00 3.561435e+00 -5.815133e+00 -1.980898e-04 1.506126e-04 2.442173e-04
N -6.336357e+00 3.559964e+00 -7.559766e-01 1.920204e-04 -1.632715e-05 1.325998e-04
N -3.164951e+00 -1.853505e+00 4.290350e+00 5.210296e-05 -1.769626e-05 3.748093e-05
N -3.163346e+00 -1.801477e+00 -5.814516e+00 9.562835e-05 -2.371118e-04 1.582549e-04
N -3.155460e+00 -1.846545e+00 -7.355865e-01 -2.983554e-04 1.102608e-04 -9.937963e-05
N -1.598688e+00 8.651731e-01 4.289250e+00 1.308240e-04 -2.956283e-05 6.216699e-05
N -1.589615e+00 8.746161e-01 -5.795897e+00 1.217892e-04 -1.459175e-04 1.136185e-04
N -1.587538e+00 8.676828e-01 -7.475263e-01 -2.258323e-04 -3.635561e-05 -3.892495e-05
N -3.162257e+00 3.579544e+00 4.300560e+00 -1.947319e-05 -6.262073e-05 6.269479e-05
N -3.199467e+00 3.561867e+00 -5.814931e+00 2.295685e-04 4.629577e-05 2.051733e-04
N -3.120415e+00 3.560514e+00 -7.554749e-01 -2.591206e-04 -1.269664e-05 1.382802e-04
N -2.690417e-02 -1.846872e+00 4.296771e+00 1.979892e-04 -1.460879e-04 1.087536e-04
N -1.972875e-02 -1.849186e+00 -5.787651e+00 1.192858e-04 -9.690672e-05 1.103054e-04
N -2.097653e-02 -1.800433e+00 -7.035480e-01 1.735106e-03 -1.067914e-03 -4.203842e-04
N -2.702614e-02 1.768886e+00 1.777300e+00 3.075357e-04 2.160449e-04 1.312766e-04
N -2.612404e-02 1.765502e+00 6.791950e+00 -9.203425e-05 1.435378e-04 7.021990e-05
N -1.888086e-02 1.775667e+00 -3.265045e+00 -7.843711e-05 -3.879199e-05 8.554188e-05
N 3.111755e+00 -3.665530e+00 1.777232e+00 2.862029e-04 1.454014e-04 2.747295e-04
N 3.113690e+00 -3.665247e+00 6.801212e+00 -2.642732e-05 7.430988e-05 1.042972e-04
N 3.123501e+00 -3.660155e+00 -3.207786e+00 -1.973317e-05 1.085365e-04 -1.375140e-04
N 1.547630e+00 -9.439901e-01 1.784480e+00 -2.123535e-04 4.172682e-06 8.013937e-05
N 1.542635e+00 -9.467562e-01 6.802701e+00 -5.932578e-05 1.073073e-04 1.716980e-04
N 1.597670e+00 -9.181813e-01 -3.291381e+00 -3.469105e-04 -6.001984e-05 1.166384e-04
N 3.111871e+00 1.771299e+00 1.777103e+00 2.803584e-04 1.512679e-04 -5.869808e-04
N 3.113208e+00 1.765835e+00 6.801077e+00 -8.647566e-06 1.576840e-05 3.594980e-05
N 3.120579e+00 1.772967e+00 -3.274393e+00 -7.705128e-05 -2.481886e-05 1.727589e-04
N 6.253818e+00 -3.665065e+00 1.776452e+00 1.720363e-04 6.461993e-05 4.556926e-04
N 6.253632e+00 -3.664687e+00 6.801115e+00 -8.005411e-05 -3.910370e-05 1.164793e-04
N 6.258174e+00 -3.659695e+00 -3.208438e+00 -5.140238e-05 1.009770e-05 -1.101255e-04
N 4.682582e+00 -9.463394e-01 1.776943e+00 2.206022e-04 1.563269e-05 3.314578e-04
N 4.683540e+00 -9.447401e-01 6.790928e+00 -1.486495e-04 9.801142e-05 5.770739e-05
N 4.690549e+00 -9.432395e-01 -3.265377e+00 -1.355265e-04 -6.871888e-05 8.185801e-05
N -3.166749e+00 1.771093e+00 1.776459e+00 2.113933e-04 2.379228e-04 -3.008690e-04
N -3.166530e+00 1.765804e+00 6.801120e+00 -1.553262e-04 1.145560e-04 3.598970e-05
N -3.159381e+00 1.773010e+00 -3.274356e+00 -1.314393e-04 1.108504e-04 1.356391e-04
N -2.786729e-02 -3.665758e+00 1.850070e+00 8.647167e-04 -6.472943e-04 3.041712e-04
N -2.569072e-02 -3.662609e+00 6.793761e+00 -3.028627e-06 -1.918071e-05 1.806528e-04
N -1.848511e-02 -3.710436e+00 -3.284473e+00 -5.657573e-05 3.405224e-04 2.384593e-04
N -1.599244e+00 -9.435967e-01 1.783356e+00 4.420480e-04 -1.043442e-04 7.065233e-05
N -1.593219e+00 -9.463198e-01 6.802886e+00 -1.370756e-04 9.868180e-05 1.412282e-04
N -1.633941e+00 -9.177069e-01 -3.292765e+00 -9.629463e-06 -1.720223e-05 2.103618e-04
