108
Energy=-1.260623e+06 Lattice="9.492865e+00 0.000000e+00 0.000000e+00 -4.748515e+00 8.218245e+00 0.000000e+00 -2.723608e-03 5.965717e-03 1.530965e+01" Stress="-5.165771e-04 -1.422706e-04 -1.597573e-05 -1.398071e-04 -9.100943e-04 2.437098e-04 -2.999489e-05 2.537550e-04 8.974957e-05" Properties=species:S:1:pos:R:3:forces:R:3 Config_type=AlGaN_super3_18_1_18.xyz
Al 1.561746e+00 8.723922e-01 2.417031e+00 -8.666192e-04 5.862638e-04 5.920325e-04
Al 1.558724e+00 8.851746e-01 7.513460e+00 -2.786332e-04 -2.222486e-04 3.402285e-04
Al 1.551822e+00 8.672654e-01 -2.731738e+00 -7.361645e-05 3.441118e-04 9.226037e-05
Al -2.168930e-02 3.608565e+00 2.425973e+00 -7.426924e-04 -1.259671e-03 7.201993e-04
Al -2.429069e-02 3.607173e+00 7.496181e+00 4.203180e-04 -6.714157e-05 5.514824e-04
Al -1.470803e-02 3.598694e+00 -2.718195e+00 7.333320e-04 1.848647e-04 3.244015e-04
Al 3.140052e+00 -1.859199e+00 2.390004e+00 -2.377339e-04 -8.445982e-04 4.785005e-04
Al 3.138555e+00 -1.863928e+00 7.531685e+00 -4.487023e-04 5.060851e-04 7.869061e-05
Ga 3.137631e+00 -1.853865e+00 -2.715626e+00 -8.906983e-05 6.322240e-05 8.429088e-04
Al -4.774473e+00 8.770153e-01 2.418027e+00 -1.380985e-03 8.865369e-04 2.454577e-04
Al -4.787635e+00 8.833147e-01 7.501316e+00 2.316401e-04 -3.612904e-04 3.209197e-05
Al -4.781966e+00 8.658703e-01 -2.704620e+00 1.263559e-04 1.101136e-04 4.547061e-04
Ga -6.363795e+00 3.596898e+00 2.436628e+00 1.850557e-04 1.979436e-04 -6.025831e-04
Al -6.357070e+00 3.605990e+00 7.502421e+00 2.623600e-04 -1.897980e-04 4.878311e-04
Ga -6.361381e+00 3.603588e+00 -2.726585e+00 2.747267e-05 5.505621e-05 -6.820076e-05
Ga -3.199773e+00 -1.869128e+00 2.409134e+00 6.671876e-04 1.717143e-04 5.980545e-04
Ga -3.188147e+00 -1.866514e+00 7.508918e+00 -1.310583e-04 5.495531e-05 3.736727e-04
Ga -3.195155e+00 -1.872326e+00 -2.700431e+00 -2.594671e-04 1.748737e-05 3.283039e-04
Ga -1.603643e+00 8.916285e-01 2.407882e+00 4.368018e-04 1.138049e-04 2.251520e-04
Al -1.591899e+00 8.837545e-01 7.484757e+00 -2.070732e-04 1.823518e-04 2.409625e-04
Ga -1.591811e+00 8.858129e-01 -2.679229e+00 7.173324e-04 -1.317836e-04 4.456710e-04
Al -3.177318e+00 3.606997e+00 2.440762e+00 -1.220260e-04 -2.569520e-04 -8.965509e-05
Ga -3.186385e+00 3.627374e+00 7.496657e+00 1.036661e-04 -3.174715e-04 1.081258e-04
Ga -3.186762e+00 3.616764e+00 -2.717700e+00 1.700543e-04 -1.490634e-04 -3.234484e-04
Ga -5.747204e-03 -1.857678e+00 2.425323e+00 -3.002610e-04 5.175233e-05 2.759557e-04
Al -1.888291e-02 -1.860862e+00 7.501234e+00 -3.484960e-04 6.299860e-04 6.173456e-04
Al -6.768254e-03 -1.856373e+00 -2.704746e+00 4.852573e-04 1.713660e-04 -2.848049e-04
Al -2.104315e-02 1.798917e+00 4.968778e+00 -4.075247e-05 -1.327547e-04 1.114115e-05
Al -7.944545e-03 1.798170e+00 -5.275624e+00 -4.250990e-04 -8.846934e-05 -1.496572e-05
Al -1.229142e-02 1.785593e+00 -1.466781e-01 9.583277e-05 1.142786e-04 8.771584e-05
Al 3.150878e+00 -3.697986e+00 4.944835e+00 -1.335678e-04 1.973419e-04 2.279956e-04
Al 3.163728e+00 -3.687452e+00 -5.267060e+00 -3.534866e-04 -1.731279e-04 6.219900e-04
Ga 3.161319e+00 -3.703758e+00 -1.261803e-01 6.809497e-05 6.215079e-04 -3.872838e-04
Ga 1.564498e+00 -9.476560e-01 4.980159e+00 -9.142314e-04 5.987620e-04 8.982853e-04
Al 1.563542e+00 -9.526603e-01 -5.280999e+00 -3.742373e-04 -1.133075e-04 1.778992e-04
Al 1.553952e+00 -9.375098e-01 -1.491478e-01 -2.458168e-04 -2.895285e-05 -1.944878e-04
Al 3.136331e+00 1.795699e+00 4.972564e+00 2.173073e-04 1.953730e-04 1.883031e-04
Al 3.132379e+00 1.778486e+00 -5.273308e+00 2.655202e-04 1.124167e-04 5.129703e-04
Ga 3.132184e+00 1.762356e+00 -1.480659e-01 2.596352e-05 6.018838e-05 -3.974844e-04
Al 6.305257e+00 -3.708104e+00 4.979733e+00 -1.708463e-04 2.396136e-04 5.868911e-04
Al 6.298840e+00 -3.711586e+00 -5.280016e+00 -3.625466e-05 1.040422e-05 4.349102e-04
Al 6.290396e+00 -3.694357e+00 -1.448674e-01 4.164778e-05 -4.688449e-05 -4.186521e-04
Ga 4.720084e+00 -9.468122e-01 4.960961e+00 -1.104846e-04 4.619059e-04 8.349092e-04
Al 4.707743e+00 -9.508149e-01 -5.268177e+00 1.163973e-04 -4.418822e-04 -1.784700e-04
Al 4.730055e+00 -9.440404e-01 -1.315728e-01 -3.919109e-05 -1.761436e-04 -1.039230e-03
Al -3.189162e+00 1.794187e+00 4.965478e+00 -4.415882e-04 -1.442300e-04 1.295909e-04
Ga -3.197076e+00 1.781511e+00 -5.273496e+00 3.304439e-04 -1.682720e-04 6.391154e-04
Al -3.191964e+00 1.773420e+00 -1.316984e-01 -1.997070e-04 -1.985599e-04 -2.604184e-04
Al -2.841463e-02 -3.698470e+00 4.972184e+00 3.700083e-04 1.879659e-04 1.459580e-04
Al -2.736308e-02 -3.683544e+00 -5.272501e+00 -2.485325e-04 6.148767e-04 -1.264007e-04
Ga -2.253923e-02 -3.681708e+00 -1.405643e-01 7.710053e-05 1.616959e-04 1.413032e-03
Al -1.601378e+00 -9.466408e-01 4.986528e+00 1.901163e-04 7.244043e-04 1.164650e-04
Ga -1.587588e+00 -9.566410e-01 -5.261760e+00 -1.250637e-04 -7.164876e-05 6.222219e-04
Al -1.600468e+00 -9.488784e-01 -1.589150e-01 -4.425680e-04 -2.118828e-04 -7.684016e-04
N 1.555759e+00 9.221187e-01 4.340341e+00 9.771185e-05 -1.710614e-04 -6.894865e-04
N 1.557204e+00 8.761332e-01 -5.874816e+00 3.104893e-04 9.491385e-05 -4.124481e-04
N 1.514333e+00 8.468783e-01 -8.058674e-01 -3.676986e-04 2.738934e-04 8.550219e-05
N -1.862930e-02 3.611112e+00 4.349698e+00 2.304597e-04 6.536938e-05 6.830331e-05
N -2.448603e-02 3.609421e+00 -5.894733e+00 -2.674835e-04 -1.814650e-04 3.911927e-05
N 1.748940e-02 3.584514e+00 -7.956166e-01 -5.493419e-05 -2.868638e-04 3.257911e-05
N 3.138013e+00 -1.905010e+00 4.299488e+00 2.785519e-04 -5.070002e-04 1.358149e-04
N 3.142903e+00 -1.871142e+00 -5.858578e+00 -3.819404e-05 -1.609175e-04 -6.103360e-04
N 3.142485e+00 -1.820770e+00 -7.243789e-01 1.990278e-04 -1.277408e-04 -8.039791e-05
N -4.772576e+00 9.269450e-01 4.336931e+00 2.699389e-04 -1.935443e-05 -9.061073e-04
N -4.815688e+00 8.494630e-01 -5.900036e+00 -1.767590e-04 7.414676e-04 -6.466241e-04
N -4.730475e+00 8.458838e-01 -7.836037e-01 4.143913e-04 3.258233e-04 2.590080e-04
N -6.356518e+00 3.614075e+00 4.413229e+00 -2.797855e-04 -3.359367e-04 9.118561e-05
N -6.348808e+00 3.606879e+00 -5.874152e+00 -2.669561e-04 -1.645195e-04 -2.115405e-04
N -6.393750e+00 3.630523e+00 -7.510943e-01 -4.119201e-04 3.129044e-04 3.712579e-04
N -3.142647e+00 -1.889892e+00 4.395213e+00 -4.222664e-04 -7.287423e-04 -6.280487e-04
N -3.225011e+00 -1.890709e+00 -5.829459e+00 -4.343301e-05 8.528633e-05 -2.833687e-04
N -3.191697e+00 -1.870204e+00 -7.074700e-01 -1.103845e-04 3.481592e-04 2.233231e-04
N -1.605342e+00 8.785418e-01 4.401295e+00 4.526953e-04 -2.367368e-04 -3.682517e-04
N -1.561788e+00 8.993422e-01 -5.912576e+00 5.321791e-04 2.327367e-04 -5.365625e-04
N -1.602999e+00 8.837817e-01 -6.918106e-01 3.010506e-04 -8.816004e-05 -1.126968e-04
N -3.188127e+00 3.613991e+00 4.369159e+00 8.541688e-05 -5.889198e-05 4.267713e-05
N -3.185403e+00 3.663274e+00 -5.837397e+00 9.369332e-04 9.209582e-05 -2.997359e-04
N -3.184651e+00 3.567560e+00 -7.476911e-01 8.437392e-05 -4.852982e-04 3.408436e-04
N -6.114565e-02 -1.882076e+00 4.397201e+00 2.484831e-04 -3.030401e-04 -7.117071e-04
N 1.941706e-02 -1.889556e+00 -5.901717e+00 7.407027e-05 -4.998285e-04 4.552237e-05
N -1.448344e-02 -1.819475e+00 -7.843211e-01 2.205712e-04 8.428106e-06 4.420157e-04
N 2.551551e-02 1.813669e+00 1.778942e+00 -2.745957e-05 6.163086e-05 5.369060e-07
N -1.583183e-02 1.792193e+00 6.889012e+00 -1.690316e-04 1.788545e-04 -3.467216e-04
N 1.440059e-02 1.809665e+00 -3.353176e+00 2.651939e-04 -2.963839e-04 -6.776401e-05
N 3.150236e+00 -3.699876e+00 1.861236e+00 -1.342419e-03 3.748032e-05 -1.609296e-04
N 3.189668e+00 -3.658122e+00 6.869788e+00 -4.466478e-04 -1.289975e-04 -8.787151e-04
N 3.193291e+00 -3.715326e+00 -3.350188e+00 -3.672224e-04 4.111497e-04 -9.589735e-04
N 1.597345e+00 -9.224795e-01 1.775051e+00 -4.919020e-04 8.873704e-05 -3.155818e-04
N 1.564142e+00 -9.473045e-01 6.960902e+00 1.266149e-03 4.056615e-04 -4.008644e-04
N 1.520024e+00 -9.310475e-01 -3.358603e+00 -5.628576e-04 -1.830361e-04 -5.644648e-05
N 3.132579e+00 1.736018e+00 1.827172e+00 2.390324e-03 -5.439558e-04 2.078349e-04
N 3.134911e+00 1.788069e+00 6.896555e+00 9.289200e-05 -3.913966e-05 -4.130315e-04
N 3.140686e+00 1.732295e+00 -3.345508e+00 8.241035e-05 1.387818e-05 -1.586460e-04
N 6.259628e+00 -3.721094e+00 1.766977e+00 1.064789e-03 2.582781e-04 -1.071641e-04
N 6.304217e+00 -3.742077e+00 6.892342e+00 -1.546460e-04 2.533817e-04 -1.094101e-03
N 6.263466e+00 -3.717823e+00 -3.369452e+00 -1.495902e-04 -1.195468e-04 -1.893648e-04
N 4.683777e+00 -9.218919e-01 1.786628e+00 7.894789e-04 5.555639e-04 2.911707e-04
N 4.674761e+00 -9.263431e-01 6.931196e+00 4.271130e-08 1.779624e-04 -2.639903e-04
N 4.725085e+00 -9.042971e-01 -3.358890e+00 -2.204715e-04 -4.689318e-04 -2.354317e-04
N -3.235011e+00 1.813004e+00 1.790710e+00 1.178784e-04 1.328328e-04 2.250671e-05
N -3.193654e+00 1.745668e+00 6.882201e+00 -3.555718e-05 -2.348395e-04 1.175578e-04
N -3.227915e+00 1.755163e+00 -3.305681e+00 -2.035892e-04 1.685465e-04 -1.764646e-04
N 1.756732e-02 -3.717458e+00 1.835255e+00 4.571911e-04 9.811064e-05 -1.221643e-03
N -6.625779e-02 -3.664523e+00 6.883764e+00 -2.960350e-04 -1.051878e-03 -3.592862e-04
N -2.568888e-02 -3.639326e+00 -3.358441e+00 -8.759575e-05 -4.235160e-05 3.255384e-04
N -1.600118e+00 -9.525424e-01 1.745579e+00 -3.677034e-04 -1.712871e-04 7.362992e-05
N -1.564486e+00 -9.242579e-01 6.894676e+00 -8.229176e-05 -4.871578e-04 -3.393242e-04
N -1.561764e+00 -9.699444e-01 -3.289113e+00 -3.952649e-04 -1.323007e-04 7.688506e-05
