108
Energy=-1.809929e+06 Lattice="9.565310e+00 0.000000e+00 0.000000e+00 -4.793465e+00 8.279504e+00 0.000000e+00 -5.141052e-03 7.319605e-03 1.545844e+01" Stress="-2.318046e-04 -2.135551e-04 -2.188843e-04 -2.110851e-04 -2.569167e-04 3.120861e-04 -2.263924e-04 3.162270e-04 -3.614415e-04" Properties=species:S:1:pos:R:3:forces:R:3 Config_type=AlGaN_super3_30_0_7.xyz
Al 1.569775e+00 8.751541e-01 2.426599e+00 -1.734430e-03 4.597108e-03 -4.303631e-03
Al 1.557383e+00 8.688049e-01 7.582838e+00 8.647087e-04 -5.093333e-04 1.719363e-03
Al 1.562537e+00 8.707453e-01 -2.735205e+00 7.669624e-04 -5.396024e-04 2.145354e-03
Al -3.850825e-02 3.629743e+00 2.432704e+00 3.756192e-04 -2.418485e-03 -1.226479e-03
Al -3.862554e-02 3.628174e+00 7.575259e+00 -4.250128e-04 8.248420e-04 1.004080e-03
Ga -1.845837e-02 3.618174e+00 -2.717586e+00 -3.748145e-04 -3.062533e-04 9.860424e-04
Al 3.168880e+00 -1.875448e+00 2.448759e+00 3.912565e-04 -1.172740e-03 4.863088e-04
Ga 3.145398e+00 -1.874589e+00 7.564054e+00 3.945861e-04 -7.248054e-04 1.105588e-03
Al 3.157507e+00 -1.873497e+00 -2.736663e+00 -2.887286e-04 -3.039617e-04 4.906253e-04
Ga -4.833425e+00 8.744766e-01 2.403634e+00 1.799931e-03 1.242772e-03 2.780490e-04
Al -4.816071e+00 8.936230e-01 7.596517e+00 9.851257e-04 4.105648e-04 2.812239e-04
Ga -4.826930e+00 8.797419e-01 -2.711935e+00 1.794540e-03 4.339964e-04 7.468699e-04
Ga -6.410298e+00 3.631683e+00 2.444786e+00 -3.217453e-04 -1.036453e-03 1.788395e-04
Ga -6.400282e+00 3.637415e+00 7.571958e+00 5.365615e-04 7.351702e-04 -2.902421e-04
Al -6.404096e+00 3.633354e+00 -2.721563e+00 7.826421e-04 -2.192176e-04 -3.281496e-04
Ga -3.211655e+00 -1.861755e+00 2.419068e+00 3.882290e-04 -7.437676e-04 7.116376e-04
Ga -3.203490e+00 -1.870476e+00 7.573958e+00 5.182411e-04 -2.551098e-04 3.445234e-04
Ga -3.198762e+00 -1.883102e+00 -2.697099e+00 8.149201e-06 -5.241877e-05 -1.748773e-04
Al -1.600485e+00 8.798408e-01 2.426990e+00 1.349791e-03 1.071524e-03 2.196751e-04
Ga -1.621608e+00 8.981504e-01 7.588246e+00 8.538699e-04 -1.429781e-03 1.694965e-04
Ga -1.602072e+00 8.813475e-01 -2.731100e+00 4.059637e-04 4.297052e-04 1.400523e-03
Ga -3.202057e+00 3.657853e+00 2.459887e+00 4.511503e-04 -1.510357e-03 -9.406072e-04
Al -3.219087e+00 3.648402e+00 7.565708e+00 -2.811227e-05 8.825265e-06 4.385408e-04
Ga -3.225241e+00 3.650973e+00 -2.730071e+00 7.785043e-04 -1.366214e-03 -1.526652e-04
Ga -1.531670e-02 -1.852874e+00 2.446266e+00 -5.100921e-05 -7.169026e-04 8.652621e-04
Al -4.394462e-03 -1.862374e+00 7.550459e+00 7.270935e-05 -1.377618e-03 1.739844e-03
Al -6.872354e-03 -1.872208e+00 -2.724402e+00 1.387656e-03 -7.386146e-04 2.438571e-04
Ga -2.328712e-02 1.790410e+00 4.987736e+00 -9.577789e-04 9.955529e-04 1.877086e-03
Al -1.836738e-02 1.785231e+00 -5.322283e+00 6.089088e-05 1.108087e-03 1.478395e-03
Al -1.483097e-02 1.780592e+00 -1.299378e-01 -3.041346e-04 3.731002e-04 3.103583e-03
Al 3.163353e+00 -3.714964e+00 5.007741e+00 1.090532e-03 5.510353e-04 8.383322e-04
Ga 3.171752e+00 -3.735385e+00 -5.315406e+00 -1.177893e-04 4.431310e-04 4.244989e-04
Ga 3.183428e+00 -3.715512e+00 -1.302421e-01 5.365057e-06 1.065467e-03 -1.642219e-03
Al 1.566332e+00 -9.649498e-01 4.990752e+00 -4.365815e-05 5.272015e-04 1.373637e-03
Al 1.566910e+00 -9.564431e-01 -5.300534e+00 -5.545018e-04 6.195284e-04 1.893194e-03
Ga 1.585198e+00 -9.520140e-01 -1.592272e-01 -1.031926e-03 1.625963e-03 1.869813e-03
Ga 3.150933e+00 1.787587e+00 5.023396e+00 -9.617868e-04 4.621341e-04 1.230081e-03
Ga 3.151645e+00 1.782376e+00 -5.305255e+00 -1.911249e-04 -3.248446e-04 1.096213e-03
Al 3.141017e+00 1.793210e+00 -1.696563e-01 -3.272912e-04 1.733739e-04 8.985969e-04
Ga 6.350280e+00 -3.712723e+00 5.004169e+00 -6.990788e-04 -7.053550e-04 -6.700730e-04
Ga 6.354849e+00 -3.734588e+00 -5.294936e+00 -7.902054e-04 4.170805e-04 1.118734e-03
Ga 6.362695e+00 -3.731464e+00 -1.357680e-01 -2.033254e-04 6.852109e-04 -2.192389e-04
Ga 4.754342e+00 -9.594526e-01 5.009678e+00 -8.256283e-04 -6.653546e-04 8.606654e-04
Ga 4.758925e+00 -9.533018e-01 -5.300489e+00 -4.566412e-04 2.366096e-04 4.598585e-04
Al 4.751776e+00 -9.623972e-01 -1.461167e-01 -2.183557e-04 -8.814091e-04 -2.479280e-04
Ga -3.215841e+00 1.807492e+00 5.008606e+00 3.825892e-04 1.060222e-04 1.032243e-04
Al -3.212237e+00 1.804185e+00 -5.322519e+00 -6.364720e-04 1.072567e-04 1.082654e-03
Ga -3.209827e+00 1.783897e+00 -1.279971e-01 4.014166e-05 1.333498e-04 -2.326479e-04
Al -6.724706e-03 -3.693314e+00 5.031109e+00 -4.600865e-04 -4.872652e-04 -4.746069e-04
Ga -3.856334e-03 -3.708472e+00 -5.309109e+00 -4.407423e-05 3.390801e-04 1.030045e-03
Ga -3.303047e-02 -3.713666e+00 -1.610299e-01 -3.044013e-04 1.176574e-04 -1.224587e-03
Al -1.596206e+00 -9.553583e-01 5.007873e+00 -1.145757e-03 4.000100e-04 1.121472e-03
Ga -1.585952e+00 -9.514263e-01 -5.302553e+00 -1.256330e-03 1.486735e-04 1.038430e-03
Al -1.605763e+00 -9.440532e-01 -1.504905e-01 -1.061208e-03 -1.055908e-03 2.967035e-05
N 1.566644e+00 8.359563e-01 4.331255e+00 1.699827e-03 -1.073876e-03 2.924881e-03
N 1.527474e+00 8.423774e-01 -5.944166e+00 1.678869e-04 -1.507408e-04 -1.274437e-03
N 1.556086e+00 9.203950e-01 -7.961120e-01 1.037447e-03 2.442139e-04 -2.606231e-03
N -7.403721e-02 3.658795e+00 4.347936e+00 -8.806425e-04 5.895618e-04 -2.356964e-05
N -2.582811e-02 3.588842e+00 -5.959640e+00 1.062226e-04 -1.060680e-03 -1.391702e-03
N -2.938242e-02 3.580736e+00 -7.405079e-01 1.337362e-04 -1.020367e-03 -5.159429e-04
N 3.129141e+00 -1.901294e+00 4.381546e+00 -6.749836e-04 -5.208849e-04 -6.317212e-04
N 3.123459e+00 -1.859054e+00 -5.914798e+00 -1.597542e-04 -1.649631e-04 -9.526862e-05
N 3.204726e+00 -1.863342e+00 -8.170593e-01 7.945052e-04 2.827090e-04 1.379420e-05
N -4.819978e+00 8.841057e-01 4.371833e+00 1.018666e-03 1.934688e-04 -1.230627e-03
N -4.772620e+00 9.022909e-01 -5.946563e+00 1.175154e-03 4.413289e-04 -1.083002e-03
N -4.849893e+00 8.544484e-01 -7.248806e-01 -2.727081e-04 9.402881e-04 -8.588857e-05
N -6.361970e+00 3.659891e+00 4.424333e+00 1.329583e-03 7.340030e-04 3.830337e-04
N -6.399149e+00 3.638044e+00 -5.923584e+00 4.368761e-04 -3.331126e-04 -4.675058e-04
N -6.407548e+00 3.592926e+00 -8.072913e-01 3.171655e-04 -9.335200e-04 -1.424967e-05
N -3.167948e+00 -1.845623e+00 4.401721e+00 1.024646e-03 4.044915e-04 -7.303688e-04
N -3.199548e+00 -1.879637e+00 -5.915610e+00 3.763260e-04 -1.743932e-04 -6.411457e-04
N -3.206991e+00 -1.833872e+00 -7.137900e-01 4.789303e-04 6.765910e-04 3.541828e-04
N -1.624503e+00 8.371387e-01 4.353672e+00 8.057973e-04 -1.005639e-03 -1.239148e-03
N -1.620729e+00 9.266957e-01 -5.889785e+00 4.823059e-04 1.559198e-04 -4.978590e-04
N -1.577962e+00 8.653658e-01 -7.395533e-01 1.200084e-03 7.683903e-05 -1.573858e-03
N -3.220801e+00 3.696394e+00 4.433654e+00 -5.905428e-04 -9.097846e-05 7.266065e-04
N -3.219154e+00 3.599727e+00 -5.966564e+00 4.084784e-04 -1.125898e-03 -1.559376e-03
N -3.215532e+00 3.637856e+00 -7.646463e-01 3.011783e-04 -6.497636e-04 4.447876e-04
N -2.462967e-02 -1.872434e+00 4.434705e+00 6.209684e-04 -8.353014e-04 8.910666e-05
N 2.789786e-02 -1.851791e+00 -5.975182e+00 1.018224e-03 -7.212192e-04 -2.028987e-03
N -5.622652e-02 -1.849598e+00 -8.061170e-01 4.978953e-04 6.250095e-05 4.040245e-04
N -1.595909e-02 1.790265e+00 1.817250e+00 -1.372451e-03 1.926498e-03 -6.037683e-04
N 1.625839e-02 1.819141e+00 6.978765e+00 2.086907e-04 7.680624e-04 -1.135844e-03
N 2.101363e-02 1.770209e+00 -3.398652e+00 2.750944e-04 4.305746e-04 -2.007793e-03
N 3.212726e+00 -3.688670e+00 1.845238e+00 -7.104343e-06 1.188404e-03 2.000111e-03
N 3.172952e+00 -3.765382e+00 6.941188e+00 3.070926e-04 -1.191374e-04 -9.094407e-04
N 3.179354e+00 -3.684293e+00 -3.337054e+00 3.365287e-05 1.589668e-03 -3.383993e-04
N 1.619814e+00 -9.302198e-01 1.846461e+00 9.341408e-04 -3.878840e-03 -3.641301e-03
N 1.537960e+00 -9.287295e-01 6.919332e+00 -1.145259e-03 1.334674e-03 -2.420254e-03
N 1.576188e+00 -9.622082e-01 -3.350428e+00 -8.311691e-04 3.728806e-04 -9.408996e-04
N 3.111109e+00 1.787519e+00 1.754961e+00 -3.574840e-04 -7.327276e-04 3.862882e-04
N 3.152627e+00 1.747741e+00 7.005769e+00 -5.704190e-04 -5.685353e-04 -5.919561e-04
N 3.120067e+00 1.815529e+00 -3.317652e+00 -1.129480e-03 6.563949e-04 -4.151148e-04
N 6.320118e+00 -3.742411e+00 1.843794e+00 -2.123165e-04 2.716245e-04 -5.929603e-04
N 6.311472e+00 -3.741138e+00 6.975022e+00 -3.448512e-04 -2.848732e-04 -5.071146e-04
N 6.397178e+00 -3.745181e+00 -3.316756e+00 4.686126e-04 4.524608e-04 -6.012437e-04
N 4.713965e+00 -9.880599e-01 1.774171e+00 -1.266296e-03 -4.988530e-04 -3.586827e-04
N 4.758219e+00 -9.059641e-01 6.983316e+00 -7.521988e-04 4.433331e-05 -6.557274e-04
N 4.730516e+00 -9.838293e-01 -3.326323e+00 -8.180138e-04 -5.046513e-04 -4.887124e-04
N -3.170440e+00 1.785465e+00 1.847186e+00 -8.677092e-04 -4.166390e-04 4.427598e-04
N -3.257888e+00 1.824551e+00 6.990007e+00 -1.280054e-03 5.589897e-04 7.014988e-05
N -3.216823e+00 1.797447e+00 -3.398076e+00 -7.807751e-04 -1.720093e-04 -9.165778e-04
N -1.730881e-02 -3.709494e+00 1.806990e+00 -6.475409e-04 5.569556e-04 1.621127e-03
N 2.173959e-02 -3.687193e+00 6.948726e+00 4.213514e-04 7.362562e-04 2.722432e-04
N -5.594214e-02 -3.691993e+00 -3.319098e+00 -1.637264e-03 9.139372e-04 9.248204e-05
N -1.604373e+00 -9.100723e-01 1.769502e+00 -8.449665e-04 -3.305919e-05 -3.714505e-04
N -1.571449e+00 -9.688976e-01 6.928053e+00 -4.530949e-04 3.327632e-04 -8.154350e-04
N -1.566404e+00 -9.843171e-01 -3.328579e+00 -8.537678e-04 -7.139917e-04 -5.779504e-04
