108
Energy=-1.809929e+06 Lattice="9.564710e+00 0.000000e+00 0.000000e+00 -4.790951e+00 8.279893e+00 0.000000e+00 -3.661403e-03 3.077628e-03 1.545932e+01" Stress="-1.521487e-04 -2.387223e-04 -1.574470e-04 -2.339248e-04 -1.163338e-04 1.477566e-04 -1.644650e-04 1.486548e-04 -5.836301e-04" Properties=species:S:1:pos:R:3:forces:R:3 Config_type=AlGaN_super3_30_0_10.xyz
Al 1.568031e+00 8.854691e-01 2.408540e+00 -2.017577e-03 -1.735668e-03 2.556573e-03
Al 1.559518e+00 8.672807e-01 7.585314e+00 4.997180e-04 -4.402386e-04 1.175562e-03
Al 1.564787e+00 8.702183e-01 -2.722784e+00 -1.369955e-04 9.323149e-04 -2.224226e-03
Al -3.895706e-02 3.626981e+00 2.429297e+00 8.006351e-05 -7.644375e-04 -2.099657e-04
Al -3.769256e-02 3.627798e+00 7.576469e+00 -2.864715e-04 3.496177e-04 7.279592e-04
Ga -1.785613e-02 3.620790e+00 -2.717330e+00 -2.200986e-04 -4.736581e-04 4.629501e-04
Al 3.167611e+00 -1.879755e+00 2.448134e+00 -3.928250e-05 -2.614098e-04 7.016033e-04
Ga 3.143552e+00 -1.876271e+00 7.565014e+00 1.869019e-04 -3.638856e-04 7.546759e-04
Al 3.154856e+00 -1.870774e+00 -2.735571e+00 -1.309280e-05 -2.115044e-04 4.480501e-04
Ga -4.830712e+00 8.720670e-01 2.403650e+00 1.290067e-03 5.218350e-05 3.511078e-04
Al -4.813121e+00 8.921963e-01 7.596962e+00 5.721441e-04 1.335154e-04 2.648930e-04
Ga -4.824534e+00 8.823335e-01 -2.710428e+00 1.104750e-03 1.706281e-04 3.983943e-04
Ga -6.410656e+00 3.626827e+00 2.446002e+00 -2.675277e-05 -8.767296e-05 9.349293e-05
Ga -6.397202e+00 3.636633e+00 7.571852e+00 1.999998e-04 2.891362e-04 -2.282406e-04
Al -6.401929e+00 3.635171e+00 -2.721275e+00 3.399482e-04 -2.591445e-04 -5.556999e-05
Ga -3.212063e+00 -1.865563e+00 2.418511e+00 2.582062e-04 -2.969733e-04 4.712844e-04
Ga -3.203880e+00 -1.873262e+00 7.573808e+00 2.156461e-04 -1.641688e-04 1.774038e-04
Ga -3.200092e+00 -1.881367e+00 -2.697332e+00 -1.872543e-05 1.457825e-05 -3.449119e-04
Al -1.598262e+00 8.788766e-01 2.425698e+00 6.128008e-04 -1.201421e-05 6.559878e-04
Ga -1.618823e+00 8.940919e-01 7.589018e+00 7.683382e-04 -9.512877e-04 8.582859e-05
Ga -1.599890e+00 8.832962e-01 -2.731170e+00 6.866415e-04 2.512460e-04 5.829095e-04
Ga -3.201023e+00 3.653159e+00 2.459103e+00 5.055481e-04 -5.577775e-04 -5.642805e-04
Al -3.216457e+00 3.646257e+00 7.565893e+00 9.540603e-05 -1.519142e-04 2.419881e-04
Ga -3.223125e+00 3.651228e+00 -2.730411e+00 7.136789e-04 -8.440499e-04 -1.950493e-04
Ga -1.591661e-02 -1.856982e+00 2.447077e+00 3.524814e-04 -6.872372e-05 9.350055e-04
Al -6.308292e-03 -1.869108e+00 7.557946e+00 1.232689e-03 5.373120e-04 -8.556682e-04
Al -6.254491e-03 -1.871873e+00 -2.722572e+00 6.078783e-04 -3.429928e-04 3.760571e-04
Ga -2.190357e-02 1.789086e+00 4.990159e+00 -3.067889e-04 3.135661e-04 1.377778e-03
Al -1.766771e-02 1.789479e+00 -5.321731e+00 -1.039981e-05 3.893074e-04 1.188477e-03
Al -1.526500e-02 1.783644e+00 -1.285016e-01 -6.095236e-04 3.275657e-04 1.381998e-03
Al 3.162983e+00 -3.716569e+00 5.008178e+00 4.305669e-04 5.072393e-04 4.296975e-04
Ga 3.169281e+00 -3.732433e+00 -5.315616e+00 -2.330716e-04 1.922880e-04 1.098987e-04
Ga 3.182638e+00 -3.711927e+00 -1.327846e-01 -3.335822e-04 7.291536e-04 -8.519808e-05
Al 1.564432e+00 -9.659760e-01 4.997889e+00 3.045152e-04 3.020144e-04 -1.292266e-03
Al 1.564075e+00 -9.520756e-01 -5.297177e+00 -3.710739e-04 6.766927e-04 1.340102e-03
Ga 1.583759e+00 -9.476842e-01 -1.567090e-01 -1.004325e-03 5.383256e-05 9.486652e-04
Ga 3.152340e+00 1.785513e+00 5.025984e+00 -9.055984e-04 -2.471039e-04 6.753184e-04
Ga 3.152122e+00 1.784507e+00 -5.304219e+00 -2.608611e-04 -3.796537e-04 9.118599e-04
Al 3.141700e+00 1.794430e+00 -1.678503e-01 4.682169e-04 4.270070e-04 4.960307e-04
Ga 6.348035e+00 -3.716231e+00 5.002394e+00 -5.476467e-04 -5.591210e-04 -3.438957e-04
Ga 6.351803e+00 -3.732145e+00 -5.294291e+00 -3.669096e-04 1.279521e-04 7.288511e-04
Ga 6.361473e+00 -3.729906e+00 -1.361642e-01 1.384921e-05 4.008540e-04 1.422891e-05
Ga 4.752553e+00 -9.629675e-01 5.009419e+00 -8.412290e-04 -1.519105e-04 4.271545e-04
Ga 4.756485e+00 -9.502163e-01 -5.300580e+00 -3.068212e-04 4.389945e-04 2.048889e-04
Al 4.750993e+00 -9.621420e-01 -1.461247e-01 -1.115689e-04 -4.257248e-04 3.077798e-04
Ga -3.212410e+00 1.804282e+00 5.008619e+00 2.284488e-04 1.422730e-04 1.341819e-04
Al -3.211557e+00 1.805970e+00 -5.322232e+00 -2.343687e-04 -1.204355e-05 6.358329e-04
Ga -3.206722e+00 1.784373e+00 -1.270252e-01 -1.065419e-04 1.400373e-06 8.757658e-05
Al -7.148472e-03 -3.696699e+00 5.031601e+00 -1.045392e-04 6.498865e-06 -3.355258e-04
Ga -4.796320e-03 -3.706495e+00 -5.308290e+00 -1.063117e-04 -6.020546e-05 7.629586e-04
Ga -3.328534e-02 -3.713633e+00 -1.607955e-01 -2.960942e-04 1.422376e-04 5.168699e-05
Al -1.596211e+00 -9.587479e-01 5.009296e+00 -5.090588e-04 2.777794e-04 7.490979e-04
Ga -1.587874e+00 -9.499161e-01 -5.302030e+00 -1.055920e-03 5.109989e-04 8.298769e-04
Al -1.606596e+00 -9.450976e-01 -1.505723e-01 -6.598891e-04 -5.147947e-04 4.210233e-04
N 1.569904e+00 8.317977e-01 4.334899e+00 6.612120e-04 1.122358e-04 -1.750131e-03
N 1.527352e+00 8.451771e-01 -5.944315e+00 1.113611e-04 -2.321506e-04 -1.153979e-03
N 1.557250e+00 9.239327e-01 -7.979666e-01 5.656105e-04 2.654529e-04 1.698774e-04
N -7.435604e-02 3.656959e+00 4.346088e+00 -5.757828e-04 2.972032e-04 -4.406634e-04
N -2.576205e-02 3.591157e+00 -5.961245e+00 6.389422e-05 -6.395346e-04 -9.413609e-04
N -2.838886e-02 3.581869e+00 -7.411330e-01 1.751495e-04 -7.971561e-04 -2.628415e-04
N 3.126404e+00 -1.904391e+00 4.380127e+00 -6.454177e-04 -2.454659e-04 -2.696597e-04
N 3.119899e+00 -1.855527e+00 -5.914049e+00 -2.855813e-04 -1.045893e-04 1.365456e-05
N 3.204209e+00 -1.859803e+00 -8.174374e-01 5.883448e-04 2.362005e-04 -1.693785e-04
N -4.816813e+00 8.816582e-01 4.370871e+00 6.713113e-04 4.152712e-05 -8.922203e-04
N -4.770437e+00 9.052827e-01 -5.947937e+00 7.813303e-04 1.184274e-04 -6.564873e-04
N -4.848519e+00 8.566870e-01 -7.232056e-01 -2.995986e-04 5.015922e-04 1.372728e-04
N -6.359178e+00 3.657807e+00 4.425619e+00 9.969339e-04 5.532507e-04 9.439422e-05
N -6.397833e+00 3.640540e+00 -5.923814e+00 2.699159e-04 -3.398805e-05 -2.094575e-04
N -6.405308e+00 3.592860e+00 -8.065519e-01 1.170545e-04 -7.402608e-04 1.007330e-05
N -3.167193e+00 -1.848508e+00 4.400636e+00 8.520800e-04 4.233947e-04 -5.416366e-04
N -3.201381e+00 -1.877777e+00 -5.916589e+00 3.268396e-04 -6.942500e-05 -4.788886e-04
N -3.207119e+00 -1.832176e+00 -7.136396e-01 2.377377e-04 5.236792e-04 4.326520e-04
N -1.620827e+00 8.332291e-01 4.352023e+00 6.829399e-04 -7.107318e-04 -1.154918e-03
N -1.619659e+00 9.288401e-01 -5.889706e+00 5.027191e-04 -5.058264e-05 -3.347193e-04
N -1.574864e+00 8.660320e-01 -7.410351e-01 1.010886e-03 -2.759793e-04 -8.415217e-04
N -3.219187e+00 3.693268e+00 4.434653e+00 -2.893213e-04 -1.060949e-04 4.875769e-04
N -3.217735e+00 3.600355e+00 -5.968535e+00 3.778275e-04 -6.481010e-04 -8.834523e-04
N -3.212660e+00 3.638043e+00 -7.639420e-01 3.119796e-04 -4.109482e-04 3.229215e-04
N -2.382848e-02 -1.876204e+00 4.436503e+00 3.078178e-04 -5.542441e-04 -4.455230e-04
N 2.780379e-02 -1.850203e+00 -5.976979e+00 8.271620e-04 -5.226835e-04 -4.059549e-04
N -5.610256e-02 -1.848811e+00 -8.045752e-01 4.688587e-04 1.311837e-04 -6.916492e-07
N -1.984276e-02 1.794332e+00 1.811235e+00 -6.265866e-04 8.528875e-04 -4.374338e-04
N 1.827654e-02 1.818863e+00 6.979703e+00 -4.950281e-05 5.279861e-04 -6.508156e-04
N 2.269025e-02 1.773585e+00 -3.401201e+00 8.286444e-04 -3.737983e-04 -3.639148e-04
N 3.210626e+00 -3.690351e+00 1.846704e+00 -9.756113e-05 4.534090e-04 2.269579e-04
N 3.172494e+00 -3.767294e+00 6.940562e+00 1.876036e-04 -2.783637e-05 -6.240314e-04
N 3.177406e+00 -3.680057e+00 -3.337114e+00 -1.809184e-04 1.092405e-03 -1.578505e-04
N 1.619474e+00 -9.382481e-01 1.836110e+00 2.481199e-04 3.011545e-06 -1.112776e-03
N 1.536517e+00 -9.274916e-01 6.915350e+00 -1.767757e-03 -1.511573e-05 7.325090e-04
N 1.573837e+00 -9.593734e-01 -3.348109e+00 -6.144292e-04 2.932915e-04 -8.491147e-04
N 3.110652e+00 1.783124e+00 1.755414e+00 5.969769e-04 5.201266e-04 -1.322508e-03
N 3.154263e+00 1.745562e+00 7.007181e+00 -2.742797e-04 -2.962375e-04 -2.889232e-04
N 3.119833e+00 1.818463e+00 -3.316829e+00 -1.086417e-03 -3.319463e-05 1.434348e-04
N 6.317605e+00 -3.746073e+00 1.840977e+00 -1.714306e-04 5.833114e-05 -4.703607e-04
N 6.309603e+00 -3.743792e+00 6.973966e+00 -1.512338e-04 -2.674725e-04 -3.532139e-04
N 6.396023e+00 -3.742908e+00 -3.316828e+00 4.636735e-04 2.080085e-04 -2.863763e-04
N 4.711784e+00 -9.915686e-01 1.773287e+00 -8.271284e-04 -6.301768e-06 -6.611686e-04
N 4.756679e+00 -9.079356e-01 6.982933e+00 -5.270511e-04 1.665272e-04 -4.292165e-04
N 4.727744e+00 -9.818316e-01 -3.326367e+00 -6.612308e-04 -1.985457e-04 -2.292629e-04
N -3.169790e+00 1.781805e+00 1.846107e+00 -3.149600e-04 -2.687116e-04 1.243042e-05
N -3.256462e+00 1.822492e+00 6.990386e+00 -7.737457e-04 4.761286e-04 3.956178e-05
N -3.215745e+00 1.798648e+00 -3.399361e+00 -6.062196e-04 -4.996670e-05 -6.026263e-04
N -2.069826e-02 -3.713693e+00 1.809479e+00 -3.211470e-04 2.489254e-04 1.101292e-04
N 2.285005e-02 -3.688630e+00 6.949366e+00 2.217163e-04 2.329397e-04 3.309958e-04
N -5.807991e-02 -3.690001e+00 -3.318004e+00 -9.934142e-04 7.084127e-04 -7.221924e-05
N -1.605093e+00 -9.121019e-01 1.768401e+00 -5.273905e-04 4.117278e-04 -6.537330e-04
N -1.571334e+00 -9.726714e-01 6.928706e+00 -1.983448e-04 2.633232e-04 -4.943351e-04
N -1.567289e+00 -9.838897e-01 -3.328495e+00 -3.166336e-04 -4.025799e-04 -3.129695e-04
