108
Energy=-1.626826e+06 Lattice="9.529670e+00 0.000000e+00 0.000000e+00 -4.787550e+00 8.243593e+00 0.000000e+00 9.351308e-03 4.079591e-03 1.544064e+01" Stress="-5.380890e-03 -7.615519e-04 7.771102e-04 -7.682842e-04 -4.960908e-03 -5.845382e-04 7.799498e-04 -5.865972e-04 3.489989e-03" Properties=species:S:1:pos:R:3:forces:R:3 Config_type=AlGaN_super3_26_2_5.xyz
Al 1.543165e+00 7.996597e-01 2.437937e+00 3.503321e-03 1.771725e-02 -1.389087e-03
Al 1.562307e+00 8.851453e-01 7.534361e+00 3.235905e-03 6.297309e-03 2.440074e-03
Al 1.535282e+00 8.687575e-01 -2.730638e+00 2.224478e-03 3.550896e-03 4.201588e-03
Al -4.364221e-02 3.631056e+00 2.427748e+00 2.011215e-03 -2.606958e-03 3.179401e-03
Al -1.639800e-02 3.604210e+00 7.555281e+00 7.350746e-04 -1.037216e-03 9.944567e-04
Al -5.050566e-02 3.603235e+00 -2.718984e+00 3.265445e-03 1.933367e-05 3.127508e-03
Al 3.142469e+00 -1.885384e+00 2.430399e+00 3.811674e-04 5.896454e-04 -1.106846e-02
Ga 3.183874e+00 -1.853157e+00 7.576053e+00 -1.162664e-03 -4.181864e-03 2.694357e-03
Ga 3.144845e+00 -1.877935e+00 -2.723610e+00 3.471750e-03 9.902842e-04 3.813796e-03
Al -4.815373e+00 8.679168e-01 2.509105e+00 1.397428e-03 -1.462139e-04 -7.090427e-03
Al -4.790620e+00 8.756525e-01 7.555680e+00 3.556508e-04 9.494308e-03 2.133422e-03
Ga -4.798748e+00 8.762249e-01 -2.729572e+00 1.515184e-03 1.307499e-03 2.299503e-03
Ga -6.388229e+00 3.617969e+00 2.447536e+00 -3.199026e-03 -2.221655e-03 2.710195e-03
Al -6.374966e+00 3.618242e+00 7.551400e+00 3.161007e-04 -3.092856e-03 8.815184e-04
Ga -6.382639e+00 3.624699e+00 -2.723903e+00 5.638496e-04 -2.394879e-04 2.141835e-03
Al -3.192643e+00 -1.865387e+00 2.448022e+00 8.802544e-04 -1.386461e-04 2.581490e-03
Ga -3.172397e+00 -1.841550e+00 7.577045e+00 -2.476628e-03 -6.419321e-03 3.547593e-03
Ga -3.177475e+00 -1.854419e+00 -2.737741e+00 -6.872241e-05 -1.121163e-03 3.938373e-03
Ga -1.622493e+00 8.730571e-01 2.464998e+00 2.489031e-03 -8.248236e-04 3.467313e-03
Al -1.610250e+00 8.812563e-01 7.540275e+00 7.520252e-04 9.933546e-03 2.223091e-03
Al -1.604279e+00 8.780097e-01 -2.734566e+00 -1.397352e-03 -4.694859e-04 2.945123e-03
Ga -3.226666e+00 3.637384e+00 2.424433e+00 2.446229e-03 -2.086470e-03 2.794531e-03
Ga -3.215287e+00 3.625486e+00 7.555948e+00 7.124218e-04 -1.693622e-03 1.066834e-03
Al -3.202623e+00 3.638439e+00 -2.728661e+00 -4.555373e-03 -3.985740e-03 3.862214e-03
Al -3.216048e-02 -1.865139e+00 2.388552e+00 2.947548e-03 2.165827e-03 3.562666e-03
Ga -2.722311e-02 -1.842455e+00 7.553465e+00 5.416734e-03 -7.029697e-03 7.656248e-03
Al -6.678346e-03 -1.858950e+00 -2.734299e+00 -7.297421e-03 -3.415413e-03 5.044851e-03
Al -2.910833e-02 1.776368e+00 5.004825e+00 1.132539e-03 6.379196e-03 -4.716245e-04
Ga -3.446513e-02 1.771438e+00 -5.319185e+00 -8.282154e-05 3.287704e-03 6.290241e-03
Ga -3.636252e-02 1.761760e+00 -1.399334e-01 2.074509e-03 5.393314e-03 5.990526e-05
Ga 3.173667e+00 -3.715534e+00 4.987709e+00 8.158270e-04 5.592862e-04 2.153643e-03
Ga 3.166855e+00 -3.711818e+00 -5.297740e+00 6.223121e-04 1.064127e-03 2.786907e-03
Al 3.154530e+00 -3.705490e+00 -1.507567e-01 1.884941e-03 7.102632e-04 6.532832e-04
Ga 1.574623e+00 -9.535094e-01 4.977047e+00 -1.615696e-03 -6.218234e-04 3.982400e-03
Ga 1.567859e+00 -9.552600e-01 -5.301595e+00 -1.351676e-03 -1.253259e-04 2.742009e-03
Al 1.561057e+00 -9.727519e-01 -1.818437e-01 -3.442121e-04 9.491546e-04 -5.267967e-03
Al 3.165039e+00 1.763822e+00 4.997680e+00 -1.093439e-02 1.520769e-02 6.011160e-03
Ga 3.146808e+00 1.783904e+00 -5.334442e+00 -2.898189e-04 2.564238e-03 4.229999e-03
Ga 3.136931e+00 1.772019e+00 -1.166715e-01 -2.348630e-03 6.912182e-04 4.697938e-03
Ga 6.363156e+00 -3.713730e+00 5.010971e+00 -3.303795e-03 6.193979e-04 -3.132324e-03
Ga 6.346663e+00 -3.694051e+00 -5.314402e+00 2.292594e-04 -1.566630e-03 2.169022e-03
Ga 6.336572e+00 -3.697658e+00 -1.147820e-01 -1.969796e-03 -1.250880e-03 -4.069332e-03
Ga 4.772747e+00 -9.226242e-01 4.992066e+00 2.081519e-03 -4.401333e-03 -2.401894e-03
Al 4.762623e+00 -9.421615e-01 -5.308702e+00 -2.093818e-03 -1.912938e-03 3.538719e-03
Ga 4.749972e+00 -9.580766e-01 -8.205278e-02 -3.183011e-03 -1.745000e-03 3.920094e-03
Al -3.205318e+00 1.812499e+00 5.010334e+00 -1.869224e-04 -3.686269e-03 4.690495e-03
Ga -3.209149e+00 1.784101e+00 -5.315136e+00 -1.279702e-03 1.292280e-03 3.854168e-03
Ga -3.200195e+00 1.798230e+00 -1.478393e-01 -2.108008e-03 9.471614e-04 5.220405e-04
Al -1.193205e-02 -3.698359e+00 5.000013e+00 -3.250832e-04 -1.884448e-03 1.672179e-03
Al -1.616013e-02 -3.685317e+00 -5.308596e+00 -2.340964e-03 -1.094680e-03 4.686019e-03
Al -3.476327e-03 -3.676795e+00 -1.556275e-01 -2.115018e-04 -8.769196e-04 -3.152449e-03
Al -1.560671e+00 -9.847973e-01 5.088676e+00 -1.350369e-02 1.399080e-02 -3.960099e-02
Al -1.597045e+00 -9.406278e-01 -5.304523e+00 -1.860306e-03 -1.592488e-03 6.083768e-03
Al -1.592521e+00 -9.549060e-01 -1.566169e-01 -2.303786e-04 -1.606594e-03 2.228240e-03
N 1.556516e+00 9.146878e-01 4.369806e+00 9.194273e-04 -3.165289e-03 -2.241849e-03
N 1.550056e+00 8.713938e-01 -5.986645e+00 1.772446e-03 -3.442764e-05 -4.993222e-03
N 1.551548e+00 8.245668e-01 -8.083753e-01 2.416818e-03 1.632276e-04 -1.516340e-03
N -3.145790e-02 3.579443e+00 4.345745e+00 2.430757e-03 -2.232144e-03 9.103457e-04
N -3.545583e-02 3.613502e+00 -5.972402e+00 7.281599e-04 3.180568e-04 -3.018708e-03
N -7.199179e-02 3.633609e+00 -7.914057e-01 -1.454798e-03 9.090833e-04 -1.074956e-03
N 3.177235e+00 -1.864521e+00 4.317399e+00 -5.305885e-03 -1.543744e-03 4.800930e-03
N 3.199123e+00 -1.849024e+00 -5.891681e+00 2.299197e-03 1.943599e-04 -1.678963e-04
N 3.130175e+00 -1.890810e+00 -7.325899e-01 1.076428e-03 -1.512533e-03 8.843811e-05
N -4.807357e+00 9.507554e-01 4.414052e+00 1.244775e-02 -5.581033e-03 -6.431357e-03
N -4.797715e+00 8.320087e-01 -5.957848e+00 1.969765e-03 3.279050e-04 -5.323407e-03
N -4.801976e+00 8.669933e-01 -7.617381e-01 1.958113e-03 3.689802e-04 2.095577e-04
N -6.331407e+00 3.606365e+00 4.429693e+00 -1.425710e-03 -5.845102e-03 -1.675143e-03
N -6.346118e+00 3.646866e+00 -5.956710e+00 2.309881e-03 1.349433e-03 -3.970033e-03
N -6.353985e+00 3.640988e+00 -7.384492e-01 2.671403e-03 5.596755e-05 1.291589e-03
N -3.135175e+00 -1.844939e+00 4.364370e+00 5.013156e-03 1.504773e-03 4.882103e-03
N -3.184531e+00 -1.815987e+00 -5.883558e+00 1.588993e-03 1.362626e-03 -1.424056e-03
N -3.160853e+00 -1.843252e+00 -7.463566e-01 1.114006e-03 8.774264e-04 -1.106548e-04
N -1.618827e+00 9.022576e-01 4.470846e+00 -2.304290e-04 -1.328444e-02 -3.952991e-03
N -1.622831e+00 8.381619e-01 -5.965056e+00 3.100523e-04 -2.866207e-03 -6.856212e-03
N -1.624361e+00 8.315693e-01 -8.038302e-01 -1.407779e-04 -1.979913e-03 -1.947987e-03
N -3.251556e+00 3.616474e+00 4.420395e+00 -2.234039e-04 4.207169e-04 -3.120143e-03
N -3.253130e+00 3.655341e+00 -5.910911e+00 -1.901833e-03 -9.932268e-04 -9.017688e-04
N -3.211779e+00 3.676706e+00 -7.792492e-01 -1.866011e-03 -5.162803e-04 -3.381994e-03
N -5.630662e-02 -1.893490e+00 4.381294e+00 4.680692e-03 2.213516e-04 -1.313872e-02
N -5.789364e-02 -1.876342e+00 -5.899360e+00 -1.763992e-03 -3.175102e-03 -2.119983e-03
N -2.208866e-02 -1.863083e+00 -7.758234e-01 -1.114584e-03 -2.094449e-03 -5.883462e-03
N 1.480484e-02 1.817494e+00 1.851992e+00 -1.436359e-03 -7.227430e-03 -2.084146e-03
N -2.001974e-02 1.784121e+00 6.940081e+00 6.641326e-05 1.915502e-03 -1.347208e-03
N -3.267019e-02 1.779419e+00 -3.313147e+00 4.370635e-04 4.236988e-03 -1.061480e-03
N 3.193335e+00 -3.696712e+00 1.788895e+00 3.500647e-04 1.925385e-03 -9.835081e-04
N 3.216280e+00 -3.721514e+00 6.965659e+00 1.037887e-03 1.544047e-03 -1.677356e-03
N 3.163047e+00 -3.755011e+00 -3.314889e+00 2.168164e-03 9.547062e-04 -1.508637e-03
N 1.589203e+00 -9.558814e-01 1.699053e+00 -1.078850e-02 -8.346124e-03 3.289437e-02
N 1.588464e+00 -9.123754e-01 6.959834e+00 -2.082063e-03 -7.041834e-04 -3.636321e-03
N 1.519993e+00 -9.297784e-01 -3.318798e+00 4.907259e-03 -9.485166e-04 -1.108179e-03
N 3.133175e+00 1.721902e+00 1.902853e+00 -6.357209e-04 1.366355e-03 -9.958617e-03
N 3.158865e+00 1.785657e+00 6.942907e+00 -1.842097e-03 5.624616e-04 -3.684289e-04
N 3.105073e+00 1.765303e+00 -3.347468e+00 -3.758415e-03 -2.543974e-04 -1.650888e-03
N 6.294928e+00 -3.684747e+00 1.860048e+00 1.428309e-03 3.078435e-03 1.128073e-03
N 6.351559e+00 -3.733325e+00 6.990593e+00 2.913167e-05 2.135733e-04 1.252587e-03
N 6.303494e+00 -3.725375e+00 -3.332924e+00 -3.740957e-03 -1.414169e-03 -5.241269e-04
N 4.723371e+00 -9.615372e-01 1.961819e+00 7.858184e-03 2.236414e-03 -1.641719e-02
N 4.764949e+00 -9.010341e-01 6.963629e+00 -3.539520e-04 -2.946914e-03 -4.448358e-03
N 4.749060e+00 -9.510097e-01 -3.392764e+00 -2.529343e-03 -2.919751e-03 -4.723685e-03
N -3.258738e+00 1.760955e+00 1.840252e+00 -1.367093e-03 3.792756e-04 8.634742e-04
N -3.201506e+00 1.753997e+00 6.938410e+00 -1.204126e-03 -1.063144e-03 3.644837e-05
N -3.170346e+00 1.810845e+00 -3.322883e+00 2.304413e-03 3.070634e-03 1.392196e-03
N -2.136854e-02 -3.660769e+00 1.760539e+00 -3.618499e-04 2.758935e-03 1.145721e-03
N -4.188696e-02 -3.706312e+00 6.913794e+00 -2.877151e-03 1.837025e-03 -1.885810e-03
N 2.306998e-02 -3.678960e+00 -3.366114e+00 2.639495e-03 2.299887e-03 -1.483911e-03
N -1.616733e+00 -9.875081e-01 1.782224e+00 1.917604e-03 -1.358583e-03 -9.317026e-04
N -1.596913e+00 -8.875970e-01 6.903949e+00 -1.993381e-04 -5.807724e-03 1.801709e-02
N -1.555432e+00 -9.214500e-01 -3.369905e+00 1.304408e-05 -1.284465e-03 -2.498146e-03
