108
Energy=-1.993028e+06 Lattice="9.521457e+00 0.000000e+00 0.000000e+00 -4.768362e+00 8.244946e+00 0.000000e+00 9.566662e-03 2.725619e-02 1.531898e+01" Stress="-3.820983e-02 4.910055e-03 2.443220e-04 4.899885e-03 -3.246164e-02 6.432988e-04 2.502399e-04 6.548699e-04 -3.838430e-02" Properties=species:S:1:pos:R:3:forces:R:3 Config_type=AlGaN_super3_34_2_3.xyz
Al 1.570670e+00 9.115942e-01 2.464987e+00 -7.500030e-04 -1.127359e-02 -7.322991e-03
Al 1.571439e+00 9.158675e-01 7.513284e+00 -1.682883e-03 -1.109215e-02 -3.121216e-03
Al 1.565397e+00 8.906105e-01 -2.750493e+00 1.888887e-04 -1.148182e-02 -2.700622e-03
Al -4.407656e-03 3.638488e+00 2.464582e+00 -1.715812e-03 -2.695155e-03 -5.532593e-03
Al -3.700232e-03 3.640768e+00 7.510946e+00 -1.943260e-03 -2.031302e-03 -2.145677e-03
Ga -8.749426e-03 3.615870e+00 -2.745229e+00 -1.825042e-03 -5.755009e-04 -1.600168e-03
Al 3.193465e+00 -1.877977e+00 2.466241e+00 -3.348134e-03 1.244319e-03 -6.530784e-03
Ga 3.193115e+00 -1.875077e+00 7.512723e+00 -2.357628e-03 5.589466e-04 -2.149936e-03
Ga 3.181856e+00 -1.896473e+00 -2.739507e+00 -2.030281e-03 9.883154e-04 -2.179634e-03
Ga -4.801970e+00 9.079132e-01 2.463283e+00 -9.552619e-05 -1.252142e-02 -7.637622e-03
Ga -4.799598e+00 9.132377e-01 7.517636e+00 9.129344e-04 -1.304819e-02 -3.184416e-03
Al -4.809119e+00 8.908726e-01 -2.746891e+00 7.792852e-04 -1.061453e-02 -2.837493e-03
Ga -6.378820e+00 3.640729e+00 2.460699e+00 -1.239720e-03 -1.335506e-03 -4.713212e-03
Ga -6.376715e+00 3.642761e+00 7.516911e+00 -6.676927e-04 1.537755e-04 -5.077737e-04
Al -6.383672e+00 3.617350e+00 -2.751977e+00 -4.170358e-04 -3.738695e-04 -1.993455e-03
Al -3.188952e+00 -1.876911e+00 2.465506e+00 5.617240e-04 1.683195e-03 -6.133915e-03
Al -3.184560e+00 -1.871735e+00 7.514449e+00 1.080869e-04 1.573578e-03 -1.800187e-03
Al -3.189906e+00 -1.896657e+00 -2.742423e+00 -1.158009e-03 1.457048e-03 -1.791339e-03
Ga -1.649352e+00 9.148382e-01 2.465451e+00 1.372649e-02 -7.543926e-03 -1.048201e-02
Al -1.649021e+00 9.171188e-01 7.515866e+00 1.226681e-02 -6.355819e-03 -4.156497e-03
Ga -1.659986e+00 8.905447e-01 -2.741516e+00 1.262293e-02 -7.188412e-03 -5.361471e-03
Ga -3.224914e+00 3.645015e+00 2.463800e+00 1.216695e-02 5.433031e-03 -6.836976e-03
Ga -3.224494e+00 3.644802e+00 7.515664e+00 1.200596e-02 5.837552e-03 -2.814131e-03
Ga -3.238087e+00 3.618260e+00 -2.742347e+00 1.198586e-02 6.048475e-03 -3.151527e-03
Ga -3.475865e-02 -1.875158e+00 2.462256e+00 1.184832e-02 9.171241e-03 -8.215205e-03
Ga -3.560705e-02 -1.870612e+00 7.517291e+00 1.165012e-02 8.066757e-03 -3.739425e-03
Ga -4.536575e-02 -1.896408e+00 -2.742260e+00 1.225604e-02 7.451833e-03 -3.887596e-03
Al -3.230988e-03 1.821785e+00 4.987124e+00 -8.757258e-03 -5.640239e-03 -2.598982e-03
Ga -7.646959e-03 1.795928e+00 -5.280793e+00 -1.212353e-02 -7.940784e-03 -3.647041e-03
Al -4.996205e-03 1.802793e+00 -2.320788e-01 -9.646752e-03 -7.266118e-03 2.789066e-02
Al 3.191843e+00 -3.695975e+00 4.986911e+00 -9.628044e-03 -3.770797e-03 -2.525117e-03
Ga 3.180725e+00 -3.719767e+00 -5.274159e+00 -1.150696e-02 -6.385850e-03 -2.821268e-03
Ga 3.183397e+00 -3.720604e+00 -2.046109e-01 -1.108039e-02 -4.597012e-03 2.967478e-02
Ga 1.616340e+00 -9.687090e-01 4.988513e+00 -1.228923e-02 7.302277e-03 -6.121908e-03
Ga 1.607503e+00 -9.915559e-01 -5.272958e+00 -1.332917e-02 7.533745e-03 -5.253052e-03
Ga 1.606861e+00 -9.848585e-01 -2.063696e-01 -1.228445e-02 8.356902e-03 2.693132e-02
Ga 3.145186e+00 1.821160e+00 4.987868e+00 2.437670e-04 -1.842107e-03 -2.109539e-03
Al 3.138934e+00 1.798098e+00 -5.275318e+00 -5.529025e-04 -2.089007e-03 -7.139895e-04
Al 3.136438e+00 1.802743e+00 -2.416967e-01 2.403063e-04 -3.106841e-03 2.892141e-02
Ga 6.335532e+00 -3.692261e+00 4.989058e+00 2.518094e-04 -1.033991e-03 -7.593300e-04
Ga 6.333108e+00 -3.718539e+00 -5.275994e+00 -2.526122e-04 -4.262716e-04 1.630879e-04
Ga 6.333549e+00 -3.720619e+00 -2.173229e-01 -2.117200e-04 1.603328e-03 3.322182e-02
Al 4.764998e+00 -9.691763e-01 4.987405e+00 -2.111103e-03 1.082192e-02 -2.095176e-03
Ga 4.755532e+00 -9.902119e-01 -5.270551e+00 -6.874934e-04 1.285760e-02 -1.907620e-03
Ga 4.755647e+00 -9.867635e-01 -2.130448e-01 -1.021265e-04 1.319512e-02 2.975101e-02
Ga -3.221953e+00 1.825310e+00 4.992255e+00 7.247953e-04 -7.420731e-04 -2.146225e-03
Ga -3.236785e+00 1.800584e+00 -5.274199e+00 3.197599e-03 -1.336743e-03 -1.552748e-03
Ga -3.234703e+00 1.802047e+00 -2.128960e-01 2.434909e-03 -1.954245e-03 3.046340e-02
Al -3.010885e-02 -3.691444e+00 4.988991e+00 1.588848e-03 8.978408e-05 -1.309911e-03
Al -4.177456e-02 -3.719114e+00 -5.272525e+00 1.877784e-03 1.198961e-03 -7.601201e-04
Ga -4.281625e-02 -3.718280e+00 -2.141484e-01 2.271749e-03 2.054183e-03 3.126963e-02
Ga -1.609498e+00 -9.648798e-01 4.991440e+00 1.051923e-03 1.347874e-02 -3.461484e-03
Ga -1.617934e+00 -9.917890e-01 -5.275176e+00 1.370548e-03 1.481644e-02 -3.082970e-03
Ga -1.614879e+00 -9.865960e-01 -2.092168e-01 2.114649e-04 1.487210e-02 2.905819e-02
N 1.564595e+00 9.161128e-01 4.384591e+00 -1.621936e-02 -5.211613e-03 -7.919810e-03
N 1.569984e+00 8.920340e-01 -5.883022e+00 1.562238e-02 -4.816418e-03 -8.525327e-03
N 1.564044e+00 8.985641e-01 -8.279488e-01 -8.340172e-04 3.923649e-03 -1.166365e-03
N -1.041712e-02 3.636291e+00 4.386663e+00 -1.668229e-02 -9.088965e-03 -4.755524e-03
N -1.246050e-02 3.615756e+00 -5.884593e+00 -1.528653e-03 7.812324e-04 -1.838736e-02
N -1.126514e-02 3.612302e+00 -8.154912e-01 -2.197800e-03 -1.686852e-02 9.165822e-03
N 3.196397e+00 -1.879980e+00 4.387061e+00 1.299969e-02 -7.771446e-03 -5.662139e-03
N 3.181333e+00 -1.900677e+00 -5.874232e+00 -1.979202e-03 1.383652e-03 -5.959409e-04
N 3.179981e+00 -1.898759e+00 -8.086002e-01 -2.471634e-03 5.482657e-04 1.952467e-03
N -4.798904e+00 9.053745e-01 4.393195e+00 1.889761e-03 -2.821029e-02 9.636501e-03
N -4.815693e+00 8.919981e-01 -5.871077e+00 -1.494854e-02 -4.794234e-03 1.032160e-02
N -4.813989e+00 8.956627e-01 -8.266790e-01 -1.417716e-02 -4.350782e-03 -6.101826e-03
N -6.369588e+00 3.645954e+00 4.392004e+00 1.513742e-02 9.805956e-03 7.912004e-03
N -6.376962e+00 3.613341e+00 -5.869852e+00 1.530508e-02 -8.938628e-03 1.404971e-02
N -6.383055e+00 3.613131e+00 -8.309978e-01 -2.629388e-04 -1.657461e-02 -9.154254e-03
N -3.190400e+00 -1.870763e+00 4.384112e+00 -1.508765e-02 1.038481e-02 -1.172664e-02
N -3.192819e+00 -1.898836e+00 -5.883302e+00 -1.431347e-03 1.255153e-03 -1.848163e-02
N -3.190239e+00 -1.897257e+00 -8.217090e-01 -8.308097e-04 1.186125e-03 -1.609615e-02
N -1.643823e+00 9.197788e-01 4.393903e+00 2.605945e-02 -8.284044e-04 1.272909e-02
N -1.660022e+00 8.909227e-01 -5.883240e+00 1.227156e-02 -7.303831e-03 -1.138906e-02
N -1.652082e+00 8.980002e-01 -8.116090e-01 2.626104e-02 3.490885e-04 1.342069e-02
N -3.225901e+00 3.651045e+00 4.394421e+00 9.645561e-03 2.179973e-02 1.521848e-02
N -3.242214e+00 3.623202e+00 -5.871801e+00 -3.270105e-03 1.509445e-02 9.437391e-03
N -3.235014e+00 3.620953e+00 -8.125240e-01 1.271696e-02 6.776855e-03 5.173985e-03
N -3.482984e-02 -1.880986e+00 4.392025e+00 1.110442e-02 -9.983139e-03 9.883566e-03
N -4.341342e-02 -1.906125e+00 -5.870873e+00 1.197069e-02 -1.073935e-02 9.935013e-03
N -4.206764e-02 -1.895788e+00 -8.117388e-01 1.238140e-02 7.216281e-03 5.281860e-03
N 4.488164e-03 1.819524e+00 1.872019e+00 3.458715e-03 2.548401e-03 -2.961284e-02
N -8.686892e-04 1.822127e+00 6.913208e+00 -9.115547e-03 -5.282437e-03 2.348282e-03
N -3.589688e-03 1.793258e+00 -3.347156e+00 2.916778e-03 -1.630944e-02 9.764317e-03
N 3.198667e+00 -3.692156e+00 1.868500e+00 2.542539e-03 1.748056e-03 -1.300805e-02
N 3.197604e+00 -3.698026e+00 6.908597e+00 3.075764e-03 -1.457424e-02 -8.941073e-03
N 3.182205e+00 -3.719204e+00 -3.343929e+00 -1.206276e-02 -6.038096e-03 3.689164e-03
N 1.623446e+00 -9.650686e-01 1.869195e+00 1.256564e-03 1.246652e-02 -1.135832e-02
N 1.616271e+00 -9.590229e-01 6.917948e+00 -1.319392e-02 2.224437e-02 1.225977e-02
N 1.606729e+00 -9.832736e-01 -3.341924e+00 -1.382325e-02 2.233414e-02 1.163230e-02
N 3.137509e+00 1.813878e+00 1.868210e+00 -1.341949e-02 -9.277285e-03 -3.987176e-02
N 3.140722e+00 1.819670e+00 6.917521e+00 -1.390019e-02 -1.017056e-02 7.723092e-03
N 3.138310e+00 1.798270e+00 -3.349834e+00 8.176498e-04 -1.026690e-03 1.128983e-03
N 6.329146e+00 -3.690450e+00 1.869814e+00 -1.412438e-02 7.711683e-03 -1.792426e-02
N 6.332872e+00 -3.688833e+00 6.920658e+00 -1.459685e-02 9.070458e-03 1.392454e-02
N 6.336998e+00 -3.713221e+00 -3.342399e+00 1.584878e-02 9.371702e-03 1.319611e-02
N 4.763731e+00 -9.784447e-01 1.866852e+00 -7.414254e-04 -3.648679e-03 -1.442722e-02
N 4.771208e+00 -9.694364e-01 6.909636e+00 1.469421e-02 5.076583e-03 -9.506371e-03
N 4.762436e+00 -9.864149e-01 -3.338128e+00 1.478319e-02 1.966941e-02 1.463688e-02
N -3.224558e+00 1.822615e+00 1.860015e+00 8.861216e-04 -1.687080e-03 -2.925239e-02
N -3.218053e+00 1.821715e+00 6.921201e+00 1.675293e-02 -1.008795e-02 6.955393e-03
N -3.238997e+00 1.796710e+00 -3.342012e+00 -1.282323e-02 -1.026634e-02 6.063397e-03
N -3.258482e-02 -3.693808e+00 1.854675e+00 9.763359e-04 -1.256804e-03 -2.884806e-02
N -3.202325e-02 -3.691430e+00 6.907773e+00 1.633733e-03 2.963515e-05 -1.778642e-02
N -4.655396e-02 -3.719604e+00 -3.350102e+00 -1.358453e-02 -8.063059e-03 -1.239549e-02
N -1.617797e+00 -9.715386e-01 1.865153e+00 -1.475918e-02 4.044312e-03 -1.977814e-02
N -1.614694e+00 -9.604161e-01 6.921787e+00 -1.514442e-02 1.962959e-02 1.487345e-02
N -1.623407e+00 -9.922745e-01 -3.342023e+00 -1.454916e-02 5.132868e-03 8.407614e-03
