108
Energy=-1.031745e+06 Lattice="9.466399e+00 0.000000e+00 0.000000e+00 -4.745206e+00 8.195978e+00 0.000000e+00 1.354819e-02 7.473245e-03 1.524218e+01" Stress="-6.652819e-04 -7.349277e-04 6.519365e-04 -7.361531e-04 -9.125301e-04 3.037017e-04 6.604287e-04 3.034362e-04 1.147773e-03" Properties=species:S:1:pos:R:3:forces:R:3 Config_type=AlGaN_super3_13_0_11.xyz
Al 1.552984e+00 8.799112e-01 2.410429e+00 1.145224e-05 -1.114970e-03 -1.430854e-03
Al 1.555739e+00 8.793363e-01 7.445998e+00 4.363978e-04 -5.279746e-04 1.109989e-04
Al 1.542513e+00 8.722818e-01 -2.687459e+00 -1.758946e-03 6.540028e-04 2.203167e-03
Al -2.610798e-02 3.595720e+00 2.366513e+00 -3.432035e-04 -3.559928e-05 2.731633e-04
Al -1.634503e-02 3.587278e+00 7.490158e+00 -1.587424e-03 -1.017920e-04 -7.431824e-04
Al -4.269102e-02 3.591226e+00 -2.686224e+00 -1.523324e-03 -7.734045e-04 1.203260e-03
Al 3.137426e+00 -1.861017e+00 2.404836e+00 -2.627264e-04 -4.480199e-04 -8.865789e-04
Al 3.145299e+00 -1.848807e+00 7.458608e+00 -5.678490e-05 -1.429749e-05 8.413346e-04
Al 3.121659e+00 -1.872980e+00 -2.698991e+00 2.506692e-03 -2.690582e-03 4.960163e-03
Al -4.756159e+00 8.808313e-01 2.407059e+00 -1.750976e-05 1.445663e-03 -8.848402e-04
Al -4.765430e+00 8.714220e-01 7.450462e+00 7.387277e-04 5.494234e-04 1.629278e-04
Ga -4.772557e+00 8.768938e-01 -2.672132e+00 1.506850e-04 -1.673104e-03 4.354069e-04
Al -6.336655e+00 3.600770e+00 2.369753e+00 2.496005e-04 5.431237e-04 9.834161e-05
Al -6.340148e+00 3.590130e+00 7.475927e+00 4.713645e-04 -2.953951e-04 -6.943917e-05
Ga -6.350428e+00 3.595616e+00 -2.663388e+00 -5.531951e-04 -4.006988e-04 4.976643e-04
Al -3.166606e+00 -1.854108e+00 2.400829e+00 -9.263499e-05 -7.712652e-04 -4.062330e-04
Ga -3.162220e+00 -1.850921e+00 7.474231e+00 -3.656564e-04 1.675766e-04 -5.965382e-05
Ga -3.174809e+00 -1.865179e+00 -2.694434e+00 -2.425751e-04 5.998360e-04 1.347230e-03
Al -1.603075e+00 8.791553e-01 2.389903e+00 8.450341e-04 -1.502406e-04 -5.454398e-04
Al -1.587242e+00 8.725893e-01 7.450324e+00 1.046892e-03 6.567346e-04 8.549101e-04
Al -1.584554e+00 8.729374e-01 -2.673252e+00 1.062657e-03 -8.703224e-04 7.547850e-04
Al -3.181357e+00 3.604146e+00 2.374319e+00 -2.373450e-04 -3.243451e-04 -3.781169e-04
Ga -3.174004e+00 3.605469e+00 7.471450e+00 3.848109e-04 -2.332466e-04 -1.033553e-04
Al -3.167260e+00 3.605114e+00 -2.673798e+00 7.952618e-04 3.936245e-03 1.868432e-03
Al -2.111681e-02 -1.852468e+00 2.394186e+00 1.593915e-03 -8.628637e-05 -2.220801e-03
Al -1.279016e-02 -1.835800e+00 7.451936e+00 8.100893e-04 -8.491001e-04 -9.059473e-06
Al -1.673816e-02 -1.857092e+00 -2.679665e+00 -7.345560e-04 3.749684e-03 7.001626e-03
Al -2.367733e-02 1.770936e+00 4.920967e+00 -9.246773e-04 5.428573e-04 6.951031e-04
Al -2.698167e-02 1.779391e+00 -5.234741e+00 -4.056099e-04 3.201135e-05 1.400372e-03
Al -2.651191e-02 1.788132e+00 -1.482124e-01 -1.381802e-03 -6.184753e-05 1.179808e-03
Ga 3.152029e+00 -3.681967e+00 4.917368e+00 -5.924498e-04 -6.012862e-04 4.803158e-04
Al 3.163187e+00 -3.683830e+00 -5.221843e+00 -4.485213e-04 3.967425e-04 9.547823e-04
Al 3.141162e+00 -3.694576e+00 -1.469814e-01 -1.270755e-03 6.941260e-04 7.260388e-04
Al 1.565984e+00 -9.346160e-01 4.923559e+00 -1.092128e-03 -3.574690e-05 8.431490e-04
Ga 1.560741e+00 -9.485551e-01 -5.230949e+00 -8.915023e-04 1.378968e-03 -3.725044e-04
Ga 1.554963e+00 -9.470425e-01 -1.330792e-01 -8.693204e-04 -2.131799e-04 -4.181066e-03
Al 3.134742e+00 1.771777e+00 4.921492e+00 -4.109264e-04 6.854866e-04 2.994793e-04
Al 3.111330e+00 1.774128e+00 -5.255326e+00 -3.587414e-05 -1.759563e-04 7.736081e-04
Al 3.117392e+00 1.789566e+00 -1.133365e-01 7.133554e-05 -5.303527e-04 1.231465e-03
Ga 6.295262e+00 -3.688696e+00 4.921097e+00 -4.852679e-05 -2.933143e-04 3.186901e-04
Al 6.279910e+00 -3.700190e+00 -5.235780e+00 -3.293404e-04 6.795857e-04 -1.594775e-04
Al 6.289976e+00 -3.688037e+00 -1.255982e-01 -8.375172e-04 1.414173e-05 1.088793e-03
Al 4.716572e+00 -9.306859e-01 4.914785e+00 -1.195978e-04 -7.269637e-04 2.608560e-04
Al 4.705696e+00 -9.568431e-01 -5.240607e+00 -5.151148e-04 3.613341e-04 1.073180e-03
Ga 4.719538e+00 -9.530732e-01 -1.109381e-01 -1.622036e-03 9.197625e-06 -1.069764e-03
Al -3.179163e+00 1.765519e+00 4.918994e+00 4.470467e-04 8.321463e-04 -3.977871e-04
Ga -3.177770e+00 1.765002e+00 -5.224437e+00 -1.905245e-04 -2.138663e-04 5.460900e-05
Al -3.173063e+00 1.793567e+00 -1.422088e-01 1.946538e-04 2.206211e-04 1.880457e-03
Ga -2.069534e-02 -3.677054e+00 4.917570e+00 1.115577e-04 -6.219696e-04 -2.495026e-04
Ga -3.351890e-02 -3.674578e+00 -5.221303e+00 -4.558257e-05 -3.515336e-04 -4.767930e-04
Al -2.419346e-02 -3.680988e+00 -1.506699e-01 3.319510e-03 -1.166970e-03 7.086978e-03
Al -1.588505e+00 -9.271150e-01 4.910395e+00 -7.079113e-04 -2.274114e-04 5.313554e-04
Al -1.606861e+00 -9.433362e-01 -5.232238e+00 2.916734e-03 9.833710e-04 8.719041e-04
Al -1.594242e+00 -9.440964e-01 -1.270945e-01 3.137188e-04 2.018463e-04 2.124663e-04
N 1.553175e+00 8.766770e-01 4.331283e+00 7.240565e-04 -4.833868e-04 -1.869974e-04
N 1.540414e+00 9.115415e-01 -5.873882e+00 3.930922e-04 1.556296e-04 -8.071616e-04
N 1.548463e+00 9.238161e-01 -7.607878e-01 2.087464e-03 2.728122e-06 -4.082084e-03
N -2.505200e-02 3.551978e+00 4.270299e+00 4.553418e-04 -6.078551e-04 -4.693634e-04
N -3.467162e-02 3.590095e+00 -5.832776e+00 2.827376e-04 -3.659883e-05 -5.978918e-04
N -2.841569e-02 3.604131e+00 -7.521981e-01 3.007421e-04 -4.643639e-04 -5.880928e-04
N 3.138160e+00 -1.814885e+00 4.312374e+00 1.319371e-04 8.060203e-04 -5.398984e-04
N 3.170434e+00 -1.887781e+00 -5.861410e+00 6.541469e-04 -5.812723e-04 -4.689793e-04
N 3.139710e+00 -1.904812e+00 -7.768912e-01 4.663040e-04 -8.445268e-04 -3.546264e-03
N -4.756911e+00 8.778078e-01 4.323633e+00 2.081666e-04 4.771457e-04 1.130670e-04
N -4.803557e+00 8.464083e-01 -5.865381e+00 2.470819e-04 -4.360025e-04 -6.329720e-04
N -4.767300e+00 9.191987e-01 -6.998236e-01 3.221620e-04 7.388842e-04 -1.013319e-03
N -6.338883e+00 3.555804e+00 4.274858e+00 4.050118e-04 -7.266062e-04 1.798620e-04
N -6.380240e+00 3.574838e+00 -5.851727e+00 -7.725328e-04 1.055696e-04 -1.832072e-04
N -6.344708e+00 3.601148e+00 -6.810724e-01 -1.219320e-03 -7.105439e-04 -1.213495e-03
N -3.167511e+00 -1.815671e+00 4.317404e+00 9.706397e-05 9.007096e-04 -5.153301e-04
N -3.172930e+00 -1.861066e+00 -5.781290e+00 -1.776490e-03 -1.268418e-03 9.712184e-05
N -3.136315e+00 -1.882727e+00 -7.130496e-01 1.471047e-03 -3.421529e-04 -1.072676e-03
N -1.601514e+00 8.795910e-01 4.311004e+00 8.113823e-04 -1.481095e-04 8.584968e-05
N -1.568534e+00 8.481716e-01 -5.867831e+00 9.350663e-04 -6.961657e-04 -1.099546e-03
N -1.600954e+00 8.719385e-01 -7.471414e-01 2.010676e-05 -6.493885e-04 -1.679340e-04
N -3.181852e+00 3.558837e+00 4.285199e+00 2.779235e-04 -8.339220e-04 6.899885e-04
N -3.145013e+00 3.625699e+00 -5.807820e+00 -3.140758e-04 -1.362457e-04 -1.750732e-04
N -3.186533e+00 3.609290e+00 -7.489101e-01 9.046532e-04 -9.385763e-04 1.016773e-03
N -1.450557e-02 -1.808910e+00 4.304965e+00 5.405922e-04 9.225399e-04 -2.986837e-04
N -6.455404e-02 -1.833205e+00 -5.881633e+00 -3.564738e-04 2.534031e-04 4.683112e-04
N -6.360860e-02 -1.885524e+00 -7.410738e-01 -9.304647e-04 3.128842e-03 -7.790304e-03
N -2.149121e-02 1.773575e+00 1.776371e+00 -1.032964e-04 9.462602e-04 -1.247260e-04
N -2.057040e-02 1.785848e+00 6.848158e+00 -3.402559e-04 5.732372e-04 -4.332165e-04
N -2.708228e-02 1.777544e+00 -3.299658e+00 -3.494514e-04 -1.458381e-04 -3.906770e-04
N 3.143044e+00 -3.678940e+00 1.780842e+00 -1.828536e-04 5.041815e-04 -4.848926e-04
N 3.194397e+00 -3.658204e+00 6.886433e+00 6.372244e-04 -2.041054e-04 7.135644e-04
N 3.141071e+00 -3.687028e+00 -3.296180e+00 -3.642285e-04 9.057201e-05 -2.589906e-04
N 1.568743e+00 -9.441376e-01 1.820894e+00 -2.247285e-03 3.486943e-04 9.074916e-03
N 1.570789e+00 -9.472606e-01 6.853376e+00 -6.312478e-04 3.290568e-04 -1.223910e-04
N 1.560529e+00 -9.512835e-01 -3.241212e+00 -3.131302e-03 6.609103e-04 -7.358126e-04
N 3.128091e+00 1.775070e+00 1.801501e+00 -4.555289e-04 2.650488e-04 -2.812362e-04
N 3.135987e+00 1.785327e+00 6.846583e+00 -1.778897e-04 2.884052e-04 1.028882e-04
N 3.082683e+00 1.759028e+00 -3.340691e+00 8.118585e-04 2.472258e-04 -1.223647e-03
N 6.292048e+00 -3.676172e+00 1.794795e+00 3.594283e-05 2.956887e-04 -8.960869e-04
N 6.295863e+00 -3.728226e+00 6.897544e+00 9.014205e-04 1.708035e-04 4.215692e-04
N 6.244960e+00 -3.718459e+00 -3.321842e+00 1.794144e-03 1.161403e-03 -2.190795e-03
N 4.712760e+00 -9.419239e-01 1.857305e+00 9.116528e-04 -2.036140e-03 1.719550e-03
N 4.686886e+00 -9.262184e-01 6.834557e+00 -9.896780e-04 2.295913e-04 -5.608988e-04
N 4.664270e+00 -9.714661e-01 -3.324180e+00 1.178442e-03 9.298588e-04 -2.352750e-03
N -3.179419e+00 1.781457e+00 1.787736e+00 3.678492e-04 5.339303e-04 -1.791758e-03
N -3.175395e+00 1.738027e+00 6.841765e+00 -4.021009e-04 -7.366856e-04 -5.700810e-04
N -3.138570e+00 1.802784e+00 -3.245292e+00 -8.017264e-04 -2.164004e-03 -1.263653e-03
N -1.191460e-02 -3.672388e+00 1.795278e+00 -3.277703e-04 -4.630158e-04 -4.095346e-03
N -5.520335e-02 -3.655334e+00 6.892898e+00 -5.351460e-04 5.182417e-04 2.714394e-04
N 1.696663e-02 -3.655075e+00 -3.242512e+00 4.131125e-04 -3.417715e-03 -1.292316e-03
N -1.594958e+00 -9.418112e-01 1.792717e+00 -4.115941e-04 1.014968e-04 4.482155e-04
N -1.553424e+00 -9.207625e-01 6.825072e+00 -1.868045e-05 3.261198e-05 -3.902976e-04
N -1.555110e+00 -9.256032e-01 -3.312676e+00 8.912817e-05 5.992652e-04 -4.266422e-04
