108
Energy=-2.084582e+06 Lattice="9.600081e+00 0.000000e+00 0.000000e+00 -4.807950e+00 8.308546e+00 0.000000e+00 -5.816655e-03 -4.682079e-03 1.553633e+01" Stress="-4.877309e-04 -2.424819e-04 -2.547968e-04 -2.377469e-04 -5.565628e-04 -2.282822e-04 -2.386857e-04 -2.204178e-04 -5.129592e-04" Properties=species:S:1:pos:R:3:forces:R:3 Config_type=AlGaN_super3_36_0_12.xyz
Al 1.575252e+00 8.913959e-01 2.425367e+00 4.788998e-04 1.666799e-05 9.829176e-04
Al 1.585597e+00 9.027031e-01 7.646075e+00 1.636112e-04 -2.367969e-04 1.776209e-03
Al 1.584871e+00 8.882146e-01 -2.760375e+00 9.574862e-04 2.960218e-04 5.848608e-06
Al -2.342706e-02 3.636996e+00 2.443032e+00 5.066118e-05 5.405691e-06 1.320560e-04
Al -6.243276e-03 3.636331e+00 7.647071e+00 -1.982948e-04 5.293284e-05 7.887352e-04
Ga -5.269788e-03 3.647673e+00 -2.761796e+00 1.673943e-04 -2.783904e-04 8.227692e-04
Ga 3.189784e+00 -1.883805e+00 2.434537e+00 2.365255e-04 3.024044e-05 5.597378e-04
Ga 3.187390e+00 -1.875064e+00 7.619330e+00 -1.207885e-04 -4.794608e-05 8.333541e-04
Ga 3.186809e+00 -1.866561e+00 -2.729571e+00 -1.770678e-05 2.949740e-05 3.844733e-04
Ga -4.852412e+00 8.692062e-01 2.425477e+00 2.797938e-04 -2.879651e-05 8.790223e-04
Al -4.850266e+00 8.850032e-01 7.627610e+00 5.283193e-04 -1.721531e-04 -2.162699e-04
Al -4.842310e+00 8.795105e-01 -2.736379e+00 -4.849571e-04 3.435884e-04 1.217575e-03
Ga -6.440789e+00 3.634066e+00 2.410144e+00 3.271479e-04 1.038624e-04 8.531588e-04
Al -6.446358e+00 3.628566e+00 7.650647e+00 -8.599295e-05 6.487773e-04 -1.145243e-04
Ga -6.429215e+00 3.645794e+00 -2.749720e+00 -1.593583e-04 -8.297441e-04 1.027491e-03
Ga -3.237577e+00 -1.888431e+00 2.453453e+00 -1.126452e-04 -3.360134e-05 4.678990e-04
Ga -3.226979e+00 -1.893458e+00 7.614237e+00 1.966675e-04 2.146109e-04 7.333825e-04
Al -3.217628e+00 -1.883618e+00 -2.747766e+00 4.523999e-06 -1.327530e-04 6.978641e-04
Ga -1.617177e+00 8.838692e-01 2.449556e+00 7.044557e-04 -9.486889e-05 -1.295392e-04
Ga -1.619225e+00 8.868702e-01 7.634417e+00 7.238486e-04 -4.121021e-04 9.926409e-05
Ga -1.615181e+00 8.798594e-01 -2.750306e+00 1.183507e-03 1.459088e-04 -1.775274e-04
Ga -3.233372e+00 3.654692e+00 2.437953e+00 2.988939e-04 -6.405381e-05 -3.729023e-05
Ga -3.236927e+00 3.643475e+00 7.630005e+00 6.602100e-04 8.707949e-05 2.693464e-05
Ga -3.239195e+00 3.660414e+00 -2.726754e+00 5.375855e-04 -2.837163e-04 2.646967e-04
Ga -2.631663e-02 -1.884686e+00 2.441507e+00 6.445320e-04 -2.636546e-04 -5.427656e-06
Ga -2.917158e-02 -1.879322e+00 7.617493e+00 7.212452e-04 5.848656e-05 7.942563e-04
Al -2.274227e-02 -1.880251e+00 -2.726075e+00 5.870604e-04 5.640413e-05 3.835646e-04
Ga -1.541485e-02 1.798590e+00 5.039736e+00 -6.198585e-04 3.032392e-04 1.131923e-03
Al 6.635433e-03 1.815862e+00 -5.338395e+00 8.938752e-04 -2.651966e-04 3.802089e-04
Ga 2.788627e-03 1.810076e+00 -1.426570e-01 -9.068655e-04 -3.322024e-04 -1.771374e-04
Ga 3.197453e+00 -3.736398e+00 5.039456e+00 -2.550188e-04 1.395390e-04 2.436214e-04
Ga 3.204104e+00 -3.742660e+00 -5.330062e+00 -8.401673e-05 4.062008e-04 3.079099e-04
Ga 3.189024e+00 -3.726285e+00 -1.371339e-01 -9.711506e-04 -2.008961e-04 -1.034480e-03
Ga 1.581417e+00 -9.527576e-01 5.031601e+00 -6.053243e-04 3.163382e-04 3.434529e-04
Ga 1.580132e+00 -9.382219e-01 -5.308417e+00 -5.238213e-04 1.839794e-03 3.232404e-04
Ga 1.587602e+00 -9.484939e-01 -1.618308e-01 -1.369116e-03 -4.234675e-04 -9.644070e-04
Ga 3.169784e+00 1.792604e+00 5.051885e+00 -2.393843e-04 -4.130152e-05 1.450596e-03
Al 3.176391e+00 1.808244e+00 -5.349460e+00 -3.981052e-03 1.677218e-03 4.903285e-03
Al 3.177238e+00 1.797956e+00 -1.774105e-01 4.817101e-05 1.024558e-04 7.644253e-04
Ga 6.374399e+00 -3.732398e+00 5.042247e+00 -2.957495e-04 -2.180550e-04 7.521617e-04
Al 6.385401e+00 -3.744880e+00 -5.338028e+00 -5.455251e-04 -1.179900e-04 9.337008e-04
Ga 6.389134e+00 -3.721176e+00 -1.536060e-01 -2.102525e-04 -1.941720e-04 -1.313538e-04
Al 4.785760e+00 -9.584994e-01 5.049066e+00 -3.876235e-04 -1.767515e-04 6.491379e-04
Ga 4.790282e+00 -9.478862e-01 -5.316405e+00 -7.217143e-04 -5.771908e-05 1.190294e-03
Al 4.785903e+00 -9.496558e-01 -1.813823e-01 -1.083748e-04 8.228975e-05 1.495191e-04
Ga -3.237425e+00 1.782909e+00 5.044929e+00 1.005934e-07 -3.774643e-05 4.222418e-04
Ga -3.241439e+00 1.801045e+00 -5.319999e+00 1.001066e-03 -1.787701e-04 7.639034e-04
Ga -3.248643e+00 1.807898e+00 -1.599009e-01 -6.482163e-04 -4.974733e-04 -6.820104e-04
Ga -3.756096e-02 -3.731420e+00 5.049551e+00 -1.301296e-05 -2.852169e-05 7.369058e-04
Ga -4.122147e-02 -3.735870e+00 -5.322852e+00 1.383490e-04 1.207653e-03 7.842520e-04
Al -2.504232e-02 -3.729299e+00 -1.636392e-01 -1.734272e-04 3.833828e-04 -4.203316e-05
Al -1.634617e+00 -9.646066e-01 5.037730e+00 -3.662562e-04 1.884726e-04 3.239999e-04
Ga -1.618304e+00 -9.658871e-01 -5.298452e+00 -4.158474e-04 4.624758e-04 7.596161e-04
Ga -1.624460e+00 -9.724807e-01 -1.727585e-01 -7.740644e-04 -3.807034e-04 -9.936947e-04
N 1.577610e+00 8.861374e-01 4.344087e+00 6.817881e-04 -2.126662e-04 -9.105948e-04
N 1.593607e+00 9.375797e-01 -5.962734e+00 -3.265045e-03 -1.776790e-03 -2.070250e-03
N 1.615675e+00 9.152845e-01 -8.367819e-01 6.903279e-04 -1.749055e-04 -3.161511e-04
N -2.510198e-02 3.643646e+00 4.356001e+00 3.148625e-04 7.565749e-05 -7.054030e-04
N 2.167746e-02 3.628971e+00 -5.962137e+00 4.052463e-04 1.485552e-04 -8.524991e-04
N -1.951038e-02 3.653548e+00 -7.906976e-01 1.529557e-04 2.287224e-05 -4.259462e-04
N 3.224140e+00 -1.863295e+00 4.428143e+00 4.520158e-04 6.610284e-05 -4.848156e-04
N 3.182896e+00 -1.877072e+00 -5.939685e+00 5.803396e-04 -4.559693e-04 -7.816514e-04
N 3.221553e+00 -1.861043e+00 -7.545673e-01 3.966906e-04 -4.319761e-05 -9.202701e-05
N -4.838828e+00 8.308707e-01 4.413191e+00 2.821758e-04 9.611796e-06 -1.105753e-03
N -4.875409e+00 9.100216e-01 -5.988819e+00 3.643697e-03 -1.463443e-03 -1.808574e-03
N -4.872548e+00 8.647677e-01 -8.059391e-01 2.133129e-04 -1.275449e-04 -9.195112e-04
N -6.432042e+00 3.641445e+00 4.394228e+00 4.262709e-05 8.456132e-05 -1.085013e-03
N -6.471201e+00 3.628371e+00 -5.956470e+00 1.205282e-03 -2.512581e-04 -9.211108e-04
N -6.388002e+00 3.628111e+00 -7.509311e-01 1.137043e-04 -1.515280e-04 -4.924546e-04
N -3.229553e+00 -1.842085e+00 4.450313e+00 1.833338e-04 2.084633e-04 -6.247516e-04
N -3.217200e+00 -1.925759e+00 -5.938391e+00 6.799061e-05 -7.198677e-04 -7.195187e-04
N -3.261232e+00 -1.864551e+00 -8.273663e-01 -1.279620e-04 -2.313241e-05 -4.887955e-04
N -1.626357e+00 8.373651e-01 4.433630e+00 6.676067e-04 -2.071763e-04 -4.679517e-04
N -1.580454e+00 9.093647e-01 -5.915554e+00 2.188415e-04 -1.031961e-04 -3.866391e-04
N -1.617168e+00 8.970836e-01 -7.768576e-01 3.772843e-04 -2.752199e-04 1.279367e-05
N -3.234343e+00 3.651621e+00 4.419798e+00 1.558739e-04 -5.314726e-05 -3.267337e-04
N -3.229309e+00 3.656569e+00 -5.938693e+00 7.703672e-05 -2.414069e-04 -7.203953e-04
N -3.263996e+00 3.684969e+00 -7.508428e-01 8.665570e-05 -1.882078e-04 -2.499406e-04
N -6.581096e-02 -1.864591e+00 4.428023e+00 2.475368e-04 -2.156924e-04 -5.216410e-04
N -1.899312e-02 -1.874704e+00 -5.949883e+00 3.599789e-04 -9.552700e-04 -6.645179e-04
N -1.649326e-02 -1.927521e+00 -8.080064e-01 6.594865e-04 -5.281498e-04 -3.718661e-04
N 1.558663e-02 1.822280e+00 1.843879e+00 1.289994e-04 5.472692e-04 2.039398e-04
N 2.336319e-02 1.826125e+00 7.035403e+00 -4.015652e-04 2.989123e-04 -8.936896e-04
N 2.710957e-02 1.782764e+00 -3.417524e+00 -7.956774e-04 -1.212257e-04 -3.924135e-04
N 3.221566e+00 -3.763811e+00 1.838137e+00 3.545127e-04 5.570957e-04 1.020474e-03
N 3.230920e+00 -3.765249e+00 7.027089e+00 -8.350769e-05 -2.839469e-05 -3.897868e-04
N 3.185442e+00 -3.731124e+00 -3.360571e+00 -3.004023e-04 2.715029e-04 -4.676206e-04
N 1.576235e+00 -9.201314e-01 1.823530e+00 -2.357767e-04 1.037310e-03 8.526354e-04
N 1.580256e+00 -9.050555e-01 7.017667e+00 -5.971424e-04 1.171892e-04 -1.036734e-03
N 1.539785e+00 -9.371400e-01 -3.319865e+00 -9.015418e-04 -1.034118e-04 -3.342141e-04
N 3.128928e+00 1.773312e+00 1.750481e+00 -4.947237e-04 -1.328278e-04 -8.063453e-04
N 3.168489e+00 1.805087e+00 7.051304e+00 1.821716e-04 3.271606e-06 -5.553349e-04
N 3.177748e+00 1.757418e+00 -3.403615e+00 1.054269e-03 3.380801e-04 -1.167952e-03
N 6.331789e+00 -3.753071e+00 1.827389e+00 3.654158e-04 3.097434e-04 1.561556e-04
N 6.378242e+00 -3.788174e+00 7.034603e+00 5.137700e-04 -2.136047e-04 -4.753363e-04
N 6.388012e+00 -3.684459e+00 -3.411013e+00 3.233297e-04 6.074564e-04 -1.029623e-03
N 4.783554e+00 -9.672310e-01 1.736669e+00 -2.519752e-04 -3.268322e-05 -2.248674e-04
N 4.780050e+00 -9.127041e-01 6.968657e+00 -2.007945e-04 3.594923e-04 -6.220113e-04
N 4.826308e+00 -9.316219e-01 -3.332074e+00 2.505280e-04 -1.049435e-04 -9.320593e-04
N -3.235631e+00 1.797227e+00 1.814000e+00 2.417483e-04 4.045908e-04 8.271364e-04
N -3.271209e+00 1.774361e+00 7.026232e+00 -7.636011e-04 -2.246940e-04 -2.837784e-04
N -3.272879e+00 1.783602e+00 -3.336804e+00 -3.631390e-04 -1.900473e-04 -5.238584e-04
N -2.509278e-02 -3.729729e+00 1.755103e+00 -3.703594e-04 -1.223497e-04 -8.033518e-05
N -7.331374e-02 -3.761603e+00 7.030494e+00 -8.590767e-04 -2.835496e-04 -2.645300e-04
N -2.328340e-02 -3.682072e+00 -3.347691e+00 -3.705982e-04 4.215579e-04 -6.870616e-04
N -1.630589e+00 -9.708996e-01 1.799371e+00 -1.059571e-04 6.839275e-04 1.352095e-03
N -1.625565e+00 -9.602598e-01 6.948587e+00 -7.507174e-04 9.014276e-05 -6.641800e-04
N -1.616105e+00 -1.011246e+00 -3.316633e+00 -5.903490e-04 -1.068630e-04 -4.189032e-04
