108
Energy=-9.859676e+05 Lattice="9.469891e+00 0.000000e+00 0.000000e+00 -4.742442e+00 8.191905e+00 0.000000e+00 9.095223e-03 7.888124e-03 1.525520e+01" Stress="-4.391547e-03 3.302037e-03 3.808643e-04 3.298100e-03 7.107160e-04 6.176485e-04 3.849160e-04 6.201164e-04 8.754331e-04" Properties=species:S:1:pos:R:3:forces:R:3 Config_type=AlGaN_super3_12_0_2.xyz
Al 1.551860e+00 8.906961e-01 2.419254e+00 2.893693e-03 -1.385792e-02 -3.229077e-03
Al 1.564211e+00 8.873498e-01 7.484080e+00 -2.534723e-04 -1.053274e-02 -3.304930e-03
Al 1.556162e+00 8.899917e-01 -2.723031e+00 -8.987719e-04 -7.887107e-03 4.240642e-04
Al -1.210485e-02 3.603167e+00 2.429507e+00 -1.544463e-02 -1.124907e-03 1.208359e-03
Al -8.853110e-03 3.601778e+00 7.475971e+00 -1.970261e-03 -1.039565e-03 -1.430648e-04
Al -9.764001e-03 3.594464e+00 -2.718698e+00 -5.029623e-03 -3.365713e-03 3.671414e-03
Al 3.161372e+00 -1.868746e+00 2.445559e+00 -8.874933e-04 -2.172584e-03 -4.532006e-03
Al 3.159016e+00 -1.868119e+00 7.477520e+00 7.545122e-03 -4.484610e-03 -6.676263e-04
Al 3.165232e+00 -1.871900e+00 -2.736398e+00 -3.571895e-03 7.034824e-04 5.894428e-04
Al -4.774536e+00 8.942750e-01 2.422769e+00 -1.843791e-05 -1.273999e-02 -2.899536e-03
Al -4.775809e+00 9.038710e-01 7.477977e+00 3.260960e-03 -9.782333e-03 -2.138337e-04
Al -4.772725e+00 8.789470e-01 -2.718094e+00 9.359294e-04 4.582334e-03 3.737121e-03
Al -6.341792e+00 3.577366e+00 2.545680e+00 1.096519e-04 1.147560e-02 -6.394362e-02
Al -6.338240e+00 3.609361e+00 7.482375e+00 -9.218774e-03 -4.079063e-03 7.416291e-03
Ga -6.350930e+00 3.601489e+00 -2.710313e+00 1.316004e-03 -6.799777e-04 4.668787e-03
Al -3.182523e+00 -1.879607e+00 2.433596e+00 -1.168647e-02 -5.775259e-03 -1.222233e-03
Ga -3.164134e+00 -1.853796e+00 7.477014e+00 -1.145611e-03 4.749357e-04 5.469618e-04
Ga -3.180299e+00 -1.858481e+00 -2.714592e+00 2.379467e-03 6.100033e-04 1.594082e-03
Al -1.637545e+00 8.916070e-01 2.410148e+00 7.503104e-03 -1.335789e-02 1.277658e-03
Al -1.635373e+00 8.843957e-01 7.480944e+00 9.244373e-03 4.692843e-03 4.009019e-04
Al -1.637586e+00 8.952921e-01 -2.734073e+00 9.575247e-03 -2.958420e-03 -2.711045e-02
Al -3.205059e+00 3.607146e+00 2.431497e+00 3.998729e-02 -8.758962e-03 6.891331e-03
Al -3.200012e+00 3.606906e+00 7.482877e+00 5.838231e-03 2.991752e-03 -1.735855e-03
Ga -3.209648e+00 3.606853e+00 -2.723428e+00 9.237882e-03 1.667789e-03 1.788289e-03
Al -2.060999e-02 -1.898934e+00 2.439796e+00 1.069968e-02 3.852213e-03 -5.871396e-03
Ga -2.464706e-02 -1.863830e+00 7.478895e+00 9.834842e-03 6.574060e-03 -1.438800e-03
Al -3.262456e-02 -1.858422e+00 -2.728367e+00 7.075712e-03 2.086411e-03 -9.028080e-04
Al -1.120187e-02 1.791276e+00 4.953806e+00 -8.857411e-03 -2.975592e-03 8.864619e-04
Al -1.316136e-02 1.789435e+00 -5.256118e+00 -8.759361e-03 -4.751814e-03 1.218194e-03
Al -1.450869e-02 1.787968e+00 -1.370025e-01 -6.460460e-03 -1.066877e-03 -1.185912e-02
Al 3.168353e+00 -3.684249e+00 4.959522e+00 -9.022528e-03 -1.709155e-03 -3.228086e-03
Al 3.161022e+00 -3.689357e+00 -5.256958e+00 -8.538321e-03 -3.804256e-03 3.123065e-04
Al 3.163575e+00 -3.683928e+00 -2.092520e-01 -8.588109e-03 -3.137468e-03 2.198786e-02
Al 1.593534e+00 -9.646137e-01 4.957866e+00 -6.268771e-03 2.357391e-03 -1.109820e-02
Al 1.592494e+00 -9.721436e-01 -5.249407e+00 -9.840644e-03 6.535099e-03 3.560468e-04
Al 1.599318e+00 -9.702196e-01 -2.158876e-01 -9.174629e-03 5.641565e-03 1.915935e-02
Ga 3.121984e+00 1.798916e+00 4.949461e+00 6.580123e-04 -7.781976e-03 5.357051e-03
Al 3.124686e+00 1.793113e+00 -5.254177e+00 -2.299145e-04 -1.103679e-03 2.904142e-03
Al 3.127906e+00 1.775132e+00 -1.361656e-01 4.352446e-04 5.139445e-03 2.156403e-03
Al 6.299677e+00 -3.680848e+00 4.961010e+00 -4.912227e-03 2.326714e-03 5.263103e-05
Ga 6.295524e+00 -3.685534e+00 -5.248399e+00 2.949834e-04 -1.167332e-03 2.190473e-03
Ga 6.291386e+00 -3.680390e+00 -1.461407e-01 3.338638e-05 -8.421019e-04 1.329445e-02
Al 4.731634e+00 -9.639574e-01 4.956870e+00 -3.118563e-03 7.111424e-03 -2.335428e-03
Ga 4.722896e+00 -9.594588e-01 -5.246484e+00 -8.552916e-04 1.122043e-02 -1.103577e-03
Al 4.727103e+00 -9.644592e-01 -2.058351e-01 -2.647328e-03 8.956128e-03 2.134586e-02
Al -3.200211e+00 1.795846e+00 4.952069e+00 7.325231e-04 5.834087e-04 1.825860e-03
Al -3.209667e+00 1.795573e+00 -5.257894e+00 1.672828e-03 -1.234098e-03 2.360689e-03
Al -3.194893e+00 1.782167e+00 -1.300886e-01 -5.883897e-04 5.060751e-03 -1.241776e-02
Ga -4.023455e-02 -3.681605e+00 4.959305e+00 8.403278e-03 2.557545e-03 1.430881e-03
Al -3.081666e-02 -3.683034e+00 -5.255733e+00 4.546103e-04 3.319520e-04 2.458862e-03
Ga -2.666829e-02 -3.672687e+00 -1.498698e-01 2.419580e-03 -2.880921e-03 1.783149e-02
Al -1.602313e+00 -9.576522e-01 4.945421e+00 -3.590860e-04 9.344592e-03 -6.383227e-05
Al -1.597429e+00 -9.621285e-01 -5.247181e+00 -4.266778e-04 1.031001e-02 8.633619e-04
Ga -1.597009e+00 -9.160522e-01 -1.829839e-01 -1.103011e-03 2.539361e-03 5.791505e-03
N 1.543707e+00 8.875327e-01 4.347979e+00 -1.349706e-02 -1.512596e-02 -6.003053e-03
N 1.554152e+00 8.880830e-01 -5.849759e+00 7.492897e-04 -1.137618e-02 -1.219231e-03
N 1.554545e+00 8.909513e-01 -7.826652e-01 4.771113e-04 -8.806549e-03 4.284764e-03
N -7.691362e-03 3.602250e+00 4.359880e+00 1.661876e-04 -2.718950e-03 2.396282e-04
N -2.384398e-02 3.595162e+00 -5.859237e+00 -1.435807e-02 -7.710619e-03 -7.603623e-03
N -2.263813e-02 3.592814e+00 -7.829328e-01 -1.281780e-02 -8.144315e-03 -6.093227e-03
N 3.161675e+00 -1.869774e+00 4.366599e+00 -7.509357e-04 6.012484e-04 -6.188182e-04
N 3.148459e+00 -1.880036e+00 -5.854635e+00 -1.480871e-02 -6.704524e-03 -6.850987e-03
N 3.164116e+00 -1.872969e+00 -8.127389e-01 -1.285943e-03 3.938631e-04 3.497542e-03
N -4.765406e+00 8.918137e-01 4.349541e+00 1.476737e-02 -1.423334e-02 -5.321305e-03
N -4.781507e+00 9.053014e-01 -5.859057e+00 1.008039e-03 4.606654e-03 -5.120269e-03
N -4.770154e+00 8.940181e-01 -7.795640e-01 5.078695e-04 -8.968569e-03 5.386097e-03
N -6.353575e+00 3.612016e+00 4.319179e+00 -1.656965e-02 8.498573e-03 2.772428e-02
N -6.336958e+00 3.599325e+00 -5.852146e+00 1.294286e-02 -7.553346e-03 -6.585398e-03
N -6.344233e+00 3.595373e+00 -7.613265e-01 3.936512e-04 -1.599472e-02 8.007361e-03
N -3.171415e+00 -1.870807e+00 4.359968e+00 2.106158e-03 6.988175e-04 7.336736e-04
N -3.163743e+00 -1.862003e+00 -5.841788e+00 1.310537e-02 8.878715e-03 4.102241e-03
N -3.176268e+00 -1.855139e+00 -7.748997e-01 -1.301487e-02 7.456622e-03 4.767443e-03
N -1.639748e+00 8.985492e-01 4.346374e+00 1.070060e-02 -6.816546e-03 -2.648700e-03
N -1.643129e+00 8.914942e-01 -5.851493e+00 9.948977e-03 -5.948689e-03 1.916775e-03
N -1.640917e+00 9.329444e-01 -9.273572e-01 8.900086e-03 4.351042e-03 5.919955e-02
N -3.199216e+00 3.601072e+00 4.357894e+00 2.163554e-02 -6.145520e-03 -1.380163e-03
N -3.209139e+00 3.604908e+00 -5.850511e+00 8.202256e-03 4.670639e-03 -8.525114e-04
N -3.198603e+00 3.601528e+00 -7.784518e-01 2.095775e-02 -5.673426e-03 1.490964e-02
N -3.490811e-02 -1.857760e+00 4.359879e+00 5.643006e-03 2.023866e-02 -4.376163e-03
N -3.378573e-02 -1.867905e+00 -5.837481e+00 8.464087e-03 4.351586e-03 1.494627e-02
N -2.880207e-02 -1.854993e+00 -7.975152e-01 2.121111e-02 1.106722e-02 -7.278404e-03
N -8.191593e-03 1.795453e+00 1.794654e+00 -1.351079e-02 -1.092227e-02 -2.556987e-03
N -6.082054e-03 1.787732e+00 6.881233e+00 -6.558319e-03 -5.352437e-03 -5.398954e-05
N -8.521761e-03 1.791579e+00 -3.328877e+00 -5.697103e-03 -4.233692e-03 -2.332521e-03
N 3.164589e+00 -3.679444e+00 1.855045e+00 -7.930010e-03 -6.038573e-03 -1.906685e-02
N 3.167513e+00 -3.682236e+00 6.881611e+00 -8.970104e-03 -4.545794e-03 1.878649e-03
N 3.177629e+00 -3.681556e+00 -3.332814e+00 4.234356e-03 4.836248e-03 -3.367577e-03
N 1.596411e+00 -9.723769e-01 1.851524e+00 -1.247883e-02 7.715918e-03 -1.864109e-02
N 1.642071e+00 -1.000561e+00 6.838599e+00 -1.248647e-02 2.469994e-02 1.064332e-02
N 1.597610e+00 -9.698492e-01 -3.326983e+00 -9.743784e-03 5.595404e-03 4.010321e-03
N 3.126101e+00 1.806192e+00 1.820207e+00 -4.472864e-04 -3.614229e-03 -3.581401e-03
N 3.128487e+00 1.803685e+00 6.891184e+00 -1.250489e-03 -1.726680e-03 1.277766e-02
N 3.127085e+00 1.779354e+00 -3.325793e+00 3.011203e-04 -1.592517e-02 -6.474137e-03
N 6.223668e+00 -3.693730e+00 1.840398e+00 3.337657e-02 7.870873e-04 8.026617e-03
N 6.305017e+00 -3.685323e+00 6.880644e+00 8.925554e-04 -1.597688e-02 -8.357151e-03
N 6.275941e+00 -3.687590e+00 -3.311788e+00 -1.042719e-02 -5.079387e-03 4.288364e-03
N 4.726811e+00 -9.653634e-01 1.854785e+00 -1.094255e-03 1.169185e-02 -1.976054e-02
N 4.721583e+00 -9.530823e-01 6.878175e+00 -1.357717e-02 1.688682e-02 -4.916967e-03
N 4.713452e+00 -9.225128e-01 -3.307613e+00 -1.286889e-02 2.996264e-03 9.497795e-03
N -3.207200e+00 1.797631e+00 1.796923e+00 8.094144e-03 -7.769979e-03 -4.216813e-03
N -3.201343e+00 1.796375e+00 6.880107e+00 1.486530e-03 -2.328903e-04 -1.613301e-03
N -3.208501e+00 1.782687e+00 -3.332834e+00 -6.446441e-04 -1.517556e-02 -9.863129e-03
N 8.095579e-02 -3.733152e+00 1.895054e+00 -5.526302e-02 2.090314e-02 -1.405655e-02
N -7.249798e-02 -3.699383e+00 6.898290e+00 1.662263e-02 -1.063628e-02 5.960792e-03
N -4.059003e-02 -3.668399e+00 -3.332891e+00 1.675533e-03 1.669892e-02 -1.170919e-02
N -1.631199e+00 -1.082856e+00 1.801087e+00 1.611071e-02 3.759177e-02 7.519919e-03
N -1.590258e+00 -9.199049e-01 6.876644e+00 3.251398e-04 1.386388e-02 -1.459428e-02
N -1.593187e+00 -9.568864e-01 -3.328701e+00 1.237930e-02 1.439528e-02 -5.881709e-03
