108
Energy=-1.947255e+06 Lattice="9.580130e+00 0.000000e+00 0.000000e+00 -4.790766e+00 8.295667e+00 0.000000e+00 1.339388e-03 -1.830685e-03 1.550955e+01" Stress="6.298519e-05 -1.949097e-05 4.947757e-06 -3.040348e-05 -1.447380e-05 -5.714757e-06 2.163532e-05 -2.212017e-06 3.473843e-05" Properties=species:S:1:pos:R:3:forces:R:3 Config_type=AlGaN_super3_33_0_16.xyz
Al 1.581933e+00 8.897892e-01 2.448667e+00 1.539714e-05 -1.613489e-05 -3.424852e-05
Al 1.575018e+00 8.913892e-01 7.602074e+00 2.924221e-05 -2.101803e-05 3.396898e-05
Al 1.576671e+00 8.948252e-01 -2.747822e+00 3.510491e-05 -1.120329e-05 -4.182330e-06
Al -3.736045e-03 3.643738e+00 2.435935e+00 -2.898718e-05 -9.788636e-06 1.875545e-05
Al -1.901076e-02 3.639506e+00 7.593424e+00 -1.045556e-05 -4.699169e-06 2.527184e-05
Al -3.859802e-04 3.651480e+00 -2.724897e+00 3.274384e-06 -1.357497e-05 4.717981e-05
Al 3.178720e+00 -1.872897e+00 2.423569e+00 -1.894670e-05 -4.541009e-06 -3.732346e-05
Al 3.157496e+00 -1.891144e+00 7.611536e+00 -6.652569e-06 2.216592e-06 8.985936e-06
Ga 3.170723e+00 -1.881349e+00 -2.722224e+00 -1.414289e-05 1.969560e-05 1.409222e-05
Al -4.834176e+00 8.739260e-01 2.426003e+00 -5.383423e-06 -2.065693e-05 8.598196e-06
Ga -4.838279e+00 8.903950e-01 7.622811e+00 4.441385e-05 -2.656071e-05 2.011388e-05
Ga -4.834684e+00 8.832763e-01 -2.731838e+00 4.710884e-05 4.956480e-06 7.777910e-06
Al -6.426174e+00 3.634930e+00 2.420509e+00 -1.313680e-06 -2.239119e-05 7.701019e-06
Al -6.407006e+00 3.641118e+00 7.633170e+00 1.003829e-05 -9.398711e-06 5.054448e-05
Al -6.424064e+00 3.653178e+00 -2.754206e+00 9.917978e-05 4.605519e-05 -6.588523e-05
Ga -3.234476e+00 -1.902362e+00 2.414260e+00 -1.427879e-05 -2.005796e-05 5.434015e-05
Ga -3.217198e+00 -1.902116e+00 7.608515e+00 1.508059e-05 6.821484e-06 3.366562e-05
Al -3.215454e+00 -1.904757e+00 -2.709688e+00 1.919039e-05 2.563019e-05 3.486111e-05
Ga -1.606747e+00 8.919363e-01 2.450842e+00 6.040997e-05 -1.827661e-05 6.288170e-05
Ga -1.595350e+00 8.924176e-01 7.603366e+00 4.322736e-05 -5.364094e-05 -2.737803e-06
Ga -1.602575e+00 8.794360e-01 -2.733334e+00 4.612463e-05 -4.349069e-05 5.715864e-05
Ga -3.218687e+00 3.651288e+00 2.443179e+00 2.822368e-05 -2.216667e-05 3.078729e-05
Al -3.221685e+00 3.667661e+00 7.617940e+00 -1.449329e-06 -6.347974e-06 -3.883316e-05
Ga -3.225582e+00 3.665032e+00 -2.741549e+00 -5.109578e-06 -1.277654e-05 3.828158e-05
Ga -9.773023e-03 -1.887180e+00 2.444562e+00 7.023585e-05 -4.102055e-05 1.796676e-05
Al -8.726453e-03 -1.897272e+00 7.623069e+00 1.925925e-05 -1.321780e-05 2.574507e-05
Al -2.755719e-02 -1.890809e+00 -2.751579e+00 1.056994e-05 -2.361021e-05 -1.120515e-05
Al -8.714968e-03 1.810895e+00 5.023201e+00 1.178630e-05 2.105303e-05 9.128579e-06
Ga -1.066189e-03 1.814363e+00 -5.313889e+00 -2.882657e-05 2.799761e-05 3.871668e-05
Ga -2.032423e-03 1.818590e+00 -1.470800e-01 -9.155834e-05 9.409544e-06 4.534141e-05
Ga 3.184014e+00 -3.729836e+00 5.030675e+00 7.586079e-07 5.570625e-05 -1.359129e-05
Ga 3.169349e+00 -3.728957e+00 -5.334382e+00 7.132934e-06 6.835804e-05 3.949467e-05
Ga 3.198279e+00 -3.721270e+00 -1.340968e-01 -8.572216e-05 6.525200e-06 5.334480e-05
Ga 1.577817e+00 -9.506861e-01 5.041098e+00 -4.037811e-05 6.422442e-05 -1.015871e-05
Ga 1.570337e+00 -9.541173e-01 -5.332524e+00 -6.108575e-05 2.714904e-05 6.604837e-06
Ga 1.579913e+00 -9.523985e-01 -1.482907e-01 -8.217607e-05 -1.882151e-05 6.135391e-05
Ga 3.157413e+00 1.809642e+00 5.011403e+00 5.698824e-06 1.031121e-05 6.218049e-05
Al 3.160110e+00 1.819647e+00 -5.317428e+00 4.070646e-06 1.293096e-05 1.299402e-05
Ga 3.162630e+00 1.809261e+00 -1.386696e-01 -1.345796e-05 -4.903891e-05 7.348339e-05
Ga 6.364618e+00 -3.749669e+00 5.028921e+00 2.542495e-05 -2.452583e-06 5.836197e-05
Ga 6.373581e+00 -3.740981e+00 -5.305925e+00 3.040882e-05 2.515613e-05 5.263677e-05
Al 6.361407e+00 -3.728990e+00 -1.678060e-01 -3.682313e-05 3.965019e-06 9.539047e-05
Ga 4.756281e+00 -9.609799e-01 5.015176e+00 -1.400427e-05 2.648633e-05 5.188211e-06
Ga 4.760579e+00 -9.597516e-01 -5.307027e+00 -2.351715e-05 7.165983e-06 1.553770e-05
Al 4.772735e+00 -9.693824e-01 -1.394222e-01 -5.376410e-05 -3.436350e-06 7.903922e-05
Ga -3.217894e+00 1.802045e+00 5.032388e+00 -2.623607e-06 8.491230e-06 2.184815e-05
Ga -3.232284e+00 1.820409e+00 -5.325292e+00 1.434939e-05 -3.480311e-05 3.100452e-05
Ga -3.224569e+00 1.795440e+00 -1.342947e-01 -2.895162e-05 -2.482200e-05 1.985500e-05
Ga -3.504541e-02 -3.732773e+00 5.052906e+00 -1.766058e-05 -1.769001e-06 1.731911e-05
Al -3.261759e-02 -3.731634e+00 -5.330290e+00 -1.716459e-04 1.222401e-04 1.190295e-04
Ga -4.314527e-02 -3.725250e+00 -1.613813e-01 -8.789806e-06 -3.572855e-05 5.404138e-05
Ga -1.611780e+00 -9.585604e-01 5.036696e+00 -4.369543e-05 9.489972e-06 -2.634001e-05
Ga -1.612203e+00 -9.784898e-01 -5.298439e+00 -4.058878e-05 -1.524217e-05 5.370360e-05
Ga -1.628140e+00 -9.773902e-01 -1.676014e-01 -5.182339e-05 1.549405e-05 2.061395e-05
N 1.531329e+00 9.017346e-01 4.367772e+00 3.190171e-05 -2.221014e-05 -1.113144e-05
N 1.615324e+00 9.121862e-01 -5.986170e+00 5.040550e-05 -1.707163e-05 -2.701381e-05
N 1.580074e+00 8.846132e-01 -8.361699e-01 6.164568e-05 2.262326e-06 5.479325e-05
N -1.968009e-02 3.600553e+00 4.360647e+00 -9.260483e-06 -2.478175e-05 -3.045100e-05
N -1.886754e-02 3.647374e+00 -6.005320e+00 2.288801e-05 -3.766484e-05 -3.070644e-05
N 1.916623e-02 3.671341e+00 -8.109750e-01 5.527218e-05 -1.610887e-05 4.291732e-06
N 3.165354e+00 -1.884454e+00 4.342156e+00 1.736462e-05 -5.274730e-05 2.884734e-05
N 3.169440e+00 -1.880678e+00 -5.989181e+00 2.226288e-05 -3.595783e-05 9.748149e-06
N 3.211401e+00 -1.858965e+00 -7.488093e-01 5.947917e-05 -1.259766e-05 5.023333e-05
N -4.817132e+00 8.813472e-01 4.344736e+00 3.332556e-05 -1.656456e-05 -3.852637e-05
N -4.865169e+00 9.065765e-01 -5.912799e+00 1.102530e-05 1.598342e-05 -1.401723e-05
N -4.821476e+00 8.349062e-01 -7.522558e-01 1.914091e-05 1.253108e-05 -4.689287e-05
N -6.409162e+00 3.651145e+00 4.333775e+00 -2.220226e-05 -3.643945e-06 -5.114622e-05
N -6.371559e+00 3.623332e+00 -5.950439e+00 5.800460e-05 7.418555e-06 -3.103302e-05
N -6.452610e+00 3.665253e+00 -8.278152e-01 8.319567e-06 1.623207e-05 7.290914e-06
N -3.216952e+00 -1.891209e+00 4.395312e+00 -3.054585e-06 -3.588768e-05 -3.942499e-05
N -3.217882e+00 -1.886824e+00 -5.936306e+00 9.888239e-06 -3.308880e-05 -4.272206e-05
N -3.263474e+00 -1.912040e+00 -7.791291e-01 3.153352e-05 -2.770401e-05 -7.545283e-05
N -1.574870e+00 9.083810e-01 4.432896e+00 2.761988e-05 -4.377866e-05 -4.079710e-05
N -1.613175e+00 8.824608e-01 -5.929218e+00 6.355850e-05 -2.364046e-05 -3.855255e-05
N -1.613289e+00 8.876776e-01 -7.643393e-01 6.957261e-05 -4.695853e-05 -1.137664e-04
N -3.219456e+00 3.653049e+00 4.412493e+00 -8.254468e-06 -5.043632e-05 -3.075104e-05
N -3.260599e+00 3.679185e+00 -5.973584e+00 4.709425e-06 -3.969202e-05 -5.334827e-06
N -3.212762e+00 3.652994e+00 -7.656860e-01 2.281682e-05 -1.413592e-05 -3.029373e-05
N -1.614890e-02 -1.888015e+00 4.411666e+00 1.286038e-05 -5.100982e-05 -1.108764e-05
N -2.347610e-02 -1.930992e+00 -5.969551e+00 5.593065e-05 -9.958273e-05 -2.648900e-06
N -1.415217e-02 -1.884528e+00 -8.362965e-01 2.912609e-05 -4.188679e-05 -1.988441e-05
N 2.640568e-02 1.827533e+00 1.837401e+00 6.644096e-06 5.482399e-05 -5.779986e-05
N 2.713578e-02 1.829396e+00 6.950710e+00 -2.896516e-05 4.000534e-05 -1.375550e-06
N 2.350159e-02 1.836332e+00 -3.331256e+00 -2.189391e-05 4.317334e-05 -3.489668e-05
N 3.220720e+00 -3.706357e+00 1.852646e+00 3.197925e-05 4.488469e-05 -6.871611e-05
N 3.173527e+00 -3.727165e+00 7.030191e+00 -3.663252e-06 2.655204e-05 -9.301362e-06
N 3.218424e+00 -3.750431e+00 -3.351508e+00 2.523312e-07 4.150859e-05 -4.394349e-05
N 1.613855e+00 -9.317482e-01 1.840663e+00 -3.197809e-05 7.202580e-05 -8.750236e-05
N 1.574565e+00 -9.585331e-01 7.039978e+00 -2.966189e-05 2.609830e-05 -1.314056e-05
N 1.532569e+00 -9.346785e-01 -3.340299e+00 -3.489394e-05 2.807518e-05 -1.903030e-05
N 3.164038e+00 1.802198e+00 1.856511e+00 1.919459e-05 4.973022e-05 -9.396354e-05
N 3.126986e+00 1.834010e+00 6.998217e+00 -2.362237e-05 1.275609e-05 -4.254990e-05
N 3.124400e+00 1.833201e+00 -3.387705e+00 -5.199015e-05 -4.363913e-05 1.918398e-05
N 6.363775e+00 -3.782415e+00 1.767602e+00 4.419387e-05 3.521763e-05 -8.313294e-05
N 6.372138e+00 -3.784359e+00 7.013341e+00 -7.765623e-06 -5.199114e-06 -3.520369e-05
N 6.362482e+00 -3.725727e+00 -3.315046e+00 1.291622e-06 -2.073282e-06 -3.513389e-05
N 4.727383e+00 -9.391543e-01 1.786328e+00 3.742984e-05 3.383985e-05 -6.428546e-05
N 4.721312e+00 -9.840501e-01 6.994094e+00 -4.808196e-05 1.261072e-05 -1.571519e-05
N 4.810506e+00 -9.885951e-01 -3.335998e+00 -4.037935e-05 -6.038778e-06 -1.372991e-05
N -3.257941e+00 1.777036e+00 1.841186e+00 -9.916126e-06 4.061530e-05 3.384412e-05
N -3.221836e+00 1.851220e+00 7.014186e+00 -3.540355e-05 3.696653e-05 1.159275e-05
N -3.219191e+00 1.806648e+00 -3.357012e+00 -4.270247e-05 2.045729e-05 -2.469380e-05
N -6.970773e-02 -3.751728e+00 1.814235e+00 -3.014867e-05 4.907160e-05 -4.145523e-05
N -3.082554e-02 -3.730925e+00 7.042880e+00 4.665220e-06 6.175356e-06 -1.428540e-05
N -6.896225e-02 -3.703706e+00 -3.394785e+00 -1.907762e-05 5.918743e-06 -7.872633e-05
N -1.617761e+00 -9.648120e-01 1.805886e+00 -4.173096e-05 2.306212e-05 4.135087e-05
N -1.573658e+00 -9.893302e-01 7.010338e+00 -4.914407e-05 1.099745e-05 -1.313570e-05
N -1.625382e+00 -1.014254e+00 -3.311425e+00 -2.241076e-05 8.264905e-06 -3.820863e-05
