108
Energy=-1.809929e+06 Lattice="9.560813e+00 0.000000e+00 0.000000e+00 -4.780734e+00 8.279450e+00 0.000000e+00 -2.182566e-03 -1.074115e-03 1.547096e+01" Stress="-4.778132e-06 8.118770e-06 -1.867767e-06 -2.274342e-06 -2.031035e-05 -1.605459e-05 -1.514696e-05 -2.173077e-05 5.042243e-06" Properties=species:S:1:pos:R:3:forces:R:3 Config_type=AlGaN_super3_30_1_34.xyz
Al 1.578818e+00 8.946142e-01 2.443483e+00 8.725256e-06 -6.752244e-06 -2.806790e-05
Al 1.581651e+00 8.850581e-01 7.582067e+00 8.521863e-06 3.403583e-06 2.903108e-05
Ga 1.569167e+00 8.763007e-01 -2.728501e+00 4.764202e-06 4.106500e-06 6.453304e-06
Al -2.608342e-02 3.643040e+00 2.442373e+00 -8.732997e-06 6.146270e-06 1.107447e-05
Al -1.026539e-02 3.650873e+00 7.572482e+00 8.108219e-06 1.995332e-05 7.770752e-06
Ga -1.607842e-02 3.642705e+00 -2.722128e+00 6.908712e-06 6.874399e-06 1.427835e-05
Al 3.177794e+00 -1.880630e+00 2.435311e+00 2.261124e-05 -2.981155e-05 5.840068e-05
Ga 3.171530e+00 -1.877876e+00 7.579636e+00 1.013894e-05 5.914323e-07 1.450549e-05
Al 3.165283e+00 -1.875932e+00 -2.720297e+00 5.766538e-06 -2.911819e-07 2.243824e-05
Al -4.820802e+00 8.756159e-01 2.430459e+00 9.255759e-06 -1.146065e-05 3.504915e-05
Al -4.811790e+00 8.783330e-01 7.585119e+00 1.538140e-05 -5.536842e-06 -1.646355e-05
Ga -4.798082e+00 8.771518e-01 -2.722742e+00 7.428776e-06 4.038484e-06 8.551481e-06
Al -6.412923e+00 3.618594e+00 2.473643e+00 1.355920e-05 -1.636617e-07 1.446322e-05
Ga -6.422697e+00 3.629929e+00 7.577816e+00 -1.100821e-05 4.267251e-06 -9.513724e-06
Al -6.400025e+00 3.647297e+00 -2.755954e+00 2.346172e-06 -6.189088e-08 -3.624270e-07
Ga -3.219066e+00 -1.876682e+00 2.442016e+00 -1.339709e-05 1.057237e-05 1.737791e-05
Al -3.208974e+00 -1.889410e+00 7.579397e+00 -3.299672e-06 -3.919137e-06 -1.471427e-05
Ga -3.211838e+00 -1.883616e+00 -2.731921e+00 7.486975e-06 -1.438632e-06 -6.264000e-07
Al -1.610697e+00 8.826995e-01 2.463162e+00 -8.275271e-07 -3.475071e-06 1.676979e-05
Ga -1.623661e+00 8.713300e-01 7.588671e+00 6.857977e-06 -4.834718e-06 1.819196e-05
Al -1.622162e+00 8.793625e-01 -2.758193e+00 8.819089e-06 5.031802e-06 -8.154875e-07
Ga -3.191666e+00 3.641399e+00 2.431224e+00 -2.723055e-06 6.972862e-07 1.698971e-05
Ga -3.201535e+00 3.630399e+00 7.597613e+00 1.744115e-05 -1.175741e-05 1.272519e-05
Ga -3.211636e+00 3.635495e+00 -2.729353e+00 1.259928e-05 -2.688964e-06 1.314010e-05
Ga -2.538387e-02 -1.867218e+00 2.445540e+00 1.417593e-05 9.223464e-06 -2.491494e-07
Ga -3.203132e-02 -1.865751e+00 7.611857e+00 5.999242e-07 -1.259094e-05 1.777604e-05
Ga -2.054299e-02 -1.878404e+00 -2.758327e+00 7.763361e-06 8.688420e-07 -1.135493e-09
Ga -1.373008e-02 1.813456e+00 5.006136e+00 -1.377340e-05 1.404928e-05 1.317460e-05
Ga -2.302368e-02 1.797782e+00 -5.330312e+00 2.583009e-05 1.476842e-05 1.104152e-05
Ga -4.113724e-02 1.803746e+00 -1.170714e-01 1.547502e-05 7.342677e-06 2.020624e-05
Al 3.184319e+00 -3.718421e+00 5.006347e+00 -3.571515e-06 -3.207872e-06 1.843310e-05
Ga 3.164524e+00 -3.717108e+00 -5.302437e+00 1.310302e-05 1.319972e-05 1.502089e-05
Al 3.175409e+00 -3.699364e+00 -1.412245e-01 6.057825e-06 1.417197e-05 -1.302775e-05
Ga 1.575300e+00 -9.535385e-01 4.997776e+00 -3.848140e-06 -3.198279e-06 3.124543e-05
Al 1.566758e+00 -9.611074e-01 -5.307628e+00 1.173759e-05 7.378166e-06 2.032325e-05
Ga 1.595941e+00 -9.709998e-01 -1.259726e-01 1.039170e-06 8.978286e-06 2.535708e-05
Al 3.158509e+00 1.798093e+00 5.004618e+00 1.597092e-04 -3.034695e-06 -3.590098e-05
Ga 3.170160e+00 1.806183e+00 -5.316502e+00 1.398662e-05 4.742411e-06 -1.695526e-06
Ga 3.168031e+00 1.808531e+00 -1.269539e-01 7.862776e-06 5.871782e-06 7.830832e-06
Al 6.342401e+00 -3.721853e+00 5.004175e+00 -9.065631e-06 8.473108e-05 4.611566e-05
Al 6.363103e+00 -3.709288e+00 -5.324197e+00 1.094810e-05 3.920556e-06 -3.543951e-06
Ga 6.349333e+00 -3.722615e+00 -1.240339e-01 1.504518e-05 5.196771e-06 8.131444e-06
Ga 4.762995e+00 -9.615579e-01 5.016341e+00 3.988091e-05 1.321593e-05 -5.935079e-06
Ga 4.770390e+00 -9.604780e-01 -5.327339e+00 1.031020e-05 -1.013454e-06 1.230784e-05
Al 4.741968e+00 -9.699241e-01 -1.317554e-01 2.228782e-05 7.166272e-06 1.485172e-05
Ga -3.217701e+00 1.792308e+00 4.997559e+00 -9.150464e-06 -1.100248e-05 3.063074e-07
Al -3.212754e+00 1.794665e+00 -5.310054e+00 6.907242e-06 -8.499530e-07 -2.879385e-06
Ga -3.200364e+00 1.789437e+00 -1.257699e-01 2.406905e-05 9.617100e-07 1.113881e-05
Ga -3.533924e-02 -3.721628e+00 5.009921e+00 1.703472e-05 4.992874e-06 1.374721e-05
Al -2.990148e-02 -3.715739e+00 -5.306459e+00 6.954971e-06 -4.439276e-06 1.202196e-05
Ga -3.077878e-02 -3.726710e+00 -1.384292e-01 1.607428e-05 1.709333e-05 1.420299e-05
Al -1.625848e+00 -9.652988e-01 5.022257e+00 -3.769221e-06 2.422839e-07 4.066896e-06
Al -1.619887e+00 -9.672360e-01 -5.311302e+00 8.807389e-06 -2.273241e-06 9.337656e-07
Ga -1.625429e+00 -9.449248e-01 -1.504431e-01 1.199446e-05 1.083397e-05 1.387571e-05
N 1.610641e+00 9.078404e-01 4.353679e+00 8.311834e-07 -1.049698e-05 8.739887e-06
N 1.576940e+00 8.327840e-01 -5.970175e+00 -1.717300e-05 -7.055469e-06 -9.329956e-06
N 1.565744e+00 8.812548e-01 -7.538567e-01 1.589136e-06 -7.893020e-06 -1.460795e-05
N -2.524627e-02 3.690592e+00 4.364810e+00 9.051355e-06 -3.299948e-05 -6.657964e-06
N 2.129237e-02 3.671826e+00 -5.976076e+00 -1.808229e-05 -2.011336e-05 -9.446431e-06
N -6.003790e-02 3.661913e+00 -7.443683e-01 3.693629e-06 -1.273965e-05 -3.711313e-06
N 3.170977e+00 -1.928672e+00 4.355768e+00 -2.229422e-05 1.650346e-05 -3.223036e-05
N 3.122962e+00 -1.857949e+00 -5.926862e+00 -6.765448e-06 -9.334661e-06 -2.642539e-05
N 3.206122e+00 -1.900442e+00 -7.908085e-01 -1.890590e-05 -2.664285e-06 -4.892883e-06
N -4.851261e+00 8.982469e-01 4.346353e+00 -5.202794e-05 -1.730464e-05 -3.622827e-06
N -4.763514e+00 9.069778e-01 -5.970787e+00 -1.016043e-05 -4.534393e-06 6.833712e-06
N -4.802549e+00 8.326626e-01 -7.410692e-01 -9.061512e-06 -5.720213e-08 -1.133477e-05
N -6.444537e+00 3.611036e+00 4.394723e+00 -3.746234e-05 4.798159e-05 -6.021568e-05
N -6.398489e+00 3.687129e+00 -5.914613e+00 -5.984730e-06 -1.142514e-05 1.665752e-06
N -6.402352e+00 3.642331e+00 -8.384677e-01 -6.197191e-06 -1.250811e-05 -1.374303e-05
N -3.170247e+00 -1.903257e+00 4.421148e+00 -6.810998e-06 -1.573796e-05 4.082854e-06
N -3.161967e+00 -1.906251e+00 -5.961681e+00 -1.284601e-05 3.717655e-06 4.974874e-06
N -3.254219e+00 -1.860185e+00 -7.463022e-01 -1.138594e-05 -1.391632e-05 -1.244184e-05
N -1.612184e+00 8.302522e-01 4.376054e+00 -9.374834e-06 -1.136445e-05 -1.776687e-05
N -1.659703e+00 8.524625e-01 -5.905322e+00 -1.470641e-06 -5.865907e-06 -7.452857e-06
N -1.617101e+00 8.858208e-01 -8.426904e-01 -9.462655e-06 -1.059751e-05 -1.086164e-05
N -3.162956e+00 3.668181e+00 4.405791e+00 -1.308240e-05 -1.321300e-05 -1.040069e-05
N -3.247763e+00 3.616480e+00 -5.888613e+00 -2.873424e-06 -7.029261e-06 -1.031229e-05
N -3.167596e+00 3.661471e+00 -7.386919e-01 -1.003218e-05 -1.492008e-05 -8.757747e-06
N -6.706645e-02 -1.853492e+00 4.412290e+00 -4.315373e-06 -3.976131e-05 -4.455687e-06
N -2.281275e-02 -1.876125e+00 -5.865873e+00 -3.616045e-06 -3.549859e-06 -1.483819e-05
N -1.856167e-02 -1.877544e+00 -7.758511e-01 -1.227190e-05 -2.228239e-05 -1.674171e-05
N -2.932318e-02 1.801237e+00 1.880871e+00 -1.025750e-05 6.700879e-06 -1.519824e-05
N 1.801327e-02 1.824892e+00 6.999440e+00 -6.071542e-06 1.367427e-06 -1.741927e-05
N -5.993930e-02 1.781393e+00 -3.351862e+00 -1.281627e-05 1.905238e-06 -2.317200e-06
N 3.211949e+00 -3.688308e+00 1.783751e+00 -1.270167e-05 -1.690225e-06 -4.558717e-05
N 3.206273e+00 -3.745615e+00 6.927160e+00 -1.038851e-05 1.624900e-05 -1.263719e-05
N 3.167823e+00 -3.671589e+00 -3.330732e+00 -8.276656e-06 -6.935706e-07 -2.132797e-05
N 1.617944e+00 -9.353117e-01 1.858972e+00 -1.199499e-05 1.949262e-05 -2.606926e-05
N 1.567629e+00 -9.129918e-01 6.971549e+00 -1.095242e-05 6.880226e-06 -2.311997e-05
N 1.619670e+00 -9.803499e-01 -3.388011e+00 -1.288294e-05 3.531737e-06 -7.303199e-06
N 3.162997e+00 1.808546e+00 1.859515e+00 -2.117715e-05 -2.095939e-06 5.121056e-06
N 3.164288e+00 1.748671e+00 6.937323e+00 -5.628337e-05 -1.508158e-05 4.700117e-05
N 3.165701e+00 1.842877e+00 -3.341511e+00 -8.612849e-06 -8.596344e-06 -7.354677e-06
N 6.356242e+00 -3.771298e+00 1.857467e+00 1.818460e-05 -8.180199e-06 -2.080853e-06
N 6.306787e+00 -3.695576e+00 6.928906e+00 -5.144181e-06 -2.271167e-05 -4.661567e-07
N 6.386903e+00 -3.740227e+00 -3.401640e+00 -8.406931e-06 4.417018e-06 -3.355399e-07
N 4.713792e+00 -9.377358e-01 1.796413e+00 -2.147075e-05 1.339373e-05 -5.026532e-05
N 4.801380e+00 -9.351529e-01 7.001118e+00 -1.206908e-05 -1.644930e-06 -2.018361e-07
N 4.717695e+00 -9.835068e-01 -3.349708e+00 -8.354502e-06 8.402654e-07 -8.645463e-06
N -3.205870e+00 1.746915e+00 1.859819e+00 -8.507096e-06 4.241782e-06 -7.865583e-06
N -3.254388e+00 1.773589e+00 6.969043e+00 -5.220532e-06 1.116408e-05 5.520015e-06
N -3.175814e+00 1.776547e+00 -3.391117e+00 -2.061837e-05 1.908495e-06 -1.113843e-06
N -7.500195e-02 -3.748441e+00 1.844381e+00 -1.073695e-05 -6.634113e-06 -9.832333e-06
N -2.525939e-02 -3.718725e+00 6.976442e+00 -2.727309e-06 1.114912e-05 -9.071328e-06
N -6.085998e-02 -3.746280e+00 -3.389698e+00 -6.047370e-06 6.442068e-06 -5.393221e-06
N -1.619383e+00 -9.044431e-01 1.820132e+00 4.230722e-06 -5.152386e-06 -1.354116e-05
N -1.657752e+00 -9.856188e-01 6.935599e+00 5.758795e-06 9.858000e-06 -4.271836e-06
N -1.623715e+00 -9.165581e-01 -3.393754e+00 -1.117170e-05 1.270645e-06 2.203922e-06
