108
Energy=-7.570922e+05 Lattice="9.457408e+00 0.000000e+00 0.000000e+00 -4.739190e+00 8.170982e+00 0.000000e+00 -8.374850e-03 -6.674356e-03 1.518828e+01" Stress="7.407240e-03 1.260037e-03 -1.643773e-04 1.253373e-03 4.198474e-03 -7.443272e-04 -1.588598e-04 -7.488591e-04 3.649723e-03" Properties=species:S:1:pos:R:3:forces:R:3 Config_type=AlGaN_super3_7_1_6.xyz
Al 1.546343e+00 8.711500e-01 2.375605e+00 2.997709e-03 3.091574e-03 6.472997e-03
Al 1.548633e+00 8.513758e-01 7.444572e+00 -3.269030e-04 5.652411e-03 2.282776e-03
Al 1.560776e+00 8.928436e-01 -2.638391e+00 -2.347486e-03 -1.981985e-03 -2.257305e-02
Al -2.727998e-02 3.586100e+00 2.371242e+00 4.608907e-04 2.357426e-03 1.620119e-03
Al -2.740643e-02 3.578807e+00 7.438829e+00 4.651360e-04 -4.551378e-04 1.184392e-03
Al -1.661409e-02 3.592223e+00 -2.689297e+00 9.397149e-04 -8.068011e-04 2.173879e-03
Al 3.145392e+00 -1.870297e+00 2.387284e+00 2.263226e-03 -5.718120e-04 1.130159e-04
Al 3.140353e+00 -1.866288e+00 7.459752e+00 -1.668957e-03 -8.182550e-04 -1.270609e-03
Al 3.158688e+00 -1.852555e+00 -2.693350e+00 -3.810479e-03 2.615655e-03 2.857297e-03
Al -4.765363e+00 8.728860e-01 2.377490e+00 1.557662e-03 -1.903624e-04 -1.065509e-02
Al -4.780478e+00 8.597324e-01 7.463054e+00 6.590543e-03 4.702844e-03 -9.969322e-04
Al -4.773735e+00 8.605510e-01 -2.675098e+00 1.153013e-03 -6.749160e-04 2.425200e-03
Al -6.336204e+00 3.590999e+00 2.369125e+00 2.399378e-03 1.186463e-03 -3.694068e-04
Al -6.341225e+00 3.577350e+00 7.441460e+00 -5.921066e-05 1.363427e-03 2.130062e-03
Al -6.347914e+00 3.587423e+00 -2.682066e+00 5.227382e-03 3.822127e-03 -2.612716e-03
Al -3.162862e+00 -1.857730e+00 2.364988e+00 2.020568e-04 1.567601e-04 -1.631219e-04
Al -3.176188e+00 -1.857130e+00 7.450742e+00 2.372809e-03 -2.355021e-03 1.682308e-03
Al -3.178675e+00 -1.848098e+00 -2.686826e+00 5.043702e-04 -1.717507e-03 3.239012e-03
Al -1.604964e+00 8.748853e-01 2.369069e+00 -1.063036e-03 -2.165225e-03 -5.970408e-04
Al -1.605735e+00 8.717325e-01 7.447233e+00 3.427117e-03 -8.813621e-04 7.571301e-04
Al -1.602355e+00 8.799696e-01 -2.667732e+00 1.408280e-03 -6.410374e-04 3.507793e-04
Al -3.183180e+00 3.607117e+00 2.363240e+00 -9.710658e-04 -7.640961e-04 -2.524525e-03
Al -3.182737e+00 3.596045e+00 7.448746e+00 1.243043e-03 1.542295e-03 2.167028e-03
Ga -3.191852e+00 3.609500e+00 -2.646179e+00 2.710200e-03 3.308067e-04 -7.762843e-04
Al -2.163348e-02 -1.846948e+00 2.379442e+00 -4.293721e-03 -5.749875e-03 2.471486e-03
Ga -2.593763e-02 -1.855334e+00 7.445006e+00 3.111043e-03 6.856782e-04 2.928866e-03
Ga -3.572470e-02 -1.839424e+00 -2.676482e+00 5.800149e-03 1.433916e-03 -4.241830e-04
Al -1.716613e-02 1.762930e+00 4.905659e+00 -8.335358e-04 2.392458e-03 2.611686e-03
Al -8.855198e-03 1.765552e+00 -5.214242e+00 -1.185902e-03 2.658009e-03 3.458526e-03
Al -3.311153e-02 1.778498e+00 -1.547107e-01 -3.882509e-03 3.462772e-03 2.220317e-05
Al 3.137961e+00 -3.680332e+00 4.914865e+00 1.064213e-03 1.878004e-04 2.279969e-03
Al 3.152441e+00 -3.668399e+00 -5.219098e+00 -1.335103e-03 -1.183251e-03 8.267466e-04
Al 3.137702e+00 -3.683091e+00 -1.390064e-01 3.479017e-03 5.719846e-03 -5.863761e-03
Al 1.560323e+00 -9.569511e-01 4.901265e+00 -1.038466e-03 1.645008e-03 -5.708705e-04
Al 1.581838e+00 -9.427292e-01 -5.196659e+00 -4.752408e-03 1.949636e-04 -3.827190e-06
Ga 1.569102e+00 -9.552674e-01 -1.127908e-01 -1.341768e-03 -1.679866e-03 -6.693813e-03
Al 3.109127e+00 1.773556e+00 4.917505e+00 -7.987164e-04 1.837562e-03 9.333093e-05
Al 3.113792e+00 1.773778e+00 -5.212917e+00 -1.008514e-04 2.308872e-03 2.661650e-03
Al 3.111959e+00 1.770665e+00 -1.467682e-01 2.840990e-03 3.299845e-03 -9.189572e-03
Al 6.293635e+00 -3.681150e+00 4.911113e+00 -9.932177e-04 -1.987424e-04 1.097926e-03
Al 6.293688e+00 -3.671556e+00 -5.219516e+00 2.937968e-04 2.744927e-05 6.353299e-04
Al 6.287239e+00 -3.672502e+00 -1.339661e-01 -2.372332e-06 1.013870e-03 -1.340917e-02
Ga 4.711805e+00 -9.560099e-01 4.918529e+00 -3.409577e-04 3.669009e-04 3.380567e-04
Al 4.715221e+00 -9.535744e-01 -5.214478e+00 3.108442e-04 -6.296464e-04 1.498664e-03
Al 4.725334e+00 -9.547742e-01 -1.265320e-01 -1.142919e-03 1.053182e-03 -1.185938e-02
Ga -3.180329e+00 1.790060e+00 4.911125e+00 -2.405183e-04 -1.923030e-04 2.963226e-03
Ga -3.180014e+00 1.778159e+00 -5.210689e+00 -1.389869e-04 1.720930e-03 1.582047e-03
Al -3.190761e+00 1.775644e+00 -1.292970e-01 -2.338205e-03 3.005728e-03 -9.034927e-03
Al -2.391224e-02 -3.668611e+00 4.903903e+00 -1.382177e-03 4.808331e-04 6.159262e-04
Al -2.024527e-02 -3.671475e+00 -5.212289e+00 -3.190839e-04 1.718798e-03 -1.381288e-02
Al -2.517247e-02 -3.678513e+00 -1.410795e-01 -1.741245e-02 1.817821e-04 6.322616e-03
Al -1.586825e+00 -9.493846e-01 4.903843e+00 -1.676195e-03 -9.300156e-05 2.047319e-03
Al -1.591855e+00 -9.398765e-01 -5.208311e+00 -5.288818e-04 -1.847197e-03 3.346137e-04
Al -1.593037e+00 -9.501605e-01 -1.352861e-01 -6.584847e-03 8.195844e-04 -8.000789e-03
N 1.547936e+00 8.642450e-01 4.308611e+00 1.819486e-03 6.010689e-04 -2.362992e-03
N 1.553396e+00 8.666900e-01 -5.813076e+00 1.008308e-03 -1.400163e-03 -4.296903e-03
N 1.519445e+00 9.046487e-01 -7.953785e-01 7.431946e-03 4.337184e-04 2.224449e-02
N -2.649807e-02 3.587261e+00 4.310722e+00 3.568137e-04 -2.463149e-04 -2.756134e-03
N -1.822663e-02 3.587379e+00 -5.820666e+00 7.856792e-06 -5.283177e-04 -5.821790e-04
N -2.791461e-02 3.593159e+00 -7.556969e-01 -1.416485e-03 -1.476857e-03 3.537180e-05
N 3.112289e+00 -1.886378e+00 4.301858e+00 -2.958410e-03 -1.243076e-03 -3.213080e-03
N 3.145185e+00 -1.857911e+00 -5.811278e+00 -1.092017e-03 6.607891e-04 -4.532419e-04
N 3.174043e+00 -1.875700e+00 -7.657904e-01 2.103225e-03 -7.937136e-04 9.704964e-05
N -4.795371e+00 8.940183e-01 4.259153e+00 -2.385450e-03 -7.033110e-05 6.168213e-03
N -4.796801e+00 8.495776e-01 -5.817385e+00 -1.490205e-03 -1.135027e-03 -1.627578e-03
N -4.766516e+00 8.641382e-01 -7.480346e-01 -6.617286e-05 2.818442e-04 1.412140e-03
N -6.334531e+00 3.586210e+00 4.305142e+00 -9.624992e-05 -3.607326e-04 -2.819971e-03
N -6.331008e+00 3.591106e+00 -5.820328e+00 -2.298277e-04 -1.205895e-03 -2.049938e-03
N -6.338866e+00 3.589463e+00 -7.579493e-01 3.186178e-04 -8.475289e-04 -1.077740e-03
N -3.136326e+00 -1.876309e+00 4.291893e+00 3.304030e-03 -2.004412e-03 -4.374054e-03
N -3.162135e+00 -1.852344e+00 -5.815188e+00 -3.529617e-04 1.978429e-05 -1.885253e-04
N -3.167891e+00 -1.855109e+00 -7.538464e-01 7.547407e-04 -3.235738e-04 6.546200e-04
N -1.580520e+00 8.557394e-01 4.294288e+00 4.744047e-03 -2.863546e-03 -4.976982e-03
N -1.567626e+00 8.565343e-01 -5.824995e+00 4.027017e-03 -1.833240e-03 -2.586428e-03
N -1.612659e+00 8.737575e-01 -7.436071e-01 1.802054e-03 5.004990e-04 9.530250e-04
N -3.181318e+00 3.641041e+00 4.290567e+00 1.084993e-04 2.533696e-03 -5.144737e-03
N -3.177490e+00 3.641786e+00 -5.822747e+00 1.711426e-03 1.557054e-03 -3.507027e-03
N -3.224890e+00 3.657336e+00 -6.477154e-01 1.962212e-02 -2.447904e-02 -1.459675e-02
N -2.491623e-02 -1.851389e+00 4.313228e+00 8.329264e-04 -1.659333e-03 -1.856003e-03
N -1.604354e-02 -1.849336e+00 -5.767202e+00 2.751883e-03 2.315518e-03 1.433341e-03
N -5.893896e-02 -1.905440e+00 -6.937815e-01 5.202247e-04 1.362630e-02 -7.119983e-03
N -2.556993e-02 1.772043e+00 1.779752e+00 8.247990e-04 -1.215929e-04 -2.895489e-03
N -2.367142e-02 1.759372e+00 6.838716e+00 -8.748568e-05 1.444522e-03 -1.957691e-03
N -1.796234e-02 1.772229e+00 -3.276998e+00 -2.658677e-03 1.963944e-03 -1.841116e-03
N 3.143181e+00 -3.675719e+00 1.747401e+00 8.478023e-04 3.599163e-04 1.344795e-02
N 3.136712e+00 -3.682089e+00 6.845459e+00 1.953526e-04 2.055152e-03 -2.150219e-03
N 3.176903e+00 -3.658095e+00 -3.297491e+00 -3.135045e-04 2.023445e-03 -8.051891e-04
N 1.563711e+00 -9.536052e-01 1.864481e+00 1.564273e-03 2.381649e-03 -4.198966e-03
N 1.602693e+00 -9.270968e-01 6.820273e+00 9.423433e-04 -4.947658e-03 -9.349898e-04
N 1.596989e+00 -8.948781e-01 -3.282198e+00 4.058034e-03 -7.319912e-03 8.387113e-04
N 3.123183e+00 1.777441e+00 1.741819e+00 -3.708148e-03 -1.844421e-03 1.072870e-02
N 3.115519e+00 1.767733e+00 6.845506e+00 1.889776e-03 -5.717730e-04 -3.577484e-03
N 3.123935e+00 1.780210e+00 -3.282851e+00 1.088436e-03 8.674503e-04 1.354146e-05
N 6.287783e+00 -3.673898e+00 1.748822e+00 -9.370320e-04 -8.119970e-04 1.294106e-02
N 6.286713e+00 -3.676537e+00 6.841938e+00 -6.033657e-04 7.521444e-04 -1.897609e-03
N 6.289815e+00 -3.668978e+00 -3.291435e+00 2.524667e-04 1.159447e-03 4.080874e-06
N 4.714705e+00 -9.497134e-01 1.763788e+00 -1.340387e-03 -4.051836e-04 1.043235e-02
N 4.710992e+00 -9.519624e-01 6.891567e+00 -6.963024e-04 5.358290e-04 7.970834e-04
N 4.717253e+00 -9.462887e-01 -3.290036e+00 -7.701049e-04 9.420296e-04 -1.786459e-03
N -3.184844e+00 1.779057e+00 1.757977e+00 7.283705e-04 -4.707390e-04 1.240101e-02
N -3.165100e+00 1.788268e+00 6.891806e+00 -1.054670e-02 -6.240988e-03 1.581466e-03
N -3.191252e+00 1.745568e+00 -3.235797e+00 1.495071e-03 -1.656797e-03 1.886811e-03
N -2.350931e-02 -3.663647e+00 1.748621e+00 -2.263747e-03 -6.175620e-04 1.735530e-02
N -2.390955e-02 -3.711687e+00 6.826298e+00 -1.475573e-04 -4.362077e-03 -3.844776e-03
N -3.049128e-02 -3.666117e+00 -3.369247e+00 -1.175550e-02 -8.451319e-03 2.448536e-02
N -1.591420e+00 -9.443130e-01 1.748845e+00 -8.903012e-04 1.435359e-03 1.343166e-02
N -1.628819e+00 -9.307585e-01 6.827195e+00 -5.680663e-03 2.312973e-03 -4.206953e-03
N -1.633486e+00 -9.152157e-01 -3.294608e+00 -4.536347e-03 2.088817e-03 -5.003682e-04
