108
Energy=-1306398.292270 Lattice="9.499213 0.000000 0.000000 -4.749940 8.224461 0.000000 -0.000157 0.000435 15.322535" Stress="-0.000001 0.000000 0.000001 0.000000 -0.000003 0.000000 0.000000 0.000000 -0.000001" Properties=species:S:1:pos:R:3:forces:R:3
Al 1.558855 0.886856 2.374488 0.000003 -0.000356 0.000153
Al 1.554150 0.877269 7.521726 -0.000064 0.000026 -0.000465
Al 1.543734 0.877321 -2.683189 0.000144 0.000343 0.000147
Al -0.029366 3.605518 2.389155 -0.000057 0.000147 -0.000144
Al -0.027962 3.603235 7.527221 0.000017 -0.000119 -0.000158
Al -0.017589 3.606302 -2.703688 -0.000382 0.000283 -0.000135
Al 3.151318 -1.869643 2.393711 0.000086 -0.000238 0.000115
Al 3.152603 -1.860160 7.526130 -0.000215 0.000146 0.000026
Ga 3.139534 -1.874091 -2.706440 -0.000060 -0.000037 0.000030
Al -4.769150 0.879272 2.397575 0.000106 0.000193 0.000035
Al -4.776294 0.864002 7.490642 0.000221 0.000040 -0.000047
Ga -4.772649 0.874062 -2.671711 -0.000047 0.000132 0.000156
Al -6.357090 3.603806 2.404677 -0.000393 0.000062 0.000187
Ga -6.354201 3.608559 7.513927 0.000049 0.000069 0.000048
Al -6.376634 3.620318 -2.693761 -0.000206 -0.000779 0.000038
Al -3.191975 -1.857040 2.412896 -0.000005 -0.000194 -0.000272
Ga -3.212425 -1.863044 7.512395 0.000032 0.000077 0.000239
Al -3.181186 -1.875320 -2.703690 0.000566 0.000017 0.000223
Al -1.605582 0.883069 2.398351 -0.000222 0.000140 0.000053
Ga -1.600127 0.895687 7.487510 0.000332 -0.000143 0.000141
Al -1.587935 0.872782 -2.672216 0.000007 -0.000049 -0.000045
Al -3.180138 3.604379 2.401153 0.000272 -0.000165 -0.000003
Al -3.185329 3.613422 7.495660 -0.000057 0.000019 -0.000171
Ga -3.171462 3.615174 -2.675217 0.000191 -0.000042 -0.000094
Ga -0.026735 -1.860188 2.401220 0.000025 0.000055 0.000085
Ga -0.008069 -1.868646 7.501864 -0.000018 -0.000140 0.000142
Al -0.025505 -1.847033 -2.675603 0.000009 0.000027 -0.000159
Al -0.029150 1.783123 4.934409 -0.000065 0.000408 0.000107
Al -0.013385 1.796926 -5.232671 0.000201 -0.000208 -0.000176
Al -0.029790 1.781567 -0.153483 0.000041 0.000099 0.000186
Ga 3.142548 -3.702744 4.959279 -0.000041 0.000149 0.000115
Al 3.159975 -3.691945 -5.285331 0.000145 0.000108 -0.000037
Al 3.147398 -3.705089 -0.120086 -0.000056 0.000045 0.000082
Ga 1.565613 -0.944945 4.953769 -0.000121 0.000115 0.000115
Al 1.570759 -0.943427 -5.253529 -0.000182 -0.000323 0.000073
Al 1.557605 -0.940051 -0.140402 0.000170 -0.000048 -0.000233
Ga 3.146951 1.779415 4.949200 0.000094 0.000005 0.000149
Ga 3.127469 1.770819 -5.254979 0.000097 -0.000031 0.000141
Al 3.131133 1.784688 -0.133330 0.000112 -0.000002 -0.000076
Ga 6.305984 -3.690185 4.932972 0.000051 -0.000051 0.000128
Al 6.284794 -3.698541 -5.230337 -0.000085 0.000061 -0.000023
Ga 6.300816 -3.700539 -0.140690 0.000101 0.000025 0.000281
Al 4.734332 -0.942682 4.934261 -0.000080 -0.000347 0.000128
Al 4.717775 -0.963617 -5.254050 -0.000160 -0.000183 0.000225
Ga 4.728340 -0.953298 -0.123103 -0.000114 0.000035 0.000220
Al -3.189052 1.783938 4.931168 -0.000111 0.000098 0.000372
Ga -3.183072 1.787134 -5.261814 0.000054 -0.000040 0.000214
Al -3.170213 1.784362 -0.115681 -0.000198 -0.000310 0.000147
Al -0.016996 -3.704421 4.937640 -0.000107 0.000107 0.000098
Ga -0.012695 -3.687893 -5.226733 0.000097 0.000072 0.000122
Ga -0.018972 -3.695800 -0.143959 -0.000017 0.000074 -0.000019
Al -1.615837 -0.939176 4.933823 -0.000025 -0.000046 0.000135
Ga -1.604124 -0.949753 -5.221151 -0.000018 0.000041 0.000199
Al -1.602782 -0.932838 -0.153550 -0.000173 -0.000123 -0.000500
N 1.517893 0.898923 4.284818 0.000109 0.000026 -0.000331
N 1.509334 0.852512 -5.885215 -0.000414 0.000429 0.000566
N 1.557691 0.875367 -0.753776 0.000068 -0.000010 0.000033
N -0.030561 3.566286 4.292947 0.000045 -0.000313 0.000041
N -0.016694 3.605329 -5.866108 0.000014 -0.000115 -0.000020
N -0.068937 3.592678 -0.778019 0.000010 -0.000114 -0.000135
N 3.183631 -1.849003 4.303076 -0.000032 -0.000076 -0.000103
N 3.145296 -1.861354 -5.864641 -0.000057 0.000007 0.000041
N 3.102250 -1.896414 -0.723498 -0.000041 -0.000002 -0.000067
N -4.732895 0.854536 4.314586 0.000061 0.000278 -0.000289
N -4.770676 0.822602 -5.911816 0.000023 0.000126 -0.000131
N -4.770239 0.923601 -0.697530 0.000179 0.000041 -0.000039
N -6.316505 3.632472 4.310805 -0.000086 0.000055 -0.000263
N -6.395986 3.644050 -5.835610 -0.000125 0.000068 0.000014
N -6.362552 3.568020 -0.785814 0.000010 0.000007 -0.000040
N -3.188178 -1.816493 4.322962 0.000010 0.000052 0.000005
N -3.227642 -1.890181 -5.826132 0.000109 -0.000264 -0.000057
N -3.151433 -1.845656 -0.791765 -0.000018 0.000077 -0.000218
N -1.604803 0.879358 4.330643 0.000199 -0.000064 -0.000067
N -1.556653 0.898295 -5.862542 0.000144 0.000062 -0.000020
N -1.605919 0.880804 -0.750889 0.000103 -0.000081 -0.000031
N -3.223109 3.591907 4.318241 0.000206 -0.000152 -0.000193
N -3.154370 3.639123 -5.911087 -0.000158 -0.000097 0.000001
N -3.140294 3.588810 -0.705577 0.000021 0.000189 -0.000056
N -0.062195 -1.885696 4.376385 0.000088 -0.000175 -0.000132
N 0.015857 -1.843042 -5.849574 0.000145 0.000114 -0.000030
N -0.018308 -1.813547 -0.757223 -0.000152 -0.000005 0.000069
N -0.026678 1.786671 1.769353 -0.000064 -0.000000 -0.000299
N 0.024703 1.815655 6.857051 -0.000060 0.000087 0.000039
N -0.020963 1.786275 -3.301423 -0.000034 0.000100 -0.000084
N 3.146196 -3.696351 1.798477 -0.000015 0.000024 -0.000098
N 3.149677 -3.692100 6.954371 0.000098 -0.000144 -0.000065
N 3.186590 -3.721594 -3.370425 0.000301 -0.000200 0.000256
N 1.602791 -0.929965 1.772821 -0.000358 0.000587 0.000108
N 1.610591 -0.925263 6.929495 0.000044 0.000034 -0.000026
N 1.521148 -0.922932 -3.327140 -0.000126 -0.000436 -0.000194
N 3.142681 1.790045 1.789605 0.000016 -0.000052 -0.000032
N 3.138118 1.738022 6.929945 0.000007 -0.000111 -0.000057
N 3.099811 1.802978 -3.275971 -0.000048 0.000493 0.000101
N 6.308697 -3.691726 1.845813 0.000247 0.000055 0.000026
N 6.263665 -3.719691 6.903687 -0.000021 0.000041 0.000008
N 6.302377 -3.697036 -3.303412 0.000087 -0.000015 0.000024
N 4.729895 -0.952967 1.847080 0.000041 -0.000241 -0.000166
N 4.681978 -0.932801 6.859046 -0.000109 -0.000028 -0.000034
N 4.765578 -0.972669 -3.339641 -0.000252 0.000162 -0.000207
N -3.182464 1.785702 1.801999 -0.000047 0.000046 0.000168
N -3.233765 1.811763 6.860925 0.000014 -0.000007 -0.000322
N -3.146402 1.761769 -3.292728 0.000095 0.000018 0.000087
N -0.022141 -3.741801 1.825202 -0.000112 0.000117 -0.000138
N 0.017682 -3.721624 6.851935 0.000052 -0.000029 -0.000143
N -0.057744 -3.669396 -3.246131 0.000122 0.000375 0.000054
N -1.650214 -0.924449 1.766270 0.000076 -0.000054 0.000345
N -1.611230 -0.952605 6.841554 -0.000198 0.000102 -0.000316
N -1.603324 -0.947620 -3.241861 -0.000168 -0.000224 0.000121
