108
Energy=-802868.027702 Lattice="9.441848 0.000000 0.000000 -4.726210 8.170419 0.000000 0.000665 -0.004741 15.175744" Stress="0.000001 -0.000001 0.000001 -0.000001 -0.000003 -0.000001 0.000001 -0.000001 0.000003" Properties=species:S:1:pos:R:3:forces:R:3
Al 1.550339 0.870442 2.384200 0.000666 0.000237 0.000105
Al 1.548079 0.864568 7.424597 0.000414 -0.000168 0.000435
Al 1.556767 0.873677 -2.679290 -0.000064 0.000988 0.000507
Al -0.034697 3.583283 2.384212 -0.000482 -0.000709 0.000299
Al -0.024445 3.582593 7.433623 -0.000101 -0.000201 0.000142
Al -0.022716 3.585073 -2.676420 0.000566 0.000359 -0.000278
Al 3.125680 -1.862259 2.397112 0.000484 0.000448 -0.000057
Al 3.124685 -1.855737 7.404392 -0.000213 0.000237 0.000393
Al 3.120721 -1.854243 -2.662160 0.000620 -0.000377 0.000742
Al -4.747190 0.873718 2.393665 -0.000196 0.001290 0.000594
Al -4.745417 0.873888 7.419870 0.000395 -0.000230 -0.000049
Al -4.743314 0.882823 -2.676223 -0.000097 0.000064 -0.000682
Al -6.309175 3.582933 2.389792 0.000576 -0.000873 -0.000063
Al -6.320425 3.583931 7.431158 0.000287 -0.000012 -0.000152
Al -6.324484 3.579282 -2.678148 -0.001530 -0.000501 0.001102
Al -3.160551 -1.845945 2.403401 -0.000097 -0.000021 -0.000460
Al -3.168165 -1.854018 7.421856 -0.000037 0.000001 -0.000601
Al -3.171489 -1.859525 -2.673239 -0.000510 -0.000744 0.000730
Al -1.597739 0.870371 2.384703 0.000457 -0.000222 0.000226
Al -1.600925 0.878528 7.417030 0.000633 -0.000508 -0.000007
Al -1.601407 0.888676 -2.665016 -0.000160 -0.001280 -0.000441
Al -3.172786 3.593408 2.385258 0.000269 -0.000303 0.000051
Al -3.172651 3.585155 7.405659 0.000034 -0.000296 0.000091
Al -3.167508 3.579272 -2.651159 -0.000520 0.000159 -0.000079
Al -0.022173 -1.854388 2.381416 0.000260 -0.000410 -0.000145
Al -0.015051 -1.852687 7.409359 0.000581 -0.000146 -0.000979
Ga -0.016693 -1.847500 -2.645704 0.000139 0.000043 0.000314
Al -0.027432 1.765628 4.904985 -0.000295 0.000125 0.000384
Al -0.016121 1.774526 -5.215344 -0.000277 0.000078 0.000390
Al -0.025411 1.767058 -0.143449 0.000523 0.000386 -0.000841
Al 3.121299 -3.676714 4.907545 -0.000277 0.000214 -0.000062
Ga 3.128181 -3.676472 -5.210714 -0.000030 0.000242 -0.000083
Al 3.115170 -3.680277 -0.141122 0.000463 0.000668 -0.000660
Al 1.554223 -0.947857 4.894808 -0.000747 0.000498 0.000244
Al 1.553319 -0.930302 -5.216902 0.000893 0.000891 -0.001191
Al 1.551266 -0.941757 -0.120772 -0.000266 0.000217 0.000097
Al 3.125090 1.766829 4.908600 -0.000072 -0.000063 0.000324
Al 3.111555 1.775382 -5.217594 0.000069 -0.000195 0.000275
Al 3.125159 1.771973 -0.146707 -0.001451 0.001306 0.001083
Ga 6.274189 -3.675545 4.906436 0.000053 -0.000061 -0.000370
Al 6.274360 -3.683515 -5.213468 -0.000111 -0.000416 0.000301
Ga 6.280308 -3.681378 -0.127612 0.000455 0.000154 -0.000503
Al 4.696929 -0.938355 4.906908 -0.000230 0.000156 -0.000259
Ga 4.692046 -0.937783 -5.204759 -0.000339 0.000161 0.000018
Ga 4.693073 -0.936807 -0.139760 0.000462 -0.000122 -0.000059
Al -3.173312 1.775824 4.897103 -0.000120 -0.000027 -0.000235
Al -3.172195 1.782269 -5.214043 0.000000 -0.001095 0.000583
Al -3.166193 1.785631 -0.131274 -0.000899 -0.000298 -0.001426
Al -0.013071 -3.670832 4.904514 -0.000035 0.000118 -0.000065
Ga -0.022793 -3.680383 -5.216355 -0.000145 0.000160 0.000196
Al -0.011989 -3.679367 -0.130148 -0.000738 0.000816 -0.000519
Al -1.587034 -0.936785 4.910031 -0.000323 0.000198 -0.000037
Ga -1.589062 -0.932412 -5.222725 -0.001058 0.000333 0.000482
Al -1.586201 -0.928086 -0.127129 -0.001879 -0.001054 -0.000502
N 1.548445 0.870780 4.302937 0.000524 -0.000281 -0.000350
N 1.546937 0.870945 -5.823830 0.000013 -0.000127 -0.000216
N 1.550784 0.866099 -0.749150 0.000233 -0.000060 -0.000434
N -0.069360 3.562673 4.290557 -0.000338 -0.000170 -0.000006
N 0.012542 3.567875 -5.827322 0.000106 -0.000267 -0.000135
N -0.061475 3.567159 -0.760182 -0.000615 -0.000362 0.000064
N 3.127772 -1.860674 4.313991 0.000157 -0.000144 0.000045
N 3.083352 -1.829547 -5.860333 0.000510 -0.000696 -0.000264
N 3.079423 -1.876824 -0.750755 -0.000387 -0.000360 0.000078
N -4.748541 0.871317 4.308393 0.000402 0.000163 0.000062
N -4.746326 0.919841 -5.834793 0.000303 0.000335 -0.000163
N -4.744135 0.924831 -0.765266 0.001782 -0.000570 0.000517
N -6.275368 3.563445 4.294662 0.000395 -0.000162 0.000167
N -6.360197 3.567565 -5.832332 -0.000225 -0.000124 -0.000325
N -6.279718 3.566132 -0.762288 0.000072 0.000024 0.000093
N -3.163666 -1.805008 4.305934 0.000008 0.000194 0.000231
N -3.171836 -1.899032 -5.846983 0.000274 0.000392 0.000021
N -3.126336 -1.835018 -0.768542 0.000573 0.000669 0.000249
N -1.599279 0.870630 4.302624 0.000564 -0.000293 -0.000113
N -1.600280 0.926415 -5.841943 0.000542 0.000043 -0.000284
N -1.599725 0.877817 -0.741308 -0.000063 -0.000455 -0.000343
N -3.173150 3.593974 4.304024 0.000207 -0.000344 -0.000081
N -3.173199 3.545820 -5.863341 0.000261 0.000762 -0.000973
N -3.173382 3.589624 -0.734665 0.000064 -0.000188 0.000037
N -0.023929 -1.854258 4.304138 0.000479 -0.000392 -0.000031
N 0.022211 -1.830298 -5.858495 -0.000243 -0.000299 0.001033
N -0.022842 -1.848073 -0.669869 0.001713 -0.001464 -0.000245
N -0.021659 1.771238 1.774109 -0.000552 0.000099 0.000966
N -0.021173 1.772291 6.823021 -0.000144 0.000297 -0.000279
N -0.021349 1.771670 -3.285055 -0.000309 0.000104 0.000078
N 3.127743 -3.672875 1.778686 -0.000182 0.000554 0.000558
N 3.132679 -3.678021 6.824352 -0.000206 0.000421 0.000195
N 3.125360 -3.672157 -3.229918 -0.000544 0.000134 0.000611
N 1.559941 -0.946718 1.797521 -0.000455 0.000058 0.000412
N 1.555327 -0.945973 6.809115 -0.000550 0.000261 -0.000329
N 1.593636 -0.921387 -3.300197 -0.000898 -0.000881 -0.000754
N 3.122433 1.773129 1.777175 0.000298 -0.000274 -0.000309
N 3.120107 1.772872 6.825724 -0.000232 -0.000125 -0.000075
N 3.122724 1.774527 -3.292630 -0.000219 -0.000200 -0.000092
N 6.276043 -3.676045 1.853508 -0.000190 0.001800 -0.000334
N 6.274012 -3.674956 6.874017 0.000018 -0.000109 0.000273
N 6.275264 -3.672568 -3.282935 -0.000253 -0.000279 -0.000145
N 4.702359 -0.942065 1.840696 -0.001035 -0.002331 -0.000106
N 4.702257 -0.944599 6.825162 -0.000409 -0.000007 0.000080
N 4.694828 -0.947496 -3.219554 0.000291 0.000912 -0.000692
N -3.172367 1.775525 1.786165 0.000031 0.000340 0.001199
N -3.173228 1.772339 6.808503 -0.000216 0.000197 0.000145
N -3.169037 1.781431 -3.286258 0.000028 -0.000278 -0.000134
N -0.019605 -3.674404 1.787053 0.000210 0.000233 0.000424
N -0.023649 -3.673274 6.824096 0.000011 0.000118 -0.000079
N -0.021528 -3.715228 -3.240374 0.002496 0.000353 -0.000567
N -1.594768 -0.944248 1.787376 -0.000536 0.000564 0.000915
N -1.592309 -0.943676 6.829194 -0.000475 0.000115 -0.000083
N -1.633813 -0.920997 -3.250048 0.000712 0.001882 0.000182
