108
Energy=-9.859699e+05 Lattice="9.464545e+00 0.000000e+00 0.000000e+00 -4.735666e+00 8.191257e+00 0.000000e+00 9.703817e-03 2.760487e-04 1.522878e+01" Stress="2.904521e-04 -1.670745e-04 5.077261e-04 -1.581306e-04 -4.842885e-04 -1.405072e-04 5.061728e-04 -1.457630e-04 1.311015e-03" Properties=species:S:1:pos:R:3:forces:R:3 Config_type=AlGaN_super3_12_0_14.xyz
Al 1.549756e+00 8.650033e-01 2.376005e+00 1.701642e-04 2.378515e-04 1.689141e-04
Al 1.558762e+00 8.725984e-01 7.470393e+00 -6.755760e-04 6.756108e-04 1.038954e-03
Al 1.547725e+00 8.635911e-01 -2.694472e+00 3.691996e-04 2.507608e-04 3.526622e-05
Al -2.897671e-02 3.592609e+00 2.411319e+00 4.493644e-04 3.026022e-04 -2.806563e-04
Al -2.942893e-02 3.586541e+00 7.439238e+00 1.536007e-04 6.352184e-04 4.382568e-04
Al -4.663798e-02 3.583944e+00 -2.686307e+00 8.489445e-04 4.510418e-04 -2.145422e-04
Al 3.135544e+00 -1.861936e+00 2.383784e+00 9.193510e-06 -1.737913e-05 6.456137e-04
Al 3.134225e+00 -1.863839e+00 7.442984e+00 -1.032052e-03 9.548558e-04 9.153863e-04
Al 3.122831e+00 -1.858957e+00 -2.674831e+00 -1.269463e-03 -7.572026e-04 1.292248e-03
Al -4.746339e+00 8.660725e-01 2.387984e+00 3.800453e-05 4.030330e-04 -2.185855e-04
Al -4.751859e+00 8.806082e-01 7.454462e+00 8.710874e-04 -5.302267e-05 3.515565e-04
Al -4.763060e+00 8.719859e-01 -2.675742e+00 -1.784461e-04 7.789689e-04 5.370266e-04
Al -6.331635e+00 3.586830e+00 2.410007e+00 -2.280127e-03 2.451064e-03 -2.787134e-03
Al -6.334217e+00 3.584934e+00 7.472595e+00 1.595360e-03 1.508569e-03 -6.123242e-04
Ga -6.334423e+00 3.581365e+00 -2.685660e+00 2.183692e-04 4.082720e-04 -5.319103e-04
Al -3.182690e+00 -1.855987e+00 2.417781e+00 -8.629544e-06 -4.548792e-04 1.161427e-04
Ga -3.176564e+00 -1.853394e+00 7.441561e+00 3.901030e-04 -1.066896e-04 4.251296e-04
Ga -3.184201e+00 -1.841786e+00 -2.677095e+00 5.488177e-04 -2.443167e-04 -1.112271e-03
Al -1.595696e+00 8.851445e-01 2.404352e+00 1.273391e-04 -6.129942e-04 3.968758e-04
Al -1.592621e+00 8.862743e-01 7.456213e+00 -3.774960e-04 -1.948518e-04 5.584454e-04
Al -1.595107e+00 8.811632e-01 -2.700231e+00 -8.433771e-04 5.477722e-04 -9.969192e-05
Al -3.161130e+00 3.591347e+00 2.396432e+00 -1.145256e-03 1.037848e-03 -6.120361e-04
Al -3.160231e+00 3.587652e+00 7.470166e+00 2.326078e-04 3.967230e-04 2.336670e-04
Ga -3.168695e+00 3.600744e+00 -2.696975e+00 2.731722e-04 -7.385734e-04 4.257046e-04
Al -8.869734e-03 -1.848293e+00 2.415196e+00 -2.882414e-04 -8.059561e-04 -6.282404e-04
Ga -8.069840e-03 -1.845774e+00 7.471661e+00 2.431669e-04 4.740624e-05 -2.114107e-04
Al -1.165445e-02 -1.842147e+00 -2.714382e+00 2.777898e-04 4.018568e-04 1.849158e-03
Al -2.642205e-02 1.774132e+00 4.926269e+00 -2.678262e-04 4.022883e-04 5.066249e-04
Al -3.219675e-02 1.772210e+00 -5.240123e+00 1.539129e-04 4.495372e-04 4.586437e-04
Al -3.215377e-02 1.779720e+00 -1.534007e-01 5.264481e-04 6.930555e-04 8.542671e-04
Al 3.145754e+00 -3.682862e+00 4.918942e+00 -1.935155e-04 5.937750e-04 1.031170e-03
Al 3.124706e+00 -3.684945e+00 -5.246892e+00 2.450579e-04 8.987203e-04 6.866645e-04
Al 3.140656e+00 -3.679517e+00 -1.326903e-01 -4.305496e-05 9.961266e-04 7.003955e-04
Al 1.569713e+00 -9.452660e-01 4.910247e+00 -5.113677e-04 4.770765e-04 4.682948e-03
Al 1.555044e+00 -9.483225e-01 -5.219336e+00 -1.399996e-04 6.292914e-04 -1.085999e-04
Al 1.569110e+00 -9.423472e-01 -1.509340e-01 -5.218877e-04 -4.971827e-05 -1.842300e-04
Ga 3.126420e+00 1.767753e+00 4.928547e+00 -1.117248e-04 -2.913623e-04 8.042387e-04
Al 3.127487e+00 1.772039e+00 -5.242055e+00 -4.691534e-04 -1.759875e-04 2.310947e-04
Al 3.125381e+00 1.758434e+00 -1.306876e-01 9.633358e-04 -4.341378e-04 5.931020e-04
Al 6.277571e+00 -3.681036e+00 4.918420e+00 -5.185569e-04 8.633957e-04 4.218516e-04
Ga 6.280632e+00 -3.696813e+00 -5.232506e+00 -4.984711e-04 5.774976e-05 -1.066685e-04
Ga 6.263717e+00 -3.692243e+00 -1.211230e-01 7.432682e-04 2.595738e-04 2.112487e-03
Al 4.711617e+00 -9.522527e-01 4.914699e+00 -1.891249e-04 -2.771824e-04 5.241312e-04
Ga 4.689605e+00 -9.353544e-01 -5.226634e+00 -1.031245e-03 -1.093410e-04 6.955040e-04
Al 4.691754e+00 -9.356180e-01 -1.312903e-01 -6.991416e-04 9.108097e-05 -2.344518e-04
Al -3.159117e+00 1.773538e+00 4.927582e+00 -3.484853e-04 3.179121e-04 5.183717e-04
Al -3.179803e+00 1.780936e+00 -5.245001e+00 -9.095551e-05 3.629119e-04 7.335893e-04
Al -3.181517e+00 1.780202e+00 -1.325648e-01 -1.025497e-03 -3.394159e-04 -1.204459e-03
Ga -7.138698e-03 -3.679035e+00 4.924166e+00 5.142651e-05 4.891779e-04 8.808510e-04
Al -1.694348e-02 -3.681429e+00 -5.242607e+00 2.976924e-04 4.671725e-04 -6.725327e-04
Ga -5.388380e-03 -3.673201e+00 -1.179384e-01 -4.958368e-04 5.384983e-04 9.315030e-04
Al -1.595447e+00 -9.324610e-01 4.901180e+00 -7.137944e-04 1.601301e-04 3.663490e-04
Al -1.584582e+00 -9.272193e-01 -5.217407e+00 -6.294362e-04 1.883701e-04 -1.951305e-04
Ga -1.591908e+00 -9.202676e-01 -1.285614e-01 3.983667e-04 -8.432894e-04 2.529972e-03
N 1.512086e+00 8.475109e-01 4.289684e+00 4.757275e-04 1.748751e-04 -1.679287e-04
N 1.544853e+00 8.657402e-01 -5.833714e+00 3.027125e-04 4.650303e-04 4.009127e-04
N 1.549047e+00 8.727873e-01 -7.575402e-01 -5.915466e-06 3.429818e-04 -9.962025e-05
N -2.564924e-02 3.592644e+00 4.329884e+00 -1.418032e-05 -1.991415e-04 4.466624e-06
N -7.211072e-02 3.573121e+00 -5.872058e+00 -2.181997e-04 -6.035161e-04 -4.895364e-04
N -7.207645e-02 3.576160e+00 -7.710885e-01 -2.609623e-04 -6.904197e-04 -1.979741e-04
N 3.137100e+00 -1.862619e+00 4.310129e+00 1.202505e-04 -2.350714e-04 -2.624808e-04
N 3.085193e+00 -1.882018e+00 -5.866429e+00 3.912619e-04 -7.681487e-04 -4.004594e-04
N 3.132203e+00 -1.862309e+00 -7.418613e-01 2.542712e-04 -6.435796e-04 -9.787230e-04
N -4.710285e+00 8.507807e-01 4.302413e+00 6.485784e-04 2.109160e-04 -5.808560e-05
N -4.758856e+00 9.183580e-01 -5.864462e+00 7.623765e-04 2.564697e-04 -6.328644e-04
N -4.759542e+00 8.774564e-01 -7.440123e-01 3.006590e-04 4.181888e-05 -2.793879e-05
N -6.372424e+00 3.619795e+00 4.303713e+00 1.019531e-03 -8.804054e-04 -6.417034e-04
N -6.300681e+00 3.576374e+00 -5.846173e+00 3.489732e-04 -2.150645e-04 4.939161e-06
N -6.330836e+00 3.552442e+00 -7.188968e-01 -4.135461e-04 4.174587e-04 4.392977e-04
N -3.177423e+00 -1.858113e+00 4.336551e+00 -1.414621e-04 -2.946846e-04 2.702615e-04
N -3.138555e+00 -1.830398e+00 -5.814564e+00 1.800016e-04 -1.153625e-04 -3.639144e-04
N -3.214546e+00 -1.830795e+00 -7.151191e-01 -1.233832e-04 -1.966454e-05 6.902062e-04
N -1.596500e+00 8.832828e-01 4.316733e+00 2.978969e-04 9.557556e-06 1.636920e-04
N -1.606004e+00 8.741973e-01 -5.845509e+00 5.859343e-04 -1.116042e-04 -8.946354e-04
N -1.615016e+00 9.304218e-01 -7.836145e-01 2.844948e-03 -1.483771e-03 1.422074e-03
N -3.128212e+00 3.573923e+00 4.307303e+00 2.509743e-04 -9.430990e-04 -5.385684e-04
N -3.178247e+00 3.600341e+00 -5.833952e+00 -1.440322e-04 -1.095692e-03 -4.150923e-04
N -3.136776e+00 3.581417e+00 -7.170400e-01 -3.351261e-04 -1.956638e-05 -1.793782e-04
N -9.311795e-03 -1.808930e+00 4.318544e+00 1.672067e-04 -7.049448e-04 1.549069e-04
N -2.452451e-02 -1.848987e+00 -5.781606e+00 2.633955e-04 -1.047860e-03 8.347020e-04
N 1.800651e-02 -1.828168e+00 -7.913202e-01 -5.235987e-04 -9.505944e-04 -9.350020e-04
N -2.180777e-02 1.782278e+00 1.777517e+00 -6.867714e-04 -1.437623e-04 -8.338759e-04
N -1.484128e-02 1.773372e+00 6.850544e+00 1.044925e-04 1.374014e-04 -6.005404e-04
N -2.351573e-02 1.778358e+00 -3.308612e+00 1.747111e-04 3.475870e-04 1.991488e-04
N 3.143537e+00 -3.682106e+00 1.790632e+00 -2.613074e-04 9.593788e-05 2.322618e-04
N 3.135761e+00 -3.682723e+00 6.844802e+00 3.273847e-04 2.911088e-04 -6.511911e-04
N 3.176089e+00 -3.653764e+00 -3.323864e+00 -3.542924e-04 8.828209e-04 -6.477671e-04
N 1.559397e+00 -9.542678e-01 1.773434e+00 6.668417e-05 4.160435e-04 2.733915e-04
N 1.599828e+00 -9.154265e-01 6.843176e+00 1.570689e-03 -2.101884e-03 -5.998884e-03
N 1.564596e+00 -9.477012e-01 -3.294653e+00 -2.689523e-04 -1.870371e-04 -4.939189e-04
N 3.136398e+00 1.771873e+00 1.795191e+00 -7.950851e-04 -4.292463e-04 -5.802261e-04
N 3.131257e+00 1.778197e+00 6.905591e+00 5.435901e-05 -3.017786e-04 -6.206137e-04
N 3.128951e+00 1.726407e+00 -3.321360e+00 -1.039026e-04 -3.360960e-04 -2.462691e-05
N 6.281646e+00 -3.679587e+00 1.863278e+00 1.263124e-03 -1.531285e-03 -1.269857e-03
N 6.292542e+00 -3.729843e+00 6.838196e+00 2.167289e-04 -3.052787e-04 -1.445149e-04
N 6.241247e+00 -3.705360e+00 -3.269330e+00 -1.859667e-04 -1.507077e-04 5.064352e-04
N 4.711337e+00 -9.497160e-01 1.791409e+00 -5.157140e-04 -1.751906e-04 3.622098e-04
N 4.671030e+00 -9.219560e-01 6.832357e+00 -8.633538e-04 -1.729013e-04 -9.741162e-04
N 4.652156e+00 -9.233339e-01 -3.253081e+00 2.240592e-03 5.763331e-04 -7.218262e-04
N -3.172143e+00 1.775612e+00 1.785221e+00 -4.723920e-04 3.311130e-04 -3.764182e-05
N -3.169641e+00 1.779399e+00 6.853022e+00 -5.656555e-04 5.099172e-04 -3.514492e-04
N -3.184297e+00 1.731726e+00 -3.321739e+00 -7.148775e-04 -5.378471e-04 -5.745501e-04
N -1.957683e-02 -3.676233e+00 1.865077e+00 1.987556e-03 -3.847486e-04 -9.946103e-05
N -5.962567e-03 -3.725364e+00 6.899000e+00 -2.827763e-03 -8.306694e-04 2.898286e-04
N -2.293801e-02 -3.636250e+00 -3.332504e+00 -2.936083e-04 -2.434023e-04 2.397997e-04
N -1.596265e+00 -9.457442e-01 1.869851e+00 4.452612e-04 7.531949e-04 -4.200401e-03
N -1.590683e+00 -8.952502e-01 6.809398e+00 2.326136e-04 -5.522038e-04 -5.775596e-04
N -1.561168e+00 -9.154017e-01 -3.306567e+00 -4.069013e-04 -7.733336e-04 5.211652e-04
