108
Energy=-1581047.836078 Lattice="9.481043 0.000000 0.000000 -4.744726 8.207226 0.000000 -0.000712 -0.000010 15.306022" Stress="-0.000180 0.000026 0.000001 0.000026 -0.000148 -0.000004 0.000001 -0.000004 -0.000123" Properties=species:S:1:pos:R:3:forces:R:3
Al 1.555675 0.866977 2.463837 0.002612 0.000991 -0.002611
Al 1.563814 0.900189 7.516150 -0.001443 -0.012479 -0.003554
Al 1.560444 0.895310 -2.761711 -0.000989 -0.012470 -0.003642
Al 0.000839 3.599984 2.481483 -0.005468 0.002259 -0.011209
Al -0.006598 3.609728 7.514630 -0.002151 -0.001271 -0.001750
Ga -0.007453 3.610395 -2.756605 -0.002804 -0.001575 -0.000961
Al 3.168918 -1.876115 2.464734 -0.001261 0.000554 -0.005962
Ga 3.172399 -1.882457 7.516117 -0.002612 0.001011 -0.002163
Al 3.171453 -1.883318 -2.754486 -0.002610 0.001531 -0.001893
Al -4.780692 0.901462 2.473653 0.000705 -0.009603 -0.007237
Al -4.785963 0.901299 7.516540 0.001270 -0.011735 -0.001965
Ga -4.784205 0.898225 -2.757517 0.001530 -0.014371 -0.002953
Ga -6.351522 3.614631 2.479164 0.001072 -0.001659 -0.005981
Ga -6.352533 3.609959 7.515626 -0.000216 0.000419 -0.000810
Ga -6.351943 3.612358 -2.756333 0.000079 -0.000096 0.000020
Al -3.176643 -1.879559 2.468469 -0.000141 0.002434 -0.005905
Ga -3.175036 -1.879361 7.515350 -0.001167 0.001319 -0.001186
Al -3.174158 -1.881257 -2.753576 0.000455 0.003412 -0.000663
Al -1.651459 0.900692 2.472916 0.012589 -0.006479 -0.009310
Ga -1.649334 0.904715 7.521879 0.014633 -0.007264 -0.006440
Al -1.650583 0.898763 -2.758550 0.011846 -0.007415 -0.004194
Al -3.192206 3.617837 2.448457 0.000073 0.001932 0.002735
Al -3.217741 3.612904 7.514859 0.010727 0.005384 -0.003301
Al -3.216099 3.614535 -2.758791 0.011058 0.003779 -0.002326
Ga -0.038746 -1.874447 2.473660 0.011983 0.006501 -0.009204
Ga -0.041101 -1.878285 7.516965 0.014262 0.008239 -0.003954
Al -0.039751 -1.879047 -2.755724 0.010121 0.007634 -0.003239
Al -0.024388 1.790668 4.987629 -0.003146 -0.004034 -0.000971
Al -0.022819 1.796138 -5.278402 -0.001820 -0.004387 -0.002289
Al -0.003786 1.800324 -0.245665 -0.010884 -0.007847 0.028677
Ga 3.170853 -3.696372 4.994818 -0.014477 -0.007007 -0.003947
Al 3.171931 -3.693385 -5.275902 -0.010119 -0.004973 -0.001982
Ga 3.171391 -3.693984 -0.219142 -0.013150 -0.006435 0.030772
Ga 1.604524 -0.976133 4.998232 -0.014107 0.009012 -0.005942
Ga 1.605434 -0.977287 -5.271308 -0.013591 0.009487 -0.005561
Ga 1.605756 -0.978125 -0.222656 -0.013952 0.008932 0.027992
Ga 3.129439 1.804978 4.998005 -0.000720 -0.003014 -0.003546
Al 3.128074 1.802900 -5.277423 -0.000065 -0.003499 -0.001476
Al 3.128533 1.802370 -0.243525 -0.000085 -0.003030 0.032217
Al 6.304401 -3.693827 4.997183 0.000118 -0.000387 -0.001063
Ga 6.305315 -3.692048 -5.273052 -0.001055 -0.001223 -0.000167
Ga 6.308767 -3.694543 -0.218980 -0.000005 0.000077 0.035192
Ga 4.740355 -0.976640 4.993543 -0.001174 0.015062 -0.003599
Ga 4.740904 -0.977209 -5.271807 -0.001309 0.015752 -0.002419
Ga 4.738776 -0.977617 -0.218171 -0.000267 0.014808 0.032182
Al -3.213745 1.802579 5.004834 0.001588 -0.000040 -0.006460
Al -3.209938 1.804889 -5.276534 -0.000002 -0.001977 -0.002041
Ga -3.217884 1.806627 -0.225659 0.003021 -0.002500 0.033931
Al -0.042612 -3.688510 5.000171 0.003139 -0.000088 -0.003939
Ga -0.038403 -3.690726 -5.273043 0.002560 0.000269 -0.000961
Al -0.037921 -3.691951 -0.244818 0.002092 0.001308 0.031450
Ga -1.607338 -0.973283 4.995190 0.001038 0.015313 -0.005387
Al -1.605264 -0.974123 -5.269771 0.000505 0.012257 -0.001299
Ga -1.604968 -0.977125 -0.223035 0.000810 0.016152 0.031260
N 1.554082 0.904863 4.401694 -0.017281 -0.008488 -0.012499
N 1.562982 0.904711 -5.874383 -0.002849 0.003722 -0.001404
N 1.561862 0.901295 -0.841277 -0.000555 0.004119 0.000209
N -0.003583 3.601827 4.398400 0.014850 -0.007305 -0.007454
N -0.011609 3.607307 -5.873269 -0.017930 -0.009118 -0.006015
N -0.005536 3.606898 -0.828733 -0.001843 -0.018485 0.010309
N 3.170876 -1.882244 4.390547 -0.002341 0.000713 -0.022075
N 3.172718 -1.887163 -5.868673 -0.002406 -0.017839 0.008075
N 3.172466 -1.883772 -0.829818 -0.002378 0.001477 -0.018159
N -4.778656 0.903244 4.393122 0.018212 -0.005944 -0.008047
N -4.787296 0.904848 -5.873201 0.003492 0.004305 -0.001966
N -4.788185 0.901052 -0.830715 -0.015535 -0.005739 0.013558
N -6.354171 3.618988 4.405808 -0.000922 0.020627 0.014455
N -6.352049 3.607488 -5.868709 -0.000140 -0.018025 0.007733
N -6.348254 3.609055 -0.831830 0.016166 -0.009167 0.017480
N -3.175421 -1.886059 4.393181 -0.000390 -0.017921 -0.014548
N -3.169559 -1.877892 -5.868658 0.017112 0.011490 0.007551
N -3.174242 -1.882563 -0.829015 -0.001290 0.001599 -0.017965
N -1.640531 0.911371 4.392761 0.005338 0.006055 0.000391
N -1.633949 0.904143 -5.858068 0.005239 -0.009743 0.023583
N -1.648127 0.902399 -0.837327 0.027997 -0.000353 -0.004581
N -3.229688 3.608044 4.405487 -0.000128 -0.002190 -0.007884
N -3.213036 3.611811 -5.873939 0.027155 -0.004712 -0.003826
N -3.220449 3.615338 -0.837788 -0.003158 0.016180 -0.007497
N -0.041025 -1.881931 4.401130 0.012611 -0.010717 0.009563
N -0.044833 -1.877493 -5.866991 -0.004190 0.017950 0.011186
N -0.040316 -1.884395 -0.835579 0.012807 -0.010542 -0.006357
N -0.003537 1.792215 1.884981 -0.010760 -0.004698 -0.026553
N 0.001281 1.805266 6.919613 0.002374 0.000268 -0.004828
N -0.006895 1.795199 -3.359182 -0.009754 -0.024814 -0.002586
N 3.143365 -3.683014 1.852550 0.003595 -0.006811 -0.004943
N 3.172504 -3.697380 6.919683 -0.010698 -0.023773 0.016851
N 3.168526 -3.689905 -3.356439 -0.027267 0.005111 -0.004105
N 1.610932 -0.958984 1.870642 0.000849 0.007088 -0.015598
N 1.606107 -0.972751 6.921633 -0.014625 0.024389 0.012691
N 1.606074 -0.978584 -3.348305 -0.012033 0.006528 0.025962
N 3.130694 1.798108 1.888202 -0.001303 -0.022280 -0.036295
N 3.130006 1.798213 6.921633 0.001243 -0.021590 0.014300
N 3.124867 1.799777 -3.360489 -0.016012 -0.010913 -0.011845
N 6.308177 -3.682720 1.860345 -0.019676 0.007299 -0.015068
N 6.301512 -3.692969 6.915662 -0.016410 -0.009171 -0.013045
N 6.305858 -3.686468 -3.351145 0.000283 0.019197 0.008418
N 4.739738 -0.974957 1.870077 -0.001432 0.011135 -0.009582
N 4.739505 -0.971466 6.919276 -0.001129 0.031692 0.008731
N 4.740137 -0.982824 -3.349096 -0.000977 -0.004850 0.018198
N -3.212386 1.804146 1.867202 0.002229 -0.001516 -0.012471
N -3.221294 1.807544 6.921656 -0.013929 0.006511 -0.006030
N -3.212217 1.806178 -3.357809 0.018288 0.008636 -0.006397
N -0.030366 -3.691580 1.884810 0.018693 -0.008691 -0.043713
N -0.036883 -3.691184 6.916872 0.018270 -0.009006 -0.012629
N -0.035229 -3.687712 -3.351092 0.018270 0.010061 0.015894
N -1.612556 -0.972475 1.870559 -0.015503 0.021531 -0.016755
N -1.607448 -0.973503 6.918724 0.000519 0.016613 0.003631
N -1.607169 -0.977254 -3.352340 0.000148 0.011132 0.002979
