108
Energy=-1.123296e+06 Lattice="9.479183e+00 0.000000e+00 0.000000e+00 -4.748997e+00 8.203978e+00 0.000000e+00 -1.404523e-03 -4.824735e-04 1.529037e+01" Stress="6.195369e-04 -8.110036e-04 -9.572959e-05 -8.013467e-04 -7.722679e-04 -5.824749e-04 -9.567074e-05 -5.832249e-04 3.414819e-03" Properties=species:S:1:pos:R:3:forces:R:3 Config_type=AlGaN_super3_15_2_6.xyz
Al 1.560351e+00 8.560744e-01 2.412481e+00 -3.570035e-03 3.240942e-03 8.633531e-04
Al 1.557738e+00 8.708090e-01 7.508334e+00 -3.959938e-04 6.794933e-04 -2.389808e-04
Al 1.566663e+00 8.797636e-01 -2.717048e+00 -2.786921e-03 1.282059e-03 -1.600645e-03
Al -1.306763e-02 3.594023e+00 2.399882e+00 -1.195181e-02 1.800289e-04 1.459528e-03
Al -4.016968e-02 3.590523e+00 7.507925e+00 1.339030e-03 1.280679e-03 3.364767e-05
Al -1.303342e-02 3.580231e+00 -2.716013e+00 -1.937760e-03 3.549681e-03 1.844369e-03
Al 3.161368e+00 -1.818967e+00 2.442078e+00 1.126483e-02 -1.693860e-02 -2.867620e-03
Al 3.142205e+00 -1.862103e+00 7.492900e+00 -1.607073e-03 5.567666e-04 -4.127254e-04
Ga 3.142901e+00 -1.862629e+00 -2.714534e+00 7.172463e-04 9.401469e-04 1.290667e-03
Al -4.753983e+00 8.743151e-01 2.431784e+00 -5.660521e-03 2.202244e-02 1.243571e-03
Al -4.788460e+00 8.739665e-01 7.486524e+00 2.675091e-03 1.442729e-04 6.946976e-04
Al -4.768875e+00 9.014099e-01 -2.712918e+00 -3.172485e-03 -4.076873e-03 6.664727e-03
Ga -6.360988e+00 3.590008e+00 2.410163e+00 1.837800e-03 -1.033307e-03 1.641872e-03
Al -6.339138e+00 3.583487e+00 7.512656e+00 -2.077698e-03 1.619597e-03 2.571673e-04
Al -6.341450e+00 3.591087e+00 -2.726528e+00 5.923165e-04 1.149612e-03 1.240121e-03
Al -3.192355e+00 -1.835589e+00 2.431184e+00 8.665081e-03 2.388320e-03 1.135296e-03
Ga -3.190833e+00 -1.858114e+00 7.515608e+00 1.807355e-03 3.944445e-04 -1.805857e-05
Ga -3.166064e+00 -1.863736e+00 -2.735138e+00 -1.333486e-03 9.456950e-05 1.665040e-03
Al -1.611413e+00 8.709951e-01 2.391482e+00 1.677509e-03 3.033298e-03 -2.027802e-03
Al -1.614661e+00 8.894688e-01 7.501382e+00 1.662496e-04 -3.775804e-03 -9.351679e-04
Ga -1.598594e+00 8.922933e-01 -2.705573e+00 1.806115e-03 -5.879903e-04 3.131832e-03
Ga -3.178115e+00 3.593329e+00 2.401670e+00 3.454963e-03 2.559352e-03 2.555698e-03
Al -3.196675e+00 3.602705e+00 7.471727e+00 9.243333e-04 3.099147e-04 3.010772e-03
Al -3.204718e+00 3.611446e+00 -2.698999e+00 6.857863e-04 5.025971e-04 1.950117e-03
Ga -2.914978e-02 -1.857596e+00 2.419693e+00 -6.235097e-05 -1.661974e-03 4.308882e-03
Ga -1.443612e-02 -1.860251e+00 7.493021e+00 -9.888469e-04 3.538650e-04 4.754286e-04
Al -1.258412e-02 -1.860671e+00 -2.717692e+00 3.292665e-04 -1.196882e-03 -1.132900e-03
Ga -3.582134e-02 1.770519e+00 4.954128e+00 -6.215286e-04 3.555522e-04 3.181775e-04
Al -1.411944e-02 1.773709e+00 -5.273124e+00 2.688592e-04 1.327685e-03 6.992554e-04
Al -2.609749e-02 1.777990e+00 -1.478875e-01 -2.828896e-04 2.834553e-04 2.735686e-03
Al 3.136420e+00 -3.679925e+00 4.973807e+00 -5.047262e-05 5.033410e-04 -2.512294e-03
Ga 3.143236e+00 -3.690289e+00 -5.265290e+00 -3.766280e-04 5.185610e-04 1.600338e-03
Al 3.139447e+00 -3.712055e+00 -1.665781e-01 2.081221e-04 1.064278e-03 4.547011e-03
Al 1.576187e+00 -9.483510e-01 4.969701e+00 -4.797319e-03 -2.779146e-03 -5.232148e-03
Al 1.559279e+00 -9.397745e-01 -5.256957e+00 -6.069821e-04 -1.824161e-04 2.075580e-03
Ga 1.558050e+00 -9.573356e-01 -1.354107e-01 -5.617892e-04 1.731636e-03 -1.923254e-03
Al 3.141355e+00 1.767865e+00 4.976364e+00 -8.762355e-04 1.616990e-03 2.602248e-04
Al 3.122522e+00 1.779846e+00 -5.263064e+00 2.552978e-04 -1.349248e-05 1.971615e-03
Al 3.131582e+00 1.789461e+00 -1.544864e-01 1.302815e-03 -4.573524e-03 -5.584015e-03
Ga 6.302531e+00 -3.684712e+00 4.969684e+00 -6.967131e-04 -3.614655e-04 -4.469172e-04
Al 6.312099e+00 -3.707086e+00 -5.258593e+00 -1.131507e-03 2.995835e-03 6.978721e-05
Ga 6.308293e+00 -3.700329e+00 -1.380638e-01 -2.257567e-03 7.608903e-04 -1.070659e-03
Al 4.716844e+00 -9.390841e-01 4.959906e+00 -4.311672e-04 -1.161708e-03 -8.765225e-05
Al 4.709862e+00 -9.371337e-01 -5.268397e+00 2.206356e-03 -1.266287e-03 2.575422e-03
Ga 4.742842e+00 -9.398220e-01 -1.006289e-01 -1.841803e-03 3.847782e-03 -5.725143e-03
Al -3.200876e+00 1.779982e+00 4.977166e+00 3.134542e-03 -9.502467e-04 -2.963876e-03
Ga -3.205014e+00 1.785681e+00 -5.275193e+00 1.688081e-03 -3.973039e-04 2.004713e-03
Al -3.209428e+00 1.800370e+00 -1.438803e-01 9.367543e-03 -2.738002e-03 -4.163564e-03
Al -1.485344e-02 -3.702371e+00 4.980706e+00 1.119461e-03 4.648150e-03 -9.227358e-04
Al -3.155050e-02 -3.677056e+00 -5.246394e+00 -1.243040e-04 -5.596299e-04 8.163662e-04
Al -2.091544e-02 -3.693181e+00 -1.862532e-01 7.717515e-04 1.361771e-03 1.074223e-03
Al -1.607124e+00 -9.478468e-01 4.942322e+00 -1.038786e-03 2.842969e-03 4.160986e-03
Al -1.586621e+00 -9.554926e-01 -5.248440e+00 2.422689e-05 5.498025e-03 -3.801852e-03
Al -1.586260e+00 -9.460963e-01 -1.554129e-01 -7.686176e-04 2.017088e-03 2.609789e-03
N 1.592544e+00 8.509248e-01 4.338275e+00 2.113484e-03 1.070016e-04 -2.542769e-03
N 1.553037e+00 8.689452e-01 -5.862939e+00 1.873726e-03 -4.094323e-04 -1.557686e-03
N 1.546885e+00 9.108707e-01 -7.912887e-01 2.860544e-03 6.739334e-04 -1.503961e-04
N -7.062962e-02 3.625109e+00 4.314694e+00 -3.673231e-04 3.231720e-04 4.563110e-04
N 8.241338e-03 3.580547e+00 -5.877980e+00 1.494411e-03 5.154035e-04 -8.152538e-04
N -5.856719e-02 3.573781e+00 -7.864346e-01 4.630911e-04 -6.822285e-04 -8.526662e-04
N 3.142348e+00 -1.860172e+00 4.364913e+00 1.613984e-03 -1.307873e-03 -1.868127e-03
N 3.137757e+00 -1.819761e+00 -5.877399e+00 -1.783850e-05 1.004542e-03 -1.748981e-03
N 3.154423e+00 -1.903153e+00 -7.430575e-01 1.462101e-03 -8.846120e-04 2.294426e-03
N -4.768645e+00 8.780966e-01 4.362811e+00 -2.243696e-04 1.624321e-03 -1.846488e-03
N -4.814822e+00 8.523507e-01 -5.893058e+00 -6.374231e-04 2.182998e-04 -1.772817e-03
N -4.751604e+00 9.123589e-01 -7.654831e-01 -8.327043e-03 1.924744e-03 -7.789832e-03
N -6.300225e+00 3.580353e+00 4.388419e+00 -2.000197e-03 -4.229145e-03 -1.868851e-03
N -6.339767e+00 3.601085e+00 -5.855740e+00 -8.531743e-07 -3.679843e-05 -3.580207e-05
N -6.313280e+00 3.578676e+00 -7.954137e-01 6.685564e-04 -1.236820e-04 -5.918375e-04
N -3.181131e+00 -1.821000e+00 4.350415e+00 -1.455533e-03 1.743693e-03 -2.695378e-03
N -3.168769e+00 -1.855504e+00 -5.799972e+00 -4.109878e-03 -3.063846e-03 1.877927e-03
N -3.136987e+00 -1.842442e+00 -7.573462e-01 1.022306e-03 -1.052332e-03 1.267802e-03
N -1.653413e+00 8.534140e-01 4.308321e+00 -2.321466e-03 -2.823233e-04 1.987319e-03
N -1.569011e+00 8.650914e-01 -5.884711e+00 -1.825219e-03 -5.045840e-03 2.974070e-03
N -1.598349e+00 8.727656e-01 -7.165460e-01 -4.012678e-03 2.737691e-03 7.806617e-04
N -3.186593e+00 3.604652e+00 4.403835e+00 1.535747e-04 -2.476717e-04 -3.052806e-04
N -3.239089e+00 3.641335e+00 -5.903295e+00 4.194754e-04 -1.266971e-03 -3.236937e-03
N -3.193627e+00 3.612266e+00 -7.694178e-01 4.597032e-04 -1.226713e-03 -6.480522e-04
N -3.727176e-02 -1.868830e+00 4.414077e+00 6.999125e-03 -6.259673e-04 -1.362673e-03
N -1.637814e-02 -1.859244e+00 -5.817900e+00 7.957893e-04 -9.059251e-04 -1.432669e-04
N -5.699285e-02 -1.880632e+00 -7.971460e-01 5.683603e-04 -1.219444e-03 1.848025e-03
N -1.315205e-02 1.771968e+00 1.800335e+00 -1.463157e-04 -3.227589e-04 -1.579476e-03
N -3.104459e-02 1.775735e+00 6.938707e+00 1.161968e-03 2.653369e-04 -1.248623e-03
N 1.263281e-02 1.810212e+00 -3.365367e+00 3.523786e-03 -4.276362e-03 3.928178e-03
N 3.181513e+00 -3.680975e+00 1.764216e+00 4.826107e-03 1.139305e-02 2.827022e-03
N 3.141767e+00 -3.689691e+00 6.901076e+00 3.033762e-04 1.019100e-03 -1.369012e-03
N 3.138598e+00 -3.742485e+00 -3.291220e+00 1.952724e-03 6.665245e-05 1.289221e-03
N 1.618328e+00 -9.582249e-01 1.856654e+00 -6.247745e-03 8.386031e-03 -5.884753e-03
N 1.598571e+00 -9.257296e-01 6.864334e+00 2.412282e-03 -1.126237e-04 5.085543e-03
N 1.530936e+00 -9.283460e-01 -3.335405e+00 -1.323300e-03 1.383493e-03 2.301064e-04
N 3.092890e+00 1.734998e+00 1.747460e+00 1.394463e-02 -1.247469e-03 8.339465e-03
N 3.124115e+00 1.780112e+00 6.899493e+00 -4.999287e-04 -3.219144e-04 -1.987227e-03
N 3.138765e+00 1.781856e+00 -3.335078e+00 -9.487328e-04 -5.475951e-05 4.374170e-04
N 6.253438e+00 -3.647891e+00 1.862633e+00 3.208124e-03 1.760676e-03 -7.721828e-03
N 6.295874e+00 -3.734472e+00 6.940910e+00 1.099552e-03 -1.534022e-03 -7.527730e-05
N 6.304794e+00 -3.739285e+00 -3.338584e+00 -2.771138e-04 -2.900667e-04 2.424526e-04
N 4.775492e+00 -8.538102e-01 1.874587e+00 -1.712346e-02 -3.483561e-02 -1.774111e-03
N 4.682423e+00 -9.305575e-01 6.878340e+00 -2.213340e-03 3.953025e-04 -3.016071e-03
N 4.722402e+00 -8.888545e-01 -3.353639e+00 2.998158e-05 -9.869343e-04 -1.675520e-03
N -3.188568e+00 1.737563e+00 1.762101e+00 -1.901700e-03 2.754199e-03 5.358975e-03
N -3.195715e+00 1.778740e+00 6.898893e+00 -1.722759e-04 -3.683431e-04 -1.378757e-03
N -3.229550e+00 1.812040e+00 -3.295795e+00 1.842783e-03 1.834404e-03 2.371350e-04
N -2.446959e-02 -3.689698e+00 1.737028e+00 -6.901426e-04 -3.959229e-04 -3.672659e-03
N -2.772901e-02 -3.730634e+00 6.884355e+00 -6.790653e-04 -1.163499e-03 -5.704368e-04
N -1.956485e-02 -3.682930e+00 -3.319240e+00 -2.325263e-04 -1.807043e-04 7.494438e-04
N -1.620634e+00 -9.186266e-01 1.771679e+00 -4.570493e-03 -6.164263e-03 6.265515e-04
N -1.607404e+00 -9.046202e-01 6.859575e+00 -2.344135e-04 2.248440e-03 -1.754703e-03
N -1.547037e+00 -9.563091e-01 -3.360872e+00 -9.939197e-04 -9.148662e-04 3.385544e-03
