108
Energy=-1.855704e+06 Lattice="9.572476e+00 0.000000e+00 0.000000e+00 -4.788982e+00 8.287023e+00 0.000000e+00 -4.550747e-03 6.407919e-03 1.547777e+01" Stress="7.826387e-04 -2.123550e-05 -3.051197e-05 -2.026800e-05 5.301534e-04 2.187573e-04 -5.194510e-05 2.103786e-04 3.370422e-04" Properties=species:S:1:pos:R:3:forces:R:3 Config_type=AlGaN_super3_31_0_14.xyz
Al 1.560925e+00 8.771594e-01 2.448934e+00 5.176404e-04 -2.813476e-04 2.022285e-04
Al 1.548307e+00 8.988364e-01 7.563304e+00 1.068850e-04 3.821521e-04 5.230470e-04
Al 1.567771e+00 8.669567e-01 -2.721246e+00 6.244103e-05 1.381687e-04 5.874733e-04
Al -2.640274e-02 3.649938e+00 2.448465e+00 1.553128e-03 1.592601e-03 -9.093036e-04
Al -3.589185e-02 3.625092e+00 7.570874e+00 7.581880e-04 -1.000260e-03 2.441989e-03
Ga -3.036466e-02 3.641784e+00 -2.738211e+00 -7.108875e-05 -7.943201e-05 4.365431e-04
Al 3.164577e+00 -1.882705e+00 2.403249e+00 -3.047082e-04 3.473974e-04 1.219273e-03
Ga 3.163376e+00 -1.890645e+00 7.591346e+00 -2.163498e-06 2.015000e-04 6.168097e-04
Al 3.168903e+00 -1.892371e+00 -2.711171e+00 -6.840376e-05 -4.629946e-05 5.731870e-04
Ga -4.814942e+00 8.824411e-01 2.451231e+00 2.507204e-04 -2.023084e-04 -3.098722e-05
Ga -4.814185e+00 8.937565e-01 7.564933e+00 1.462676e-04 1.749624e-04 1.391935e-04
Ga -4.816528e+00 8.666867e-01 -2.710436e+00 2.464989e-04 9.849854e-05 -2.033405e-05
Ga -6.422723e+00 3.657919e+00 2.474715e+00 -4.376322e-05 -5.634858e-05 -1.006122e-04
Ga -6.415727e+00 3.642130e+00 7.545453e+00 2.897825e-05 -5.281259e-05 9.551129e-05
Ga -6.414974e+00 3.639552e+00 -2.716553e+00 -2.811220e-05 -2.430252e-05 3.012126e-05
Al -3.210661e+00 -1.887528e+00 2.438209e+00 -2.173748e-04 -1.942256e-04 1.845757e-04
Ga -3.217252e+00 -1.884426e+00 7.569502e+00 1.512226e-06 -1.001440e-04 4.053954e-04
Al -3.212272e+00 -1.882172e+00 -2.706291e+00 -2.470893e-05 -2.038451e-05 3.492575e-04
Ga -1.616011e+00 8.806964e-01 2.440156e+00 9.336289e-05 -1.202120e-04 3.960459e-04
Al -1.605512e+00 9.109013e-01 7.561119e+00 2.581947e-04 8.530244e-05 3.339862e-04
Ga -1.610463e+00 8.736542e-01 -2.708615e+00 4.620765e-04 -1.096749e-04 5.731578e-04
Ga -3.202405e+00 3.655980e+00 2.442834e+00 -1.205211e-04 -2.073345e-04 4.714908e-04
Al -3.204183e+00 3.644234e+00 7.565004e+00 -2.971114e-04 -2.917397e-04 3.200194e-04
Ga -3.194226e+00 3.651740e+00 -2.707664e+00 2.543446e-04 -1.641025e-04 6.057184e-04
Al -1.606120e-02 -1.863982e+00 2.423359e+00 -6.462963e-05 -1.592103e-04 1.438700e-04
Ga -1.669737e-02 -1.872044e+00 7.574947e+00 -2.930410e-05 -3.424537e-04 4.273949e-04
Ga -1.520024e-02 -1.864307e+00 -2.697683e+00 1.403165e-04 -1.098648e-04 2.185363e-04
Al -1.545961e-02 1.808526e+00 5.003470e+00 -2.182737e-04 2.839380e-03 1.108666e-03
Al -2.314289e-02 1.800435e+00 -5.336647e+00 -3.657335e-05 5.600466e-04 2.545465e-04
Ga -2.518424e-02 1.789290e+00 -1.244574e-01 -2.605067e-04 6.801088e-04 -8.197696e-05
Ga 3.178149e+00 -3.737537e+00 5.004498e+00 -4.056164e-04 -4.358595e-05 5.084789e-04
Al 3.174056e+00 -3.738565e+00 -5.329012e+00 3.218383e-04 -1.151027e-04 1.842545e-04
Al 3.168125e+00 -3.722409e+00 -1.251337e-01 1.256687e-04 2.948102e-04 6.507863e-05
Ga 1.572681e+00 -9.481749e-01 4.986016e+00 -5.345335e-04 -6.879502e-05 6.129170e-04
Ga 1.584015e+00 -9.519334e-01 -5.299535e+00 -2.504547e-04 4.052205e-04 2.967514e-04
Al 1.575625e+00 -9.636271e-01 -1.324528e-01 -3.227148e-05 2.342106e-04 8.936295e-06
Al 3.151451e+00 1.813347e+00 5.006952e+00 1.583516e-04 1.182991e-04 -3.124642e-05
Ga 3.144419e+00 1.793344e+00 -5.315133e+00 1.737880e-05 3.767386e-05 1.888844e-04
Ga 3.158451e+00 1.784597e+00 -1.253783e-01 -8.621669e-05 3.327424e-04 -2.345183e-04
Al 6.351863e+00 -3.733878e+00 4.997824e+00 2.512572e-04 -3.670631e-05 -4.788256e-05
Ga 6.342176e+00 -3.733385e+00 -5.312337e+00 -3.658334e-04 -2.687961e-04 -1.078159e-05
Ga 6.351146e+00 -3.712594e+00 -1.237228e-01 -2.928647e-04 4.056557e-05 1.286580e-04
Ga 4.762994e+00 -9.588299e-01 4.979918e+00 1.493290e-04 1.399044e-04 1.235657e-04
Ga 4.762759e+00 -9.778198e-01 -5.278805e+00 -2.437339e-04 4.807317e-05 2.672339e-04
Ga 4.769814e+00 -9.753061e-01 -1.382860e-01 -4.342606e-04 3.158492e-04 -4.900663e-05
Al -3.216455e+00 1.818243e+00 5.031808e+00 3.390109e-05 -4.714335e-05 3.783961e-04
Ga -3.192177e+00 1.813596e+00 -5.336910e+00 5.390555e-05 5.452054e-05 3.218167e-04
Al -3.203733e+00 1.801247e+00 -1.344457e-01 -5.837119e-05 1.753546e-04 -1.191743e-04
Al -2.377020e-02 -3.725901e+00 5.000987e+00 -1.903849e-04 5.947148e-05 -9.485408e-05
Ga -2.794829e-03 -3.728494e+00 -5.315105e+00 5.821179e-05 -1.368010e-04 3.873884e-04
Ga -5.842143e-03 -3.714790e+00 -1.211839e-01 -9.658551e-08 1.952527e-04 -1.716874e-04
Ga -1.617535e+00 -9.574108e-01 4.994688e+00 -2.774566e-04 -3.061903e-04 4.382368e-04
Ga -1.613481e+00 -9.459350e-01 -5.313380e+00 -2.572245e-04 1.648620e-04 2.176324e-04
Al -1.617013e+00 -9.600049e-01 -1.205487e-01 -2.741623e-04 -1.258342e-04 2.712110e-05
N 1.564964e+00 9.321042e-01 4.367439e+00 5.518380e-04 -4.599327e-04 -7.212084e-04
N 1.526385e+00 9.010741e-01 -5.990627e+00 1.923808e-04 -1.168345e-04 -3.192683e-04
N 1.566133e+00 8.292247e-01 -7.993910e-01 1.328640e-04 -4.070789e-05 -1.422887e-04
N 1.464567e-02 3.620180e+00 4.366347e+00 -4.680638e-04 -1.185381e-03 -2.928430e-04
N -6.359780e-02 3.611172e+00 -5.961501e+00 -5.319072e-06 -4.120277e-05 -8.474424e-04
N -6.784576e-02 3.660002e+00 -7.535522e-01 -2.298278e-04 -3.376310e-05 -4.445662e-04
N 3.161744e+00 -1.887430e+00 4.315769e+00 2.254631e-04 -1.335070e-04 -2.767790e-04
N 3.172111e+00 -1.931154e+00 -5.912109e+00 -9.888511e-05 -1.886979e-06 -2.049061e-04
N 3.124785e+00 -1.914408e+00 -7.705257e-01 -1.368784e-04 7.643655e-05 -3.798107e-04
N -4.809375e+00 9.417005e-01 4.433940e+00 1.406007e-04 7.686832e-05 -2.324122e-04
N -4.811724e+00 8.746685e-01 -5.932883e+00 3.276613e-04 2.729090e-05 -2.006646e-04
N -4.769628e+00 9.014886e-01 -7.339478e-01 2.755682e-04 7.110828e-05 -2.057730e-04
N -6.408314e+00 3.649596e+00 4.459596e+00 -9.825345e-05 -9.468616e-05 5.207631e-05
N -6.404973e+00 3.642633e+00 -5.951092e+00 1.340289e-04 8.781266e-05 -3.336230e-04
N -6.405337e+00 3.640894e+00 -7.467987e-01 1.361286e-04 4.426775e-05 -7.572773e-05
N -3.209727e+00 -1.928579e+00 4.351341e+00 1.088854e-04 -4.629787e-05 -3.609284e-04
N -3.212230e+00 -1.884330e+00 -5.941178e+00 1.152381e-04 9.930402e-05 -1.780854e-04
N -3.163818e+00 -1.860019e+00 -7.897006e-01 1.794962e-04 1.785458e-04 -1.415870e-04
N -1.624056e+00 9.389071e-01 4.425671e+00 -1.699395e-04 -2.248565e-04 -8.805800e-04
N -1.572608e+00 9.064667e-01 -5.989947e+00 2.755015e-04 -3.049206e-04 -3.965052e-04
N -1.655774e+00 8.537982e-01 -7.178277e-01 1.837239e-04 -7.808652e-05 -3.986895e-04
N -3.253354e+00 3.622103e+00 4.420496e+00 1.183555e-04 -2.127072e-04 -3.900625e-04
N -3.172685e+00 3.669461e+00 -5.990302e+00 -1.950009e-05 -1.344762e-04 -4.367638e-04
N -3.165947e+00 3.621052e+00 -7.199247e-01 -3.846942e-05 -3.444687e-04 -3.992753e-04
N -2.221337e-02 -1.921231e+00 4.344399e+00 2.869106e-04 -1.185464e-04 -5.406536e-04
N -1.556070e-02 -1.879690e+00 -5.931652e+00 6.529929e-05 -1.730639e-04 -2.978752e-04
N -2.062197e-02 -1.828559e+00 -7.108286e-01 -1.032274e-04 2.111214e-05 -2.719337e-04
N 1.629637e-02 1.828075e+00 1.854910e+00 5.262271e-04 5.942728e-05 -7.935477e-05
N -2.329681e-02 1.808447e+00 6.938683e+00 -2.556921e-07 1.624620e-04 -3.406399e-04
N 1.832876e-02 1.768902e+00 -3.396820e+00 1.473438e-05 9.597779e-05 -4.772242e-04
N 3.213073e+00 -3.699419e+00 1.798145e+00 4.142394e-04 -5.167791e-04 2.881425e-04
N 3.175301e+00 -3.768664e+00 6.985734e+00 -5.766426e-04 5.344723e-04 -6.998015e-04
N 3.170229e+00 -3.680686e+00 -3.400742e+00 -1.701789e-04 4.001820e-04 -5.947733e-04
N 1.575522e+00 -9.479825e-01 1.809592e+00 -1.423355e-04 -2.565331e-04 -6.043585e-04
N 1.578040e+00 -9.081806e-01 6.964250e+00 -2.253035e-04 3.364107e-05 -5.545192e-04
N 1.622147e+00 -9.403758e-01 -3.310770e+00 -1.463196e-04 6.563542e-05 -3.548267e-04
N 3.117649e+00 1.785804e+00 1.848120e+00 1.296732e-05 -4.750955e-04 3.442648e-04
N 3.115222e+00 1.775977e+00 6.919782e+00 -1.247663e-04 -1.637008e-04 -2.661817e-04
N 3.121323e+00 1.771726e+00 -3.332254e+00 -1.123170e-04 -8.508582e-05 -1.591352e-04
N 6.317705e+00 -3.695768e+00 1.853831e+00 -1.167702e-03 -9.458266e-04 4.768172e-04
N 6.302529e+00 -3.745107e+00 6.917971e+00 -1.603673e-05 1.321404e-04 -3.799489e-04
N 6.357461e+00 -3.677651e+00 -3.333147e+00 1.180448e-06 1.062295e-04 -2.151596e-04
N 4.769194e+00 -1.002054e+00 1.849396e+00 -2.291468e-04 -7.843789e-04 -1.801337e-04
N 4.756783e+00 -9.612527e-01 6.944710e+00 -3.288019e-04 -1.398622e-04 -4.423459e-04
N 4.764513e+00 -1.016707e+00 -3.288667e+00 -2.673317e-04 -1.636845e-04 -8.428118e-06
N -3.217024e+00 1.806527e+00 1.769673e+00 2.220289e-04 2.401846e-05 7.290818e-05
N -3.175540e+00 1.831062e+00 6.952754e+00 1.155932e-04 6.514744e-05 -1.504978e-04
N -3.210038e+00 1.802089e+00 -3.357115e+00 -4.961610e-05 2.620809e-05 -2.817185e-04
N -2.396331e-02 -3.674479e+00 1.848468e+00 -7.417792e-05 -1.397206e-04 7.195170e-05
N 2.157849e-02 -3.737821e+00 6.919914e+00 2.108717e-04 5.241041e-05 -3.068054e-04
N -1.416918e-02 -3.722230e+00 -3.336529e+00 -7.057366e-06 1.218904e-04 -9.706699e-05
N -1.621250e+00 -1.004185e+00 1.807837e+00 -1.321729e-04 -6.060525e-05 2.543120e-05
N -1.618989e+00 -9.064237e-01 6.969998e+00 -1.277143e-04 2.006124e-06 -3.626703e-04
N -1.655959e+00 -9.832338e-01 -3.332846e+00 -2.612185e-04 -9.351163e-05 -3.167712e-04
