108
Energy=-1031745.364470 Lattice="9.467846 0.000000 0.000000 -4.736044 8.195159 0.000000 -0.001459 -0.004794 15.251792" Stress="0.000003 -0.000001 -0.000000 -0.000001 -0.000001 -0.000001 -0.000000 -0.000001 0.000009" Properties=species:S:1:pos:R:3:forces:R:3
Al 1.552346 0.876158 2.395921 0.000050 -0.000014 -0.000011
Al 1.547801 0.873896 7.467483 0.000003 0.000098 0.000042
Al 1.538511 0.866777 -2.689266 -0.000163 -0.000153 0.000017
Al -0.030529 3.583901 2.433309 0.000549 0.000328 -0.000216
Al -0.018495 3.595961 7.467731 0.000077 -0.000024 0.000052
Al -0.026707 3.591013 -2.723435 0.000263 0.000064 -0.000046
Al 3.123905 -1.860571 2.427547 -0.000338 -0.000326 -0.000258
Al 3.140919 -1.860957 7.476714 0.000221 -0.000079 0.000106
Al 3.128556 -1.853563 -2.723244 0.000304 -0.000395 0.000269
Al -4.763414 0.883174 2.419592 -0.000068 0.000191 0.000003
Al -4.757897 0.862073 7.456781 -0.000039 -0.000020 0.000015
Ga -4.753129 0.867404 -2.690150 0.000066 -0.000006 0.000000
Al -6.327128 3.587931 2.424488 -0.000158 0.000149 -0.000108
Al -6.343618 3.603112 7.453840 -0.000048 -0.000029 -0.000138
Ga -6.344808 3.603434 -2.686976 -0.000058 0.000034 -0.000001
Ga -3.178720 -1.859519 2.453403 0.000076 -0.000130 -0.000072
Al -3.177459 -1.862313 7.458976 -0.000032 -0.000000 -0.000055
Ga -3.187214 -1.860522 -2.729260 -0.000048 -0.000021 -0.000048
Al -1.592583 0.886498 2.422359 -0.000006 -0.000343 -0.000120
Al -1.594140 0.865598 7.465398 0.000117 -0.000063 0.000036
Al -1.588539 0.886405 -2.708953 0.000033 0.000080 -0.000003
Al -3.182191 3.598952 2.420327 0.000017 0.000149 -0.000085
Ga -3.177721 3.600983 7.467245 0.000013 0.000012 0.000050
Ga -3.167460 3.600532 -2.699752 -0.000015 0.000003 -0.000054
Al -0.011194 -1.863932 2.409481 0.000141 -0.000145 -0.000072
Al -0.030047 -1.857141 7.480803 -0.000025 -0.000160 0.000029
Ga -0.007268 -1.846244 -2.703272 -0.000014 -0.000074 0.000012
Al -0.027259 1.786126 4.943932 0.000040 0.000035 0.000051
Al -0.031339 1.782093 -5.250883 -0.000051 0.000036 -0.000038
Al -0.023490 1.776411 -0.145885 0.000056 0.000207 -0.000072
Al 3.142093 -3.690025 4.934758 -0.000006 0.000052 0.000078
Al 3.145271 -3.674848 -5.248116 -0.000130 -0.000131 -0.000131
Ga 3.129727 -3.684816 -0.132155 0.000039 0.000016 0.000017
Ga 1.553701 -0.950733 4.947060 -0.000064 0.000056 -0.000011
Al 1.555849 -0.949552 -5.264251 -0.000061 0.000025 -0.000108
Al 1.558356 -0.941460 -0.128829 -0.000250 0.000069 0.000092
Al 3.134819 1.785501 4.940838 0.000108 0.000075 0.000074
Ga 3.128887 1.782758 -5.260742 0.000003 -0.000027 -0.000014
Al 3.126199 1.778527 -0.121845 0.000127 -0.000019 -0.000085
Al 6.288756 -3.694529 4.955508 0.000014 0.000047 -0.000049
Al 6.284745 -3.676818 -5.278742 -0.000069 0.000026 -0.000034
Ga 6.289981 -3.704089 -0.117788 -0.000015 -0.000107 0.000067
Al 4.711319 -0.946079 4.957763 -0.000331 -0.000008 0.000096
Al 4.713003 -0.953999 -5.274924 0.000033 -0.000204 -0.000062
Ga 4.691906 -0.937525 -0.122744 -0.000009 -0.000002 -0.000105
Al -3.178396 1.776201 4.930589 -0.000066 -0.000024 0.000011
Al -3.165386 1.775189 -5.262007 0.000127 0.000087 -0.000050
Al -3.175089 1.785981 -0.113674 -0.000197 -0.000044 0.000016
Al -0.028900 -3.686837 4.932341 -0.000082 -0.000046 0.000038
Al -0.023579 -3.670002 -5.269152 0.000296 -0.000030 0.000028
Al -0.017263 -3.689694 -0.103734 0.000011 -0.000027 0.000037
Al -1.598240 -0.945556 4.956594 0.000000 0.000020 0.000085
Al -1.598581 -0.939706 -5.271739 -0.000065 0.000007 -0.000092
Ga -1.584927 -0.929831 -0.128899 0.000018 -0.000035 0.000008
N 1.552937 0.919411 4.314478 -0.000146 -0.000106 -0.000098
N 1.508342 0.854435 -5.878552 0.000063 0.000007 0.000011
N 1.550931 0.869047 -0.747411 -0.000035 0.000018 0.000028
N -0.022671 3.595040 4.345894 -0.000014 0.000029 0.000017
N -0.027051 3.599365 -5.863043 0.000028 -0.000027 0.000025
N -0.024623 3.556127 -0.803622 -0.000040 -0.000202 0.000045
N 3.172559 -1.883163 4.330813 0.000184 0.000113 0.000348
N 3.133885 -1.861818 -5.860656 -0.000006 -0.000027 0.000076
N 3.088785 -1.836511 -0.800819 0.000256 -0.000084 -0.000249
N -4.760453 0.871568 4.340773 0.000010 0.000008 -0.000008
N -4.714370 0.853153 -5.882935 -0.000125 0.000121 -0.000227
N -4.753022 0.922925 -0.710449 -0.000109 0.000103 0.000078
N -6.336100 3.597713 4.342971 -0.000016 0.000046 0.000050
N -6.333953 3.651086 -5.889025 -0.000165 -0.000057 -0.000007
N -6.291891 3.581706 -0.708757 0.000032 -0.000073 0.000000
N -3.177932 -1.861490 4.425187 0.000132 -0.000211 -0.000061
N -3.175403 -1.856584 -5.867583 0.000023 -0.000026 0.000032
N -3.179362 -1.861318 -0.754622 0.000001 0.000108 -0.000012
N -1.596802 0.872314 4.339887 0.000078 -0.000029 0.000022
N -1.596068 0.877920 -5.871082 0.000088 -0.000056 0.000012
N -1.605618 0.926040 -0.779984 0.000268 -0.000119 -0.000086
N -3.181256 3.601039 4.343296 0.000024 -0.000038 0.000068
N -3.174603 3.605655 -5.806404 0.000034 0.000189 0.000002
N -3.222564 3.578286 -0.714742 0.000018 0.000029 -0.000009
N -0.062876 -1.883316 4.319344 0.000128 -0.000032 0.000039
N -0.022236 -1.855573 -5.855932 0.000054 -0.000060 0.000033
N 0.022020 -1.888211 -0.715944 0.000050 0.000022 0.000007
N -0.026314 1.782892 1.785104 -0.000011 -0.000001 0.000027
N -0.024411 1.779918 6.859122 -0.000022 -0.000005 0.000022
N -0.019991 1.778084 -3.320802 -0.000004 -0.000063 0.000025
N 3.138186 -3.683851 1.856465 -0.000109 0.000189 0.000112
N 3.177740 -3.660770 6.847367 -0.000151 0.000095 -0.000132
N 3.177274 -3.656344 -3.328098 -0.000126 0.000314 0.000018
N 1.560322 -0.949981 1.801361 -0.000048 0.000063 0.000040
N 1.555983 -0.954333 6.921818 -0.000271 0.000020 -0.000137
N 1.596809 -0.919220 -3.342665 -0.000277 0.000340 -0.000078
N 3.131250 1.779605 1.802355 -0.000027 0.000006 0.000022
N 3.130640 1.777529 6.864321 0.000021 -0.000023 0.000038
N 3.088215 1.756587 -3.291318 0.000085 -0.000001 -0.000042
N 6.287139 -3.731795 1.856087 -0.000377 -0.000296 0.000182
N 6.285947 -3.688756 6.870857 0.000019 -0.000019 0.000020
N 6.251865 -3.709400 -3.364731 -0.000087 -0.000083 0.000102
N 4.668430 -0.928235 1.848670 0.000230 0.000058 -0.000052
N 4.706612 -0.952135 6.871983 -0.000063 0.000014 0.000034
N 4.668776 -0.965889 -3.363567 -0.000057 -0.000074 0.000115
N -3.175250 1.778745 1.814910 0.000033 -0.000053 0.000051
N -3.176346 1.731341 6.840873 -0.000040 0.000064 -0.000016
N -3.137836 1.755981 -3.353033 -0.000017 -0.000020 0.000109
N -0.021606 -3.685948 1.817834 0.000058 0.000013 0.000040
N -0.061470 -3.656955 6.844270 0.000138 0.000208 0.000018
N -0.024695 -3.680331 -3.366700 -0.000021 0.000016 0.000030
N -1.560949 -0.921967 1.843977 -0.000111 0.000445 0.000029
N -1.594289 -0.948967 6.874525 0.000013 0.000014 0.000023
N -1.595637 -0.897082 -3.352391 0.000011 -0.000041 0.000075
