108
Energy=-1809928.793259 Lattice="9.561978 0.000000 0.000000 -4.783284 8.279669 0.000000 -0.006306 0.002669 15.469863" Stress="0.000001 -0.000000 -0.000001 -0.000000 0.000000 0.000001 -0.000001 0.000001 0.000000" Properties=species:S:1:pos:R:3:forces:R:3
Al 1.578452 0.895165 2.443414 0.000028 0.000045 -0.000010
Al 1.579103 0.886670 7.581539 0.000092 -0.000025 0.000068
Ga 1.569846 0.875091 -2.728323 0.000058 0.000004 0.000026
Al -0.026422 3.643705 2.440388 -0.000288 -0.000027 0.000453
Al -0.013237 3.652319 7.572047 0.000036 0.000017 0.000067
Ga -0.015999 3.641447 -2.722370 0.000018 0.000006 0.000092
Al 3.178525 -1.880559 2.435479 0.000066 0.000079 0.000116
Ga 3.170812 -1.876454 7.579414 0.000023 0.000020 0.000040
Al 3.167478 -1.877117 -2.720916 0.000025 0.000022 0.000140
Al -4.822299 0.875992 2.429904 0.000045 0.000123 0.000111
Al -4.815145 0.880292 7.584470 0.000039 0.000016 0.000022
Ga -4.798490 0.876566 -2.722650 0.000093 -0.000001 0.000064
Al -6.414587 3.619582 2.472736 0.000011 0.000023 0.000164
Ga -6.426451 3.631994 7.577164 -0.000019 -0.000002 0.000024
Al -6.400870 3.646519 -2.755771 0.000027 0.000023 0.000037
Ga -3.219689 -1.876126 2.440928 0.000047 0.000055 0.000200
Al -3.210813 -1.887608 7.578630 -0.000014 0.000033 0.000056
Ga -3.210426 -1.884486 -2.732053 0.000012 0.000035 0.000095
Al -1.612097 0.883457 2.463019 0.000050 0.000091 0.000144
Ga -1.627389 0.873698 7.587932 0.000147 -0.000061 0.000064
Al -1.622230 0.878817 -2.758087 0.000086 -0.000043 0.000059
Ga -3.193293 3.642585 2.430866 0.000076 0.000062 0.000093
Ga -3.205783 3.632885 7.596986 0.000116 -0.000042 0.000052
Ga -3.212274 3.635164 -2.729311 0.000027 -0.000051 0.000091
Ga -0.024753 -1.865696 2.445052 -0.000024 -0.000048 0.000140
Ga -0.033980 -1.863430 7.610916 0.000091 -0.000067 0.000073
Ga -0.019070 -1.878689 -2.757887 0.000038 -0.000059 0.000007
Ga -0.015737 1.814082 5.005551 -0.000106 0.000198 0.000045
Ga -0.022087 1.795781 -5.330043 -0.000050 0.000085 0.000070
Ga -0.041236 1.802807 -0.116805 -0.000068 0.000037 0.000021
Al 3.184352 -3.717763 5.006454 0.000006 0.000095 -0.000055
Ga 3.167340 -3.719172 -5.302511 -0.000050 0.000086 0.000144
Al 3.177318 -3.700103 -0.141890 -0.000094 0.000107 0.000123
Ga 1.574969 -0.952654 4.997909 -0.000067 0.000037 0.000050
Al 1.568783 -0.962942 -5.307383 -0.000044 0.000058 0.000049
Ga 1.597892 -0.972037 -0.125769 -0.000166 0.000157 -0.000025
Al 3.156834 1.799032 5.003722 0.000235 0.000041 0.000176
Ga 3.171144 1.804861 -5.316467 -0.000015 -0.000004 0.000079
Ga 3.167759 1.808000 -0.127160 0.000006 0.000077 0.000098
Al 6.343037 -3.721152 5.003500 -0.000298 0.000008 -0.000024
Al 6.366051 -3.710745 -5.323823 0.000003 -0.000016 0.000071
Ga 6.351236 -3.723099 -0.124772 0.000042 0.000035 0.000077
Ga 4.763291 -0.960465 5.015890 -0.000112 0.000004 0.000051
Ga 4.773157 -0.961837 -5.327018 -0.000095 0.000002 0.000068
Al 4.743470 -0.970287 -0.132406 -0.000087 0.000043 0.000121
Ga -3.220451 1.794290 4.996610 -0.000030 0.000044 0.000138
Al -3.212841 1.793787 -5.309714 -0.000018 -0.000019 0.000046
Ga -3.201290 1.789487 -0.125774 -0.000060 0.000037 0.000111
Ga -0.036069 -3.719866 5.008715 0.000064 0.000001 0.000188
Al -0.028020 -3.716709 -5.305819 -0.000001 -0.000012 0.000015
Ga -0.029748 -3.727024 -0.138503 0.000023 0.000087 0.000114
Al -1.627246 -0.963739 5.021235 -0.000059 0.000019 0.000145
Al -1.618372 -0.968327 -5.311136 -0.000053 0.000004 0.000046
Ga -1.624778 -0.945061 -0.150286 -0.000047 0.000076 0.000064
N 1.608716 0.908886 4.353636 0.000132 -0.000056 -0.000021
N 1.577790 0.831075 -5.969490 0.000078 -0.000022 -0.000058
N 1.565497 0.880536 -0.753580 0.000127 -0.000053 -0.000037
N -0.028866 3.691050 4.363327 0.000565 0.000145 0.000233
N 0.021710 3.670100 -5.975177 0.000045 -0.000033 -0.000108
N -0.060627 3.661025 -0.744250 0.000021 0.000034 -0.000037
N 3.170554 -1.927618 4.356218 0.000098 -0.000033 -0.000137
N 3.125350 -1.859547 -5.925773 0.000059 -0.000046 -0.000121
N 3.207525 -1.900993 -0.791195 0.000076 -0.000054 -0.000023
N -4.853470 0.899285 4.345885 -0.000120 -0.000011 0.000014
N -4.763596 0.905638 -5.970138 0.000077 0.000010 -0.000037
N -4.803677 0.832624 -0.740646 0.000079 -0.000042 -0.000128
N -6.446922 3.612187 4.394079 -0.000258 0.000053 -0.000079
N -6.398997 3.685918 -5.913856 0.000005 0.000001 -0.000053
N -6.403696 3.642137 -0.838105 -0.000046 -0.000059 -0.000101
N -3.171517 -1.902279 4.420546 0.000043 -0.000087 -0.000047
N -3.160550 -1.907768 -5.961072 0.000058 0.000014 -0.000051
N -3.253577 -1.860426 -0.746048 -0.000005 -0.000031 -0.000106
N -1.615022 0.832154 4.376271 0.000112 -0.000161 -0.000177
N -1.659873 0.851487 -5.904681 0.000116 -0.000049 -0.000080
N -1.617827 0.885786 -0.842480 0.000105 -0.000066 -0.000030
N -3.165924 3.670601 4.405666 -0.000019 -0.000175 -0.000075
N -3.248389 3.615719 -5.887841 0.000048 -0.000057 -0.000077
N -3.169112 3.661626 -0.738215 0.000096 -0.000057 -0.000135
N -0.068011 -1.851502 4.412217 0.000059 -0.000072 -0.000110
N -0.021322 -1.877190 -5.865498 0.000047 -0.000034 -0.000024
N -0.017761 -1.877030 -0.775354 0.000052 -0.000125 -0.000062
N -0.030040 1.801515 1.881456 0.000025 -0.000061 -0.000263
N 0.015477 1.826161 6.999315 -0.000065 0.000054 -0.000113
N -0.059238 1.779897 -3.351430 -0.000074 0.000055 -0.000056
N 3.213384 -3.687821 1.783492 -0.000028 -0.000058 -0.000206
N 3.205835 -3.744378 6.927468 -0.000062 0.000026 -0.000103
N 3.170398 -3.673103 -3.330321 -0.000042 0.000035 -0.000117
N 1.619237 -0.934647 1.859010 -0.000131 -0.000032 -0.000031
N 1.566994 -0.911760 6.971604 -0.000150 0.000084 -0.000090
N 1.621733 -0.981657 -3.387703 -0.000086 0.000041 -0.000046
N 3.162732 1.809514 1.859631 -0.000061 -0.000131 -0.000091
N 3.161904 1.750578 6.937381 -0.000046 -0.000029 -0.000181
N 3.166450 1.842040 -3.341158 -0.000042 -0.000018 -0.000041
N 6.358177 -3.770681 1.857049 0.000009 -0.000033 -0.000120
N 6.306335 -3.693876 6.928776 -0.000004 -0.000097 -0.000216
N 6.389701 -3.741222 -3.401092 -0.000021 -0.000030 -0.000053
N 4.714368 -0.937057 1.796074 -0.000033 -0.000120 -0.000086
N 4.800590 -0.933304 7.001013 -0.000025 -0.000033 -0.000082
N 4.720242 -0.984308 -3.349062 -0.000096 -0.000033 -0.000119
N -3.207117 1.747831 1.860201 -0.000054 -0.000062 -0.000145
N -3.257765 1.775974 6.968597 -0.000063 -0.000003 -0.000062
N -3.175814 1.775973 -3.390576 -0.000073 0.000026 -0.000062
N -0.074121 -3.747122 1.844737 -0.000006 -0.000082 -0.000153
N -0.026611 -3.716562 6.975724 -0.000049 0.000013 -0.000054
N -0.059093 -3.746870 -3.388951 -0.000020 0.000006 -0.000053
N -1.619429 -0.903706 1.820603 -0.000040 -0.000008 -0.000179
N -1.659548 -0.983569 6.935018 -0.000085 0.000025 -0.000061
N -1.622202 -0.917299 -3.393423 -0.000089 0.000019 -0.000040
