108
Energy=-1.352174e+06 Lattice="9.506796e+00 0.000000e+00 0.000000e+00 -4.758968e+00 8.224473e+00 0.000000e+00 9.679075e-04 -4.921726e-03 1.534505e+01" Stress="-6.081347e-04 1.857920e-04 1.117857e-04 1.852067e-04 -2.009657e-03 -2.255178e-04 1.356713e-04 -2.209626e-04 2.069799e-03" Properties=species:S:1:pos:R:3:forces:R:3 Config_type=AlGaN_super3_20_2_11.xyz
Al 1.578079e+00 8.756696e-01 2.411357e+00 8.698071e-04 2.997044e-04 6.019363e-04
Al 1.577676e+00 8.677096e-01 7.533407e+00 -3.752512e-04 3.085546e-04 1.985182e-05
Al 1.557987e+00 8.708004e-01 -2.709096e+00 -4.197182e-05 -3.547719e-04 -5.992121e-04
Al -2.945351e-02 3.618132e+00 2.417052e+00 -5.185359e-04 -2.190728e-04 8.888859e-04
Al -1.476032e-02 3.626514e+00 7.546026e+00 4.117310e-04 5.524162e-04 3.835006e-06
Al -3.587509e-02 3.608545e+00 -2.731150e+00 -1.076810e-04 1.147547e-03 1.552091e-03
Al 3.161477e+00 -1.868290e+00 2.385797e+00 -4.608075e-04 -2.512987e-04 2.075646e-04
Al 3.149507e+00 -1.870909e+00 7.568094e+00 4.260846e-04 -5.088756e-05 2.262688e-04
Ga 3.144464e+00 -1.870110e+00 -2.734596e+00 3.605957e-04 1.739671e-04 1.237024e-03
Al -4.798671e+00 8.622479e-01 2.388831e+00 5.794971e-04 4.226300e-03 4.678893e-04
Al -4.790669e+00 8.706262e-01 7.536015e+00 3.505776e-04 3.543591e-05 2.889985e-04
Al -4.778996e+00 8.762769e-01 -2.696254e+00 9.284539e-04 -1.246297e-05 -2.813016e-04
Ga -6.368917e+00 3.590582e+00 2.419916e+00 8.610677e-04 4.249993e-04 2.114981e-03
Al -6.359253e+00 3.619234e+00 7.521186e+00 1.846510e-04 -8.474219e-04 4.246014e-04
Ga -6.354051e+00 3.611291e+00 -2.719599e+00 -3.806577e-04 1.032663e-03 7.946984e-04
Ga -3.206455e+00 -1.858043e+00 2.407807e+00 6.575430e-04 -7.276956e-04 2.243480e-03
Al -3.185939e+00 -1.876909e+00 7.540451e+00 -7.430767e-05 -2.032329e-04 4.115965e-04
Ga -3.185414e+00 -1.851396e+00 -2.729596e+00 -2.069425e-04 -1.565173e-03 2.220092e-03
Ga -1.620780e+00 8.786701e-01 2.405689e+00 5.334873e-04 9.720163e-04 1.611220e-04
Ga -1.608862e+00 8.694395e-01 7.541422e+00 5.471263e-04 -4.500763e-04 -1.321832e-04
Al -1.610835e+00 8.773905e-01 -2.705333e+00 1.082702e-03 -6.658211e-04 -1.249494e-03
Ga -3.197095e+00 3.624677e+00 2.385470e+00 1.329140e-03 -1.930719e-03 1.832429e-03
Al -3.201131e+00 3.632336e+00 7.545854e+00 -4.119700e-04 3.949723e-04 1.072958e-05
Al -3.187746e+00 3.622188e+00 -2.712462e+00 -4.400975e-04 -1.124314e-04 9.038730e-04
Ga -2.553623e-02 -1.861020e+00 2.411366e+00 1.138405e-03 -1.180433e-03 3.161701e-03
Al -2.170957e-02 -1.874180e+00 7.540323e+00 6.144729e-04 -8.391967e-04 4.736921e-04
Al -1.598489e-02 -1.858690e+00 -2.726717e+00 -3.303859e-04 -5.134282e-04 -4.432732e-04
Ga -4.079506e-04 1.790932e+00 4.976795e+00 -1.832782e-03 1.037149e-03 3.639334e-04
Ga -1.042292e-02 1.787815e+00 -5.246123e+00 -3.346163e-04 7.373571e-04 6.302637e-04
Ga -2.819305e-02 1.790324e+00 -1.626884e-01 -4.592564e-05 7.558787e-04 4.463351e-04
Ga 3.154698e+00 -3.693973e+00 4.988115e+00 -8.375696e-05 1.759966e-04 1.941006e-03
Al 3.149997e+00 -3.689389e+00 -5.276166e+00 -1.499961e-04 4.415462e-04 9.257490e-04
Al 3.150592e+00 -3.699741e+00 -1.628941e-01 -1.220444e-03 5.255473e-05 4.859389e-04
Ga 1.566038e+00 -9.605828e-01 4.984776e+00 -6.420843e-04 8.502924e-04 3.005228e-04
Al 1.553035e+00 -9.654340e-01 -5.275452e+00 7.447415e-04 -1.501663e-03 1.779566e-03
Ga 1.569948e+00 -9.631212e-01 -1.556984e-01 -2.174226e-03 6.069465e-04 1.352991e-03
Al 3.147372e+00 1.789976e+00 4.992299e+00 -3.040654e-04 2.128666e-03 -3.300540e-04
Ga 3.147475e+00 1.777997e+00 -5.274929e+00 1.934143e-04 1.311225e-03 1.827600e-03
Al 3.160810e+00 1.775281e+00 -1.634944e-01 -6.001643e-04 6.428023e-04 1.889030e-03
Al 6.332733e+00 -3.698862e+00 4.999989e+00 -8.558801e-04 5.908436e-04 -1.048220e-03
Al 6.320596e+00 -3.679847e+00 -5.287992e+00 -3.225135e-04 -1.483319e-03 1.324103e-03
Ga 6.312520e+00 -3.691473e+00 -1.522947e-01 -1.400378e-04 -6.434218e-04 -9.419671e-04
Ga 4.734204e+00 -9.544120e-01 4.986692e+00 -3.932954e-04 3.159927e-04 6.518156e-04
Al 4.733518e+00 -9.601960e-01 -5.283522e+00 -3.076070e-05 -1.047260e-03 3.567541e-04
Al 4.736385e+00 -9.373836e-01 -1.565961e-01 -1.247910e-03 -5.502515e-05 1.394302e-03
Ga -3.221821e+00 1.793951e+00 4.988874e+00 1.057263e-04 4.881571e-05 -2.124988e-04
Ga -3.200214e+00 1.793946e+00 -5.249956e+00 -7.571933e-04 5.084763e-04 1.098842e-03
Al -3.200683e+00 1.784384e+00 -1.967843e-01 -3.521702e-03 2.408404e-03 4.319051e-03
Al -3.875262e-02 -3.687911e+00 5.004377e+00 1.806832e-04 -8.991120e-04 1.327971e-03
Al -1.490384e-02 -3.673303e+00 -5.279748e+00 -8.481503e-04 -1.244104e-03 1.542611e-03
Al -1.506216e-02 -3.696372e+00 -1.806788e-01 2.902670e-04 5.738474e-04 4.887982e-04
Al -1.607179e+00 -9.709203e-01 4.997625e+00 -1.128966e-03 6.837738e-04 1.475579e-03
Al -1.601814e+00 -9.717417e-01 -5.260933e+00 -4.085414e-05 -7.314301e-04 4.089110e-04
Al -1.609512e+00 -9.491460e-01 -1.797602e-01 3.354651e-04 -6.950125e-04 4.909711e-04
N 1.610485e+00 8.941523e-01 4.330989e+00 2.202400e-04 -5.776992e-05 -6.950958e-04
N 1.562451e+00 8.211110e-01 -5.906308e+00 -2.964778e-04 1.824381e-03 -1.168024e-03
N 1.597893e+00 8.921166e-01 -8.026325e-01 1.321679e-03 2.135321e-04 -1.934599e-05
N 1.489864e-02 3.645361e+00 4.333664e+00 1.155499e-03 -1.905596e-04 -2.154405e-04
N -2.165104e-02 3.657826e+00 -5.885728e+00 1.351554e-04 8.549053e-04 -7.642895e-04
N -6.762837e-02 3.641217e+00 -8.193342e-01 6.913570e-04 -6.839214e-05 -6.051847e-04
N 3.149900e+00 -1.872445e+00 4.298640e+00 1.362970e-03 6.752239e-05 -3.447375e-04
N 3.143881e+00 -1.867215e+00 -5.855729e+00 5.083577e-04 -1.387623e-04 -2.580265e-04
N 3.190368e+00 -1.890142e+00 -7.479479e-01 1.739378e-03 -5.149162e-04 -5.781710e-04
N -4.829340e+00 8.955866e-01 4.315021e+00 1.625471e-03 -6.379418e-04 -5.966901e-04
N -4.775117e+00 8.285636e-01 -5.910065e+00 4.951798e-04 8.879961e-04 -9.269387e-04
N -4.782647e+00 8.701638e-01 -7.762502e-01 1.000347e-03 -2.252755e-04 -1.416483e-03
N -6.359125e+00 3.613188e+00 4.425390e+00 -4.203660e-04 -6.222054e-04 -4.456729e-04
N -6.358616e+00 3.657800e+00 -5.894450e+00 2.076352e-04 1.390411e-03 -1.132643e-03
N -6.326345e+00 3.591452e+00 -7.398451e-01 -5.796148e-06 -5.804449e-04 -1.001086e-03
N -3.151863e+00 -1.888179e+00 4.398397e+00 4.242600e-04 -9.376790e-04 -9.742943e-04
N -3.185636e+00 -1.865141e+00 -5.875679e+00 3.963696e-04 5.331763e-04 -5.944271e-04
N -3.194110e+00 -1.819973e+00 -7.441298e-01 -3.631885e-04 4.757672e-04 -1.658462e-03
N -1.619702e+00 8.330742e-01 4.389176e+00 1.274021e-03 -1.469284e-03 2.058963e-04
N -1.606132e+00 8.284713e-01 -5.839419e+00 -6.057395e-04 1.917464e-04 -4.640498e-04
N -1.652911e+00 8.545556e-01 -7.876333e-01 2.016002e-03 -1.105740e-03 -1.369735e-03
N -3.239872e+00 3.649894e+00 4.373333e+00 -7.231878e-04 -1.128082e-06 -1.594010e-03
N -3.197072e+00 3.665580e+00 -5.884786e+00 2.203532e-04 -1.463772e-04 -7.835361e-04
N -3.191423e+00 3.626223e+00 -7.772329e-01 5.519614e-04 -9.583521e-04 -9.702687e-04
N -6.601311e-02 -1.886272e+00 4.400016e+00 3.876728e-04 -1.390124e-03 -1.168277e-03
N -2.720072e-02 -1.863841e+00 -5.880113e+00 3.202351e-04 -1.540149e-04 -8.291795e-04
N -6.293934e-02 -1.886339e+00 -8.044143e-01 9.235161e-04 -2.517755e-04 -4.766929e-04
N 1.683805e-02 1.808078e+00 1.830227e+00 7.584887e-05 3.877507e-04 -4.767239e-04
N 2.238310e-02 1.815579e+00 6.956002e+00 6.459261e-04 -9.720539e-04 3.265231e-04
N -2.104943e-02 1.786090e+00 -3.263547e+00 -3.433395e-04 -7.465533e-04 -4.576462e-04
N 3.193470e+00 -3.681840e+00 1.766664e+00 8.142311e-05 1.273043e-03 -1.178094e-03
N 3.154152e+00 -3.694472e+00 6.978931e+00 -9.949032e-05 3.503274e-04 -2.101718e-04
N 3.148124e+00 -3.744592e+00 -3.355817e+00 -4.163361e-04 -1.322623e-04 -1.560118e-03
N 1.600464e+00 -9.344981e-01 1.836218e+00 -2.546929e-04 3.692622e-04 -2.970370e-03
N 1.572005e+00 -9.626071e-01 6.975126e+00 -7.033271e-04 1.602942e-04 -5.489292e-04
N 1.524563e+00 -9.272848e-01 -3.348982e+00 -6.584707e-04 -4.631058e-04 -5.302869e-04
N 3.143456e+00 1.737440e+00 1.763052e+00 -9.220077e-04 3.662927e-04 -1.465036e-03
N 3.148254e+00 1.783446e+00 6.921840e+00 -4.474337e-04 3.707552e-04 -7.257099e-04
N 3.147045e+00 1.739823e+00 -3.298514e+00 -3.345938e-04 -7.345277e-04 -7.428472e-04
N 6.275284e+00 -3.720721e+00 1.815526e+00 9.734758e-04 4.052156e-04 1.726433e-04
N 6.319259e+00 -3.696423e+00 6.929051e+00 -4.314521e-04 2.434122e-04 -8.848596e-04
N 6.278410e+00 -3.718332e+00 -3.367163e+00 7.836461e-04 6.569027e-04 -1.024665e-03
N 4.692714e+00 -9.210517e-01 1.768246e+00 7.184746e-05 -3.550957e-03 -5.520306e-04
N 4.731434e+00 -9.583872e-01 6.976484e+00 -4.852030e-04 -6.576007e-04 -6.373498e-05
N 4.734643e+00 -9.002889e-01 -3.370674e+00 -7.055967e-04 1.834271e-04 -1.269296e-03
N -3.241820e+00 1.766148e+00 1.742468e+00 -3.419405e-04 -3.296718e-04 -1.689536e-03
N -3.238773e+00 1.816842e+00 6.967005e+00 -2.078627e-04 -4.470157e-04 -1.007304e-03
N -3.198463e+00 1.792990e+00 -3.264682e+00 -4.664846e-04 -1.085529e-04 1.889978e-03
N -2.888514e-02 -3.690730e+00 1.733381e+00 -1.357138e-03 2.623677e-04 -1.829163e-03
N -1.729668e-02 -3.692338e+00 6.930636e+00 -1.765090e-04 3.867783e-04 -5.071978e-04
N 2.294148e-02 -3.668633e+00 -3.350391e+00 8.509350e-04 2.383309e-04 -9.854951e-04
N -1.604781e+00 -9.512982e-01 1.732150e+00 -1.417510e-03 -3.960723e-04 -2.063086e-03
N -1.603214e+00 -1.003457e+00 6.913328e+00 -6.816279e-04 -1.979331e-04 2.020960e-05
N -1.560970e+00 -9.304214e-01 -3.344140e+00 -2.966974e-04 8.787769e-04 -6.539691e-04
