108
Energy=-1.626827e+06 Lattice="9.539356e+00 0.000000e+00 0.000000e+00 -4.769545e+00 8.260758e+00 0.000000e+00 -1.406863e-02 1.994212e-03 1.541484e+01" Stress="-1.277093e-05 1.190688e-05 -5.508667e-04 2.041647e-05 1.866682e-04 5.696323e-05 -5.593192e-04 5.184990e-05 -1.685238e-04" Properties=species:S:1:pos:R:3:forces:R:3 Config_type=AlGaN_super3_26_0_46.xyz
Al 1.568538e+00 8.678607e-01 2.435802e+00 4.129308e-07 1.440999e-04 2.786092e-05
Al 1.555457e+00 8.831102e-01 7.548070e+00 5.133115e-05 -1.321904e-04 -1.369358e-04
Al 1.576001e+00 8.695456e-01 -2.723657e+00 -3.529459e-05 1.731651e-05 4.396684e-05
Al -1.709768e-02 3.648202e+00 2.428265e+00 6.279605e-05 -6.422985e-04 -2.797287e-05
Al -9.492905e-03 3.631828e+00 7.514983e+00 -3.115500e-05 -3.452032e-05 -7.117365e-06
Ga -1.196047e-02 3.631247e+00 -2.683593e+00 -4.587674e-05 -1.915960e-06 4.064864e-05
Al 3.162235e+00 -1.865193e+00 2.407564e+00 -2.872707e-04 1.991529e-04 -9.910390e-05
Ga 3.150215e+00 -1.868883e+00 7.550554e+00 -6.684112e-05 7.227396e-05 3.079902e-05
Ga 3.166144e+00 -1.850124e+00 -2.697895e+00 9.608894e-06 -6.826582e-07 1.543750e-05
Al -4.800004e+00 8.585473e-01 2.396346e+00 -5.523029e-05 5.149547e-05 4.303145e-05
Ga -4.813706e+00 8.715401e-01 7.585443e+00 -5.041372e-05 1.555176e-05 5.334789e-06
Al -4.791744e+00 8.627348e-01 -2.715257e+00 2.487580e-05 5.156265e-05 -2.213858e-05
Ga -6.410614e+00 3.631842e+00 2.440468e+00 -6.817248e-06 -2.944187e-05 3.135355e-05
Al -6.403401e+00 3.640805e+00 7.537817e+00 9.702591e-05 -8.974602e-06 -2.846943e-04
Ga -6.395221e+00 3.618015e+00 -2.710740e+00 -4.658591e-05 1.014649e-06 4.836346e-05
Al -3.222396e+00 -1.880001e+00 2.398698e+00 -7.941960e-05 -1.321493e-04 7.079167e-05
Al -3.207867e+00 -1.891613e+00 7.553133e+00 -2.956971e-05 1.665241e-05 1.285125e-05
Al -3.207535e+00 -1.858820e+00 -2.690447e+00 -2.746669e-05 9.354130e-06 2.441556e-05
Ga -1.616701e+00 8.735762e-01 2.413118e+00 2.538822e-05 6.207594e-05 -1.593688e-05
Ga -1.594554e+00 8.751299e-01 7.546134e+00 -1.966876e-05 3.087601e-05 4.794242e-06
Al -1.616241e+00 8.676955e-01 -2.687714e+00 -3.523407e-05 1.722862e-05 2.433983e-05
Ga -3.192413e+00 3.630075e+00 2.427755e+00 -6.043913e-05 -1.818444e-05 1.157913e-04
Ga -3.208643e+00 3.647344e+00 7.533524e+00 -9.882581e-05 1.083675e-05 1.037946e-05
Ga -3.191771e+00 3.617319e+00 -2.682700e+00 -1.935098e-05 -7.855062e-07 2.505154e-05
Ga -1.803293e-02 -1.858004e+00 2.426511e+00 -1.150562e-05 1.295071e-05 3.669343e-05
Al -2.593666e-02 -1.872366e+00 7.541785e+00 -3.330273e-06 1.329483e-05 1.114401e-05
Ga -2.019437e-02 -1.844953e+00 -2.698011e+00 -4.164496e-05 1.727300e-05 2.005829e-05
Al -8.246804e-03 1.807789e+00 4.974009e+00 -1.984742e-04 1.277338e-04 3.378663e-04
Ga 4.852804e-03 1.790591e+00 -5.279374e+00 -5.804342e-05 -1.888991e-05 5.342638e-05
Ga -2.117485e-02 1.790078e+00 -1.394609e-01 -1.756288e-05 -8.976797e-06 8.076413e-05
Al 3.164663e+00 -3.704307e+00 4.965838e+00 -2.289734e-04 -2.649999e-06 -4.493213e-04
Ga 3.172597e+00 -3.697770e+00 -5.294088e+00 -4.827622e-05 -5.718922e-06 5.073727e-05
Al 3.167006e+00 -3.699200e+00 -1.115128e-01 -3.477823e-05 -4.406756e-05 -2.234724e-04
Al 1.561750e+00 -9.595244e-01 4.983297e+00 -5.059547e-05 1.055233e-04 1.260694e-04
Al 1.581592e+00 -9.422337e-01 -5.303852e+00 -4.500442e-05 -1.192173e-05 1.580471e-05
Al 1.577682e+00 -9.531322e-01 -1.291317e-01 -1.880379e-04 1.582968e-04 9.581601e-05
Ga 3.137692e+00 1.793880e+00 4.987373e+00 -3.876892e-05 -3.117036e-06 3.541263e-05
Al 3.153343e+00 1.779922e+00 -5.293046e+00 -2.207848e-06 -4.198557e-05 4.183710e-05
Ga 3.157690e+00 1.773568e+00 -1.368333e-01 -5.729615e-05 -1.497070e-05 4.331848e-05
Al 6.322438e+00 -3.710724e+00 4.993393e+00 -1.797395e-04 1.206266e-04 5.454696e-05
Ga 6.338786e+00 -3.705836e+00 -5.309712e+00 -8.678778e-05 3.034863e-05 7.671677e-05
Al 6.321539e+00 -3.688269e+00 -1.273869e-01 -3.275901e-05 -1.193787e-05 1.913560e-05
Ga 4.738174e+00 -9.748138e-01 4.959325e+00 -2.227991e-05 3.817013e-06 3.382383e-05
Al 4.749218e+00 -9.552695e-01 -5.268496e+00 -3.257624e-05 1.081740e-05 2.812043e-05
Al 4.753566e+00 -9.635767e-01 -1.370556e-01 1.691831e-05 1.457034e-04 -1.245178e-04
Ga -3.208239e+00 1.803001e+00 4.981005e+00 -4.629803e-05 3.758373e-05 1.519950e-06
Ga -3.207913e+00 1.785764e+00 -5.258427e+00 -3.942970e-05 -6.217747e-06 3.726134e-05
Al -3.204229e+00 1.777311e+00 -1.541654e-01 6.149121e-05 4.457725e-05 -6.533435e-06
Al -2.826243e-02 -3.698425e+00 5.003928e+00 9.227351e-06 -2.956042e-05 4.970287e-05
Ga -2.290753e-02 -3.705396e+00 -5.300179e+00 -4.910077e-06 3.095022e-05 2.911657e-05
Ga -2.033700e-02 -3.703422e+00 -1.374920e-01 -4.434972e-05 -7.782588e-06 2.781364e-06
Ga -1.613446e+00 -9.774587e-01 4.997411e+00 -5.021887e-05 2.689943e-05 2.129110e-05
Ga -1.612047e+00 -9.656724e-01 -5.284089e+00 -3.481339e-05 6.082196e-06 3.022222e-05
Al -1.631724e+00 -9.586343e-01 -1.515871e-01 -1.698134e-05 5.479624e-06 8.064085e-06
N 1.522093e+00 8.474642e-01 4.350663e+00 1.026745e-04 -1.273064e-04 -9.357985e-05
N 1.611808e+00 8.556911e-01 -5.940693e+00 -1.970128e-05 3.732483e-05 3.351020e-05
N 1.569995e+00 8.255002e-01 -8.098057e-01 7.615330e-05 -1.891832e-05 -5.849780e-05
N -2.038409e-02 3.635785e+00 4.362375e+00 1.044562e-05 2.112959e-05 -3.413289e-05
N -1.708785e-02 3.624980e+00 -5.982506e+00 6.654896e-05 4.536533e-06 -2.269179e-05
N -2.355670e-02 3.680317e+00 -7.117303e-01 3.729212e-05 2.560717e-05 -4.745044e-05
N 3.106117e+00 -1.894752e+00 4.335160e+00 1.141819e-04 -2.209282e-04 -9.514850e-05
N 3.166197e+00 -1.822905e+00 -5.878643e+00 4.900347e-05 -1.261891e-05 -3.783309e-05
N 3.156803e+00 -1.871908e+00 -7.031198e-01 1.474925e-04 -1.221163e-04 2.944663e-05
N -4.799256e+00 8.762375e-01 4.302708e+00 -4.174813e-06 -3.035454e-05 -2.855926e-05
N -4.828949e+00 8.510305e-01 -5.853125e+00 3.319242e-05 -1.939683e-06 -2.588287e-05
N -4.757227e+00 8.462780e-01 -7.864470e-01 -8.941265e-05 -1.421393e-04 5.308297e-05
N -6.391072e+00 3.682591e+00 4.419832e+00 1.688635e-04 -5.430024e-05 -1.088229e-04
N -6.378764e+00 3.581295e+00 -5.950073e+00 -2.569584e-05 -7.712577e-06 1.490894e-04
N -6.432749e+00 3.649299e+00 -7.351065e-01 3.370005e-05 1.296082e-05 -3.804074e-05
N -3.203970e+00 -1.928010e+00 4.314142e+00 1.627088e-05 -9.462129e-06 -1.471696e-05
N -3.243997e+00 -1.848267e+00 -5.948430e+00 4.470081e-05 -1.901585e-05 -1.993080e-05
N -3.209915e+00 -1.876130e+00 -7.607472e-01 2.991082e-05 9.119215e-06 -2.780168e-05
N -1.573373e+00 8.956339e-01 4.388614e+00 7.410211e-05 -9.147960e-06 2.673650e-05
N -1.601971e+00 8.817304e-01 -5.902354e+00 4.599230e-05 4.434479e-06 -1.895638e-05
N -1.649654e+00 8.529101e-01 -7.669423e-01 4.437310e-05 -1.081745e-05 -5.306009e-05
N -3.207964e+00 3.682811e+00 4.407928e+00 2.368204e-04 5.820788e-05 1.188768e-04
N -3.193596e+00 3.629525e+00 -5.913015e+00 5.442920e-05 1.149163e-05 -3.759897e-05
N -3.152960e+00 3.608558e+00 -7.052169e-01 8.770339e-05 4.312427e-05 6.461433e-05
N 1.560461e-02 -1.895770e+00 4.402123e+00 3.176832e-05 2.903599e-06 -2.010534e-05
N 2.733520e-02 -1.847319e+00 -5.948929e+00 3.431614e-05 4.525427e-06 -2.122228e-05
N -1.793074e-02 -1.818585e+00 -7.186595e-01 6.302511e-05 7.138356e-06 2.009498e-05
N 2.192952e-02 1.821111e+00 1.841930e+00 -1.295606e-05 3.043047e-04 1.191418e-04
N 2.206246e-02 1.821160e+00 6.899424e+00 -5.721069e-05 4.405583e-05 -1.303626e-04
N -2.033099e-02 1.750905e+00 -3.286701e+00 4.070763e-05 -3.853937e-06 -3.112828e-05
N 3.199399e+00 -3.685832e+00 1.805708e+00 -1.045735e-04 2.484867e-04 1.534762e-04
N 3.199199e+00 -3.725490e+00 6.883119e+00 2.479275e-06 -2.287582e-05 1.678493e-04
N 3.164258e+00 -3.706246e+00 -3.326980e+00 3.304050e-05 9.957129e-06 -3.990873e-05
N 1.606774e+00 -9.262301e-01 1.787025e+00 2.705167e-04 -4.354317e-04 6.469327e-05
N 1.524589e+00 -9.288016e-01 6.908849e+00 -3.359059e-05 6.205553e-05 1.234376e-06
N 1.570715e+00 -9.108782e-01 -3.385335e+00 4.053678e-05 -2.348333e-05 -2.932538e-05
N 3.148354e+00 1.747396e+00 1.843866e+00 6.587444e-05 2.022116e-06 -3.318231e-05
N 3.111054e+00 1.815905e+00 6.966302e+00 4.139524e-05 3.129337e-05 3.609938e-05
N 3.157379e+00 1.746901e+00 -3.356966e+00 4.150041e-05 3.322076e-06 2.365908e-05
N 6.290174e+00 -3.686234e+00 1.786409e+00 1.220176e-04 1.583605e-04 -8.475068e-05
N 6.330352e+00 -3.703778e+00 6.924378e+00 9.825034e-06 1.680011e-05 1.042388e-05
N 6.335661e+00 -3.655564e+00 -3.329658e+00 4.141127e-05 -1.919557e-05 -5.428567e-05
N 4.744857e+00 -9.596943e-01 1.793327e+00 -5.139287e-05 -3.239366e-05 -4.546337e-05
N 4.784390e+00 -9.784779e-01 6.931739e+00 4.867910e-05 -3.792133e-05 -5.884979e-06
N 4.793815e+00 -9.392375e-01 -3.343042e+00 5.151554e-05 -4.198555e-05 -1.915822e-05
N -3.247542e+00 1.770416e+00 1.762965e+00 -4.275537e-05 -3.725344e-06 -6.661153e-05
N -3.215524e+00 1.788733e+00 6.940208e+00 4.857168e-05 -1.538071e-05 -2.132323e-05
N -3.199681e+00 1.747251e+00 -3.279075e+00 4.266369e-05 -2.381063e-05 -4.376033e-05
N -3.022899e-02 -3.711490e+00 1.818459e+00 3.323030e-05 2.588030e-06 -1.080787e-05
N -7.333923e-02 -3.682964e+00 6.924420e+00 -1.861107e-05 -4.733270e-05 7.499324e-06
N -2.035693e-02 -3.705661e+00 -3.322312e+00 3.578691e-05 -1.492293e-05 -2.811183e-05
N -1.659685e+00 -9.843976e-01 1.765055e+00 7.018386e-05 1.420469e-05 -9.680259e-05
N -1.622745e+00 -1.010040e+00 6.973800e+00 3.473314e-05 -5.849212e-06 -1.936711e-05
N -1.655969e+00 -9.366563e-01 -3.295717e+00 3.447235e-05 -1.352342e-05 -3.397866e-05
