108
Energy=-1397949.224668 Lattice="9.508833 0.000000 0.000000 -4.754360 8.234880 0.000000 -0.002905 0.001079 15.352211" Stress="-0.000002 0.000004 -0.000001 0.000004 -0.000001 -0.000000 -0.000001 -0.000000 -0.000003" Properties=species:S:1:pos:R:3:forces:R:3
Al 1.576740 0.870804 2.405187 -0.002354 -0.000250 0.000484
Al 1.561478 0.886591 7.529239 0.004402 -0.003850 0.000509
Al 1.572017 0.868937 -2.720055 -0.003298 -0.001279 0.003676
Al -0.009850 3.623109 2.427649 0.000262 0.001782 -0.000013
Al -0.019845 3.627568 7.513076 0.001032 -0.001782 0.000349
Al -0.022499 3.613447 -2.708783 -0.000183 -0.000442 0.000595
Al 3.143743 -1.855936 2.400794 -0.000657 -0.000316 -0.000009
Al 3.143765 -1.875107 7.551525 -0.001971 0.001857 -0.001092
Ga 3.130498 -1.863771 -2.716182 -0.000379 -0.000306 -0.000449
Al -4.794298 0.871101 2.403645 0.000869 0.000532 0.001337
Al -4.807670 0.878607 7.556567 0.004435 0.002055 -0.006364
Al -4.780568 0.887395 -2.709870 -0.000213 0.000082 -0.000595
Ga -6.377381 3.615564 2.402888 0.000241 0.000507 0.000441
Al -6.367555 3.611911 7.528833 0.000488 0.000088 -0.001465
Ga -6.362127 3.605970 -2.700412 -0.000575 0.000355 0.000795
Al -3.205204 -1.879797 2.401224 0.004677 0.000914 -0.002140
Al -3.197275 -1.880682 7.519864 0.000044 0.000514 -0.000200
Ga -3.184115 -1.866409 -2.682477 0.000223 -0.000118 0.000100
Ga -1.602346 0.870224 2.400918 -0.000024 -0.000382 -0.000202
Ga -1.598625 0.880809 7.531928 -0.001189 0.000052 -0.000065
Al -1.625140 0.883199 -2.705010 0.007796 -0.002310 0.003540
Ga -3.196588 3.624866 2.391186 -0.000183 0.000024 -0.000070
Al -3.214917 3.626249 7.569989 0.006751 -0.000330 -0.000905
Ga -3.189254 3.610357 -2.721787 0.000859 0.000888 0.000573
Al -0.017452 -1.857285 2.382369 0.000214 -0.001487 -0.001217
Al -0.015068 -1.888024 7.557441 0.000910 0.004364 -0.001193
Al -0.012324 -1.855570 -2.702717 -0.000863 0.000890 0.000244
Al 0.007341 1.802991 4.972169 -0.000610 -0.000010 -0.002347
Ga -0.012016 1.794780 -5.246780 -0.000122 -0.000437 0.000822
Ga -0.006948 1.789390 -0.162487 -0.000244 -0.000317 -0.000579
Ga 3.162591 -3.703037 4.982487 -0.000074 0.000003 0.000027
Al 3.143506 -3.718448 -5.294618 -0.003382 0.005389 0.002844
Ga 3.151288 -3.702271 -0.135160 0.000367 -0.000273 0.000187
Ga 1.557697 -0.937909 4.974619 -0.000009 0.000297 0.000850
Al 1.562585 -0.952544 -5.282817 -0.000364 -0.000673 0.001551
Al 1.547551 -0.948170 -0.142420 -0.000081 0.001050 -0.000141
Al 3.135332 1.787774 4.987330 -0.001980 0.000811 -0.001495
Al 3.156151 1.789018 -5.272894 -0.001540 0.000437 -0.002409
Al 3.153221 1.785806 -0.147973 -0.000769 0.000041 -0.000966
Al 6.317410 -3.709395 4.982451 -0.001756 -0.000883 -0.000990
Ga 6.318884 -3.712116 -5.286032 0.000387 0.000160 0.000196
Al 6.328303 -3.702213 -0.134473 -0.002298 -0.000455 0.000385
Ga 4.730005 -0.951040 4.970062 -0.000409 0.000308 0.000351
Ga 4.721942 -0.940224 -5.276681 -0.000338 -0.001522 0.000401
Ga 4.735604 -0.934383 -0.130098 -0.000077 -0.000516 -0.000077
Ga -3.205241 1.791993 4.989341 -0.000133 -0.000221 0.000568
Al -3.215306 1.798410 -5.264727 0.004005 0.000801 -0.000735
Al -3.207502 1.780866 -0.165219 0.000928 0.000176 0.001785
Ga -0.036755 -3.697964 4.997008 0.000216 -0.000002 -0.000770
Al -0.008307 -3.699083 -5.269889 -0.002037 -0.001086 -0.004822
Al -0.033161 -3.688746 -0.158447 0.000283 0.000391 0.000629
Ga -1.604578 -0.968273 4.970701 0.000354 0.000492 0.000090
Ga -1.590873 -0.959571 -5.253452 0.000055 -0.000026 0.000062
Al -1.596403 -0.963158 -0.152208 0.001106 0.001270 -0.000111
N 1.564022 0.920437 4.327121 0.002205 0.000695 0.001429
N 1.605117 0.860046 -5.902638 -0.000241 -0.000238 0.001058
N 1.614682 0.849814 -0.788807 -0.000274 -0.000859 -0.001982
N 0.021465 3.601176 4.342288 0.000891 -0.000200 0.003015
N -0.063874 3.636920 -5.927709 0.002354 -0.001528 -0.002264
N 0.019331 3.650095 -0.804159 0.000778 0.000549 0.000071
N 3.139901 -1.867075 4.308452 0.000306 0.000163 -0.000222
N 3.103452 -1.889307 -5.885993 0.001066 -0.002823 -0.000075
N 3.103224 -1.843760 -0.742774 0.000179 0.000215 -0.000034
N -4.824825 0.905992 4.324002 0.000169 -0.000471 -0.001079
N -4.778716 0.928465 -5.899745 -0.001489 -0.000703 0.002122
N -4.782657 0.925496 -0.796773 0.000403 0.000278 -0.000066
N -6.403536 3.596175 4.391977 0.000454 -0.001044 0.000882
N -6.322494 3.590590 -5.908680 0.002079 0.000895 0.003032
N -6.363155 3.615382 -0.710732 0.000786 -0.000007 -0.000143
N -3.192856 -1.921457 4.318924 -0.000223 -0.000056 0.000835
N -3.188192 -1.868884 -5.930314 -0.000163 0.000163 -0.000039
N -3.152011 -1.892381 -0.711593 -0.000405 -0.000398 -0.000093
N -1.566301 0.901304 4.382696 0.000289 0.000252 0.000564
N -1.642127 0.902262 -5.852859 -0.001029 0.000438 0.000464
N -1.647392 0.853048 -0.770580 -0.001317 0.000340 -0.002133
N -3.197051 3.624930 4.354054 -0.000106 0.000024 0.000051
N -3.195854 3.614032 -5.861453 -0.000040 0.000246 -0.000024
N -3.232414 3.599148 -0.736921 -0.000368 -0.000346 -0.000680
N -0.018119 -1.872590 4.288667 -0.000233 -0.000350 0.000457
N 0.021642 -1.892819 -5.888950 -0.000178 -0.000355 -0.000210
N -0.016064 -1.866403 -0.772835 0.000149 -0.000641 -0.000694
N 0.024317 1.822883 1.820738 0.000363 -0.002165 -0.000703
N 0.033131 1.808073 6.892104 -0.003462 0.003962 -0.000261
N -0.017923 1.788999 -3.256987 -0.001202 -0.000187 -0.000279
N 3.196300 -3.677596 1.836859 -0.000187 0.000166 -0.000107
N 3.147609 -3.699877 6.969265 -0.003960 -0.000516 0.001444
N 3.190543 -3.724533 -3.368578 -0.000130 -0.000383 -0.001327
N 1.560167 -0.946503 1.785198 0.000316 -0.000084 -0.000007
N 1.558892 -0.950500 6.961375 -0.000192 -0.001561 0.001578
N 1.515465 -0.929235 -3.355485 0.000775 0.000489 -0.001830
N 3.141752 1.739143 1.766108 0.001995 0.000434 -0.000338
N 3.138863 1.786324 6.913064 0.000903 0.000373 -0.000533
N 3.141027 1.742769 -3.356912 0.003418 0.000430 0.000726
N 6.267455 -3.681739 1.778725 0.000910 0.000418 -0.000883
N 6.316448 -3.699551 6.910379 0.000166 -0.000219 -0.000063
N 6.280298 -3.722685 -3.317785 0.000236 0.000097 -0.000297
N 4.733129 -0.949415 1.851763 -0.000889 0.000640 -0.000033
N 4.725604 -0.951622 6.965621 0.000018 0.000039 0.000985
N 4.734187 -0.907517 -3.303572 0.000067 0.000594 -0.000162
N -3.236176 1.760151 1.752076 -0.001010 -0.000164 -0.000541
N -3.234968 1.820866 6.960213 -0.004000 -0.002366 0.001798
N -3.187159 1.738889 -3.344323 -0.006103 0.001323 -0.001150
N -0.031094 -3.652398 1.749294 -0.000071 0.000742 0.000235
N -0.018835 -3.698421 6.980686 -0.003342 -0.000736 -0.000153
N -0.026589 -3.652534 -3.364528 -0.000312 0.000878 0.003300
N -1.599289 -0.997467 1.765410 -0.004090 -0.001378 0.001932
N -1.601338 -1.006898 6.948075 0.000458 -0.001018 0.000575
N -1.566611 -0.928017 -3.278330 0.000489 -0.001304 -0.000117
