108
Energy=-1306398.105541 Lattice="9.488418 0.000000 0.000000 -4.752663 8.212715 0.000000 -0.004242 0.002004 15.309730" Stress="-0.000031 -0.000002 0.000001 -0.000002 -0.000028 0.000001 0.000001 0.000001 -0.000017" Properties=species:S:1:pos:R:3:forces:R:3
Al 1.571976 0.862955 2.443230 -0.001076 -0.000153 -0.003453
Al 1.568308 0.861760 7.522856 -0.003030 0.004951 -0.002341
Al 1.545539 0.872789 -2.737788 0.000366 -0.001223 0.002243
Al -0.039241 3.634424 2.420363 -0.007347 -0.015083 -0.000527
Al -0.007280 3.603856 7.514617 -0.007104 0.005972 -0.008718
Ga -0.021629 3.596748 -2.694396 0.000258 0.000078 0.001432
Al 3.172089 -1.870335 2.430461 -0.000590 0.002399 -0.003172
Al 3.152256 -1.851602 7.500635 0.001856 -0.003791 -0.001930
Ga 3.141536 -1.863613 -2.719845 0.000390 0.000521 0.002045
Al -4.752118 0.886839 2.429107 -0.001005 -0.001656 -0.002089
Al -4.796009 0.855978 7.488232 0.004863 0.001670 -0.000631
Ga -4.778247 0.880050 -2.710919 0.000454 -0.000906 0.001866
Al -6.335708 3.627654 2.453143 -0.012877 -0.011987 -0.005336
Ga -6.355368 3.610032 7.492482 0.000454 0.000100 0.001258
Al -6.342866 3.617618 -2.723217 0.000305 -0.000062 0.001610
Al -3.189031 -1.871125 2.431400 0.002345 0.003116 -0.000018
Al -3.211108 -1.868494 7.490968 0.004041 0.002233 -0.000919
Al -3.165192 -1.858014 -2.707100 -0.001038 -0.000281 0.000853
Al -1.624527 0.877667 2.403011 0.003789 -0.001348 -0.001604
Ga -1.614547 0.884616 7.504648 0.000313 -0.000575 0.000002
Al -1.608793 0.873692 -2.703502 0.001262 -0.000655 0.001133
Al -3.190475 3.605778 2.410750 0.002438 0.001642 -0.000422
Ga -3.194514 3.631946 7.469248 0.002184 -0.001306 0.001225
Al -3.207395 3.616939 -2.691522 0.001076 0.000509 0.000175
Ga -0.030759 -1.880736 2.413550 0.002774 0.004126 -0.002313
Al -0.012395 -1.861170 7.520998 -0.000661 0.000072 -0.001420
Al -0.019131 -1.864901 -2.717752 -0.001424 -0.001421 0.006473
Ga -0.024586 1.803416 4.946723 -0.000267 -0.000425 -0.000191
Al -0.006430 1.772777 -5.260896 -0.002357 0.000006 0.002453
Ga -0.039563 1.771580 -0.123782 0.000523 -0.000559 0.000326
Al 3.155053 -3.690097 4.939628 -0.001663 0.001076 0.001107
Ga 3.150521 -3.689228 -5.276581 -0.001971 -0.000097 0.002749
Al 3.126092 -3.699170 -0.139780 0.000214 0.000753 0.004600
Ga 1.585080 -0.963734 4.984460 -0.001726 0.000713 -0.001608
Al 1.574228 -0.950727 -5.284491 -0.002097 0.000142 0.004315
Ga 1.561081 -0.962673 -0.139847 -0.002382 0.000432 0.002344
Al 3.150932 1.789523 4.950458 -0.002325 -0.001965 0.000482
Al 3.124758 1.771554 -5.265725 0.002835 0.002004 0.000101
Ga 3.134671 1.796369 -0.123603 -0.000854 -0.000529 0.001730
Al 6.300745 -3.689448 4.953841 -0.000842 0.001224 0.000293
Ga 6.314698 -3.692172 -5.262962 0.000902 0.000318 0.002507
Ga 6.320318 -3.674819 -0.123662 -0.000757 -0.002005 0.001034
Al 4.724405 -0.948358 4.951432 0.000154 -0.000452 0.000528
Al 4.723316 -0.950429 -5.284937 -0.000059 0.002088 0.001841
Ga 4.746314 -0.955725 -0.115649 -0.002104 0.001667 -0.000821
Al -3.213156 1.790419 4.927041 0.001848 0.001030 0.004683
Ga -3.210243 1.794786 -5.257184 0.000027 -0.000105 0.001832
Al -3.190645 1.805582 -0.149991 0.001048 -0.001351 0.002744
Al -0.020625 -3.711116 4.955580 0.001571 0.004685 0.000297
Al -0.013863 -3.678871 -5.246812 0.000259 -0.001659 0.002075
Al -0.006174 -3.699760 -0.146249 -0.005903 0.003137 -0.003579
Ga -1.616885 -0.955443 4.973165 -0.000402 0.000348 0.000595
Ga -1.590054 -0.958955 -5.252473 -0.001338 0.001416 0.000792
Al -1.610819 -0.943114 -0.166801 0.001985 -0.000056 0.003589
N 1.591336 0.885541 4.337266 0.003068 0.001682 0.000468
N 1.557088 0.871904 -5.869723 0.000616 -0.000847 -0.000222
N 1.552722 0.871272 -0.818094 0.001085 0.000503 -0.002818
N -0.027757 3.658822 4.324963 0.000029 0.000654 0.000045
N -0.017420 3.560134 -5.899522 0.000095 -0.000958 -0.000178
N -0.060246 3.628896 -0.722621 -0.001859 0.000931 -0.000437
N 3.186348 -1.885509 4.337346 0.001665 -0.001085 0.000183
N 3.154040 -1.826092 -5.892729 -0.000368 0.001550 -0.001091
N 3.151350 -1.906728 -0.744772 0.001544 -0.001560 -0.000349
N -4.773438 0.874084 4.344742 0.000590 -0.000266 0.000713
N -4.811550 0.854464 -5.901648 -0.002298 -0.002018 0.001203
N -4.743771 0.896279 -0.739380 0.002903 0.000435 -0.000391
N -6.349957 3.614187 4.365657 -0.000987 -0.000340 0.000727
N -6.303158 3.590464 -5.842894 -0.000084 -0.002041 0.000797
N -6.323177 3.628650 -0.803657 0.004365 0.002132 0.001836
N -3.219883 -1.883872 4.345490 -0.000807 -0.001165 -0.000904
N -3.215158 -1.845230 -5.908871 -0.001752 0.000511 -0.002360
N -3.148707 -1.842673 -0.796629 0.000970 0.000485 -0.000538
N -1.653181 0.897858 4.315719 -0.000748 -0.000499 -0.000718
N -1.582399 0.903955 -5.846217 0.003811 -0.000514 0.000673
N -1.654112 0.864943 -0.776909 -0.001030 -0.001743 -0.000885
N -3.191288 3.615496 4.339977 0.000109 -0.000339 -0.001024
N -3.231013 3.639510 -5.876974 -0.000576 0.000942 0.000044
N -3.196483 3.620144 -0.761488 0.001534 -0.001094 0.000910
N -0.022916 -1.903865 4.372933 0.000990 -0.003569 -0.000551
N 0.019935 -1.889167 -5.876416 0.002230 -0.000272 -0.000762
N -0.060954 -1.881681 -0.768091 0.000563 -0.003731 -0.002876
N -0.010442 1.753472 1.850781 -0.003977 0.008918 0.005439
N 0.013788 1.811612 6.915433 0.003565 -0.003299 0.002260
N -0.028520 1.741963 -3.340964 -0.000684 -0.001208 -0.000853
N 3.136195 -3.681003 1.803705 -0.001381 -0.002527 -0.001864
N 3.182539 -3.657540 6.849744 0.005039 -0.001751 0.007044
N 3.110963 -3.718465 -3.311889 -0.002702 -0.001128 0.000496
N 1.608737 -0.950559 1.846959 0.000936 0.002833 -0.001506
N 1.570363 -0.946380 6.962123 -0.002625 -0.002140 0.000425
N 1.523031 -0.938935 -3.346258 0.000339 0.002360 -0.003905
N 3.144856 1.763123 1.866345 -0.001116 0.012016 0.000486
N 3.129314 1.739914 6.875187 0.000055 -0.000517 -0.002722
N 3.093253 1.808865 -3.347752 -0.000575 0.000052 -0.001165
N 6.255334 -3.702438 1.879087 0.024666 0.006441 -0.006172
N 6.268992 -3.671253 6.878810 -0.000692 0.000666 -0.002537
N 6.343276 -3.664772 -3.290346 0.000821 0.000623 0.000913
N 4.757333 -0.930039 1.854358 -0.006903 -0.005604 0.004222
N 4.718381 -0.951057 6.878335 0.000144 0.000879 -0.000944
N 4.768114 -0.974035 -3.366937 0.000833 0.000036 -0.001495
N -3.186823 1.799631 1.795584 0.000266 -0.000359 -0.002208
N -3.236371 1.770610 6.854676 -0.003422 -0.002074 -0.004351
N -3.159312 1.813605 -3.285589 0.001530 0.001036 0.001405
N -0.032154 -3.749547 1.779878 0.002985 0.001022 -0.001881
N -0.027035 -3.633871 6.854551 -0.000444 0.000079 -0.002960
N -0.014968 -3.684307 -3.320340 0.000162 -0.000206 0.000012
N -1.634646 -0.935625 1.777900 -0.005700 -0.001339 -0.002722
N -1.597793 -0.989888 6.943396 -0.003194 -0.002613 0.000081
N -1.594429 -0.952755 -3.273018 -0.000923 0.001243 0.000769
