108
Energy=-1.855704e+06 Lattice="9.569116e+00 0.000000e+00 0.000000e+00 -4.785208e+00 8.285985e+00 0.000000e+00 9.456578e-04 -8.432449e-04 1.548063e+01" Stress="1.314964e-04 -4.118309e-05 -4.311912e-06 -3.280827e-05 1.641857e-04 2.734552e-05 1.837338e-06 2.442921e-05 -1.694144e-04" Properties=species:S:1:pos:R:3:forces:R:3 Config_type=AlGaN_super3_31_2_18.xyz
Al 1.580262e+00 8.857797e-01 2.410151e+00 -4.565446e-04 2.128735e-04 -5.025159e-04
Al 1.570574e+00 8.916651e-01 7.595696e+00 1.467130e-04 -3.845591e-05 5.612030e-05
Al 1.573620e+00 8.689580e-01 -2.715735e+00 -4.037952e-04 -2.754312e-04 -6.556130e-05
Al -8.138475e-03 3.638354e+00 2.402513e+00 2.532869e-04 6.489100e-05 5.055668e-04
Al -2.808017e-02 3.637023e+00 7.607262e+00 3.220851e-05 -1.693490e-05 -9.010362e-05
Ga -2.224133e-02 3.631340e+00 -2.719691e+00 -3.711612e-05 2.768628e-04 3.821963e-04
Al 3.175034e+00 -1.869296e+00 2.422923e+00 2.932329e-04 3.806535e-04 -3.895742e-04
Ga 3.176157e+00 -1.887494e+00 7.622503e+00 -1.730652e-05 -4.494143e-05 1.054798e-04
Al 3.160018e+00 -1.860892e+00 -2.759077e+00 8.901731e-04 -1.098281e-03 8.144169e-04
Al -4.819000e+00 8.778191e-01 2.442289e+00 2.965730e-05 -1.676407e-04 -4.097740e-04
Ga -4.819507e+00 8.764781e-01 7.586419e+00 1.579468e-04 9.577656e-05 1.935078e-04
Al -4.822295e+00 8.633488e-01 -2.732149e+00 1.720935e-04 -2.018700e-05 1.468501e-04
Al -6.425092e+00 3.631885e+00 2.434810e+00 1.588859e-04 -1.047337e-04 1.137184e-04
Ga -6.414798e+00 3.630731e+00 7.577055e+00 5.266133e-06 -9.500430e-06 -5.121724e-06
Ga -6.410141e+00 3.628371e+00 -2.710795e+00 -9.458766e-05 2.489326e-04 2.331709e-04
Al -3.216991e+00 -1.884391e+00 2.397804e+00 3.520818e-04 2.692676e-04 -6.226778e-04
Al -3.225782e+00 -1.884578e+00 7.600309e+00 7.765730e-05 -7.328132e-05 7.194344e-06
Ga -3.230420e+00 -1.875095e+00 -2.697721e+00 -1.066460e-04 -2.585906e-04 3.128462e-04
Al -1.610513e+00 8.785497e-01 2.409394e+00 1.253282e-04 -2.686021e-05 2.611151e-05
Ga -1.607143e+00 8.933183e-01 7.602166e+00 1.661685e-04 -1.637335e-04 6.269281e-05
Ga -1.603831e+00 8.863968e-01 -2.712478e+00 1.683832e-04 -2.186161e-05 4.389271e-05
Ga -3.203276e+00 3.638047e+00 2.428972e+00 9.321961e-05 -1.046148e-05 1.146240e-04
Al -3.196670e+00 3.645816e+00 7.602143e+00 -2.957371e-05 -1.259697e-04 -1.020812e-04
Ga -3.203260e+00 3.644178e+00 -2.720099e+00 6.935835e-05 2.157079e-06 1.749681e-04
Ga -2.224012e-02 -1.860046e+00 2.410840e+00 1.047417e-04 5.492776e-05 2.084948e-04
Ga -1.655039e-02 -1.873685e+00 7.599182e+00 2.144293e-05 -2.554977e-04 1.639160e-05
Ga -1.209574e-03 -1.861902e+00 -2.704517e+00 -1.192101e-04 -1.010939e-04 3.546802e-04
Ga -5.460825e-03 1.803246e+00 4.991813e+00 -7.510289e-05 3.533009e-04 -4.046052e-05
Al -9.317417e-03 1.802332e+00 -5.314645e+00 -6.586665e-05 6.153121e-05 7.028717e-06
Al -1.209199e-02 1.787577e+00 -1.276592e-01 1.991363e-05 1.549148e-04 2.322566e-04
Ga 3.179790e+00 -3.721805e+00 5.013294e+00 -6.556811e-05 6.455642e-05 2.632175e-05
Al 3.174332e+00 -3.719313e+00 -5.311888e+00 -3.843515e-05 9.760557e-06 2.844079e-05
Ga 3.183531e+00 -3.708953e+00 -1.398654e-01 1.970147e-05 4.835985e-04 -3.487969e-04
Ga 1.588431e+00 -9.407287e-01 5.003120e+00 -1.246207e-04 6.378877e-05 1.049996e-04
Al 1.584668e+00 -9.450401e-01 -5.297811e+00 -2.162838e-04 1.784922e-04 -1.556609e-04
Al 1.573327e+00 -9.471564e-01 -1.501504e-01 -4.566775e-06 2.325612e-04 -4.218655e-05
Al 3.156466e+00 1.796445e+00 4.982310e+00 1.738477e-06 1.149360e-05 1.567725e-04
Ga 3.146388e+00 1.775168e+00 -5.287470e+00 -2.000370e-05 3.216682e-05 6.218836e-05
Ga 3.148264e+00 1.791292e+00 -1.389398e-01 -2.139808e-04 1.299369e-04 -1.428401e-04
Ga 6.351297e+00 -3.723847e+00 4.999300e+00 6.434753e-05 -2.089618e-04 1.320183e-05
Ga 6.329825e+00 -3.717768e+00 -5.324074e+00 4.835495e-05 -3.177896e-05 9.716391e-05
Al 6.355196e+00 -3.726915e+00 -1.145005e-01 -1.436949e-05 1.932944e-04 2.254411e-04
Ga 4.763413e+00 -9.592995e-01 4.983894e+00 -3.277931e-04 1.687667e-04 -4.280278e-05
Al 4.751576e+00 -9.697986e-01 -5.290418e+00 6.593872e-07 3.827860e-05 1.709560e-05
Ga 4.752228e+00 -9.658045e-01 -1.345081e-01 -3.021028e-04 2.648859e-04 6.286322e-04
Ga -3.218837e+00 1.798067e+00 5.003677e+00 -6.050629e-05 6.935439e-05 -5.855095e-05
Ga -3.209662e+00 1.805986e+00 -5.304292e+00 5.120968e-05 2.713714e-05 -4.821821e-05
Ga -3.208919e+00 1.780417e+00 -1.299048e-01 3.011082e-04 2.262408e-04 -6.463194e-05
Ga -2.915255e-02 -3.731829e+00 5.008135e+00 4.634053e-05 1.882977e-05 -1.091733e-04
Ga -4.415461e-03 -3.715911e+00 -5.308975e+00 -1.333879e-05 3.035489e-05 -2.817917e-05
Ga -3.892228e-02 -3.708793e+00 -1.254938e-01 1.160981e-04 1.634453e-04 -4.780745e-04
Ga -1.629798e+00 -9.581146e-01 4.998906e+00 1.535031e-04 5.462350e-05 9.043838e-05
Ga -1.621494e+00 -9.567617e-01 -5.304623e+00 -9.965237e-05 -3.716711e-05 7.840915e-05
Al -1.612608e+00 -9.546792e-01 -1.273378e-01 -1.151116e-04 1.323200e-04 1.603744e-04
N 1.610079e+00 9.034339e-01 4.323514e+00 3.243205e-04 -3.316606e-05 2.440334e-04
N 1.530735e+00 8.581418e-01 -5.959025e+00 2.914943e-04 -4.780642e-05 4.396709e-06
N 1.523803e+00 8.560858e-01 -7.877691e-01 2.560353e-04 -3.163797e-05 -2.786097e-04
N -2.154023e-02 3.642057e+00 4.316315e+00 3.035320e-05 -1.739836e-04 -1.227169e-04
N -7.002677e-02 3.613694e+00 -5.947837e+00 6.913888e-05 4.361473e-06 -1.853722e-05
N 2.090940e-02 3.611691e+00 -7.261302e-01 3.694253e-06 -1.750984e-04 -3.376864e-04
N 3.164209e+00 -1.883069e+00 4.331509e+00 -3.223570e-05 -7.291955e-05 2.463339e-04
N 3.166899e+00 -1.879249e+00 -5.864872e+00 2.857593e-05 3.882734e-05 -7.912208e-07
N 3.122769e+00 -1.854883e+00 -8.265326e-01 1.096256e-04 2.068983e-04 -5.001994e-04
N -4.850970e+00 9.063094e-01 4.356918e+00 1.676999e-04 -6.321709e-05 1.258625e-04
N -4.814625e+00 8.308552e-01 -5.912687e+00 1.697480e-05 1.787191e-05 -1.073513e-04
N -4.811814e+00 8.760717e-01 -8.200568e-01 -3.505285e-05 -3.437097e-04 7.613403e-06
N -6.409374e+00 3.596869e+00 4.358566e+00 -1.897503e-04 7.256426e-05 -5.048117e-05
N -6.404078e+00 3.633386e+00 -5.929126e+00 -7.752729e-05 -5.200593e-05 -7.969449e-05
N -6.449867e+00 3.663838e+00 -7.391934e-01 9.577724e-06 -1.541277e-04 -3.743884e-04
N -3.209920e+00 -1.885368e+00 4.306894e+00 4.619792e-07 -1.245890e-04 8.390814e-04
N -3.260912e+00 -1.851129e+00 -5.963503e+00 -6.772000e-06 -6.200210e-05 -1.035465e-05
N -3.175129e+00 -1.907044e+00 -7.102129e-01 -8.098883e-05 -1.276450e-04 -2.795225e-04
N -1.612584e+00 8.839206e-01 4.328870e+00 1.751539e-04 -1.979779e-04 1.430049e-05
N -1.574616e+00 9.083666e-01 -5.906660e+00 1.193034e-04 -1.234217e-04 2.098378e-05
N -1.570172e+00 8.604910e-01 -7.262576e-01 3.682335e-05 -5.037848e-05 -2.794139e-04
N -3.207088e+00 3.646552e+00 4.388728e+00 9.352332e-05 -1.852043e-04 -1.441691e-04
N -3.166704e+00 3.667637e+00 -5.960939e+00 -1.897340e-05 -9.362272e-05 1.093956e-04
N -3.210569e+00 3.643141e+00 -7.488169e-01 -6.488813e-05 -2.286260e-04 -1.849957e-04
N -1.810621e-02 -1.873096e+00 4.385634e+00 -7.298065e-05 -1.728369e-04 -6.583750e-05
N 2.311088e-02 -1.849101e+00 -5.906300e+00 7.572105e-05 -8.896686e-05 -1.660305e-05
N -2.024192e-02 -1.826665e+00 -7.159936e-01 2.315927e-04 -2.334991e-04 -3.974409e-04
N -1.612958e-02 1.797224e+00 1.801321e+00 -1.714122e-04 -7.071480e-05 -4.721083e-05
N 2.356810e-02 1.827770e+00 6.984065e+00 -7.762219e-05 5.836082e-05 -3.578839e-05
N 2.808123e-02 1.775741e+00 -3.390422e+00 -1.640290e-04 2.962377e-04 2.187123e-04
N 3.215519e+00 -3.690600e+00 1.835138e+00 -4.785369e-04 -1.636804e-05 -1.211859e-04
N 3.175047e+00 -3.766962e+00 7.002624e+00 -3.342068e-05 2.655150e-04 7.079895e-05
N 3.174083e+00 -3.680976e+00 -3.384916e+00 -2.165163e-04 8.183544e-04 8.986870e-06
N 1.624455e+00 -9.310602e-01 1.774949e+00 -6.251108e-05 -3.954828e-04 -8.455716e-05
N 1.584322e+00 -9.095237e-01 6.982711e+00 -1.343231e-04 1.747468e-04 -5.061807e-05
N 1.609110e+00 -9.268935e-01 -3.372472e+00 5.575983e-04 8.519845e-05 1.357661e-04
N 3.168578e+00 1.800208e+00 1.845522e+00 3.041654e-04 8.634100e-06 7.619652e-04
N 3.120252e+00 1.771835e+00 6.910732e+00 -1.009956e-04 -8.082329e-05 3.915833e-05
N 3.158820e+00 1.749133e+00 -3.302909e+00 -6.623025e-05 -1.917457e-04 1.455014e-06
N 6.359687e+00 -3.725210e+00 1.809044e+00 -7.304911e-05 -1.213818e-04 -2.507576e-04
N 6.306341e+00 -3.697655e+00 6.996569e+00 7.707177e-05 2.880420e-05 2.030601e-05
N 6.352412e+00 -3.718147e+00 -3.355076e+00 -1.933332e-05 6.668894e-06 -1.652393e-04
N 4.758403e+00 -9.532912e-01 1.855483e+00 -4.516777e-04 -1.635681e-04 -8.590479e-04
N 4.799650e+00 -9.876989e-01 6.963811e+00 -1.890403e-04 -9.013741e-05 -1.141537e-04
N 4.727403e+00 -9.416133e-01 -3.363977e+00 -4.995762e-04 5.640241e-05 -3.396396e-05
N -3.217942e+00 1.748281e+00 1.847370e+00 -2.350969e-04 4.004743e-06 -6.923575e-05
N -3.213828e+00 1.846249e+00 6.985956e+00 -3.873606e-05 -2.731150e-05 -8.781467e-06
N -3.253219e+00 1.775142e+00 -3.324883e+00 1.872168e-05 1.357570e-04 -5.500118e-05
N -6.879890e-02 -3.746296e+00 1.840454e+00 -6.291971e-05 -1.089674e-04 3.889718e-04
N 1.901799e-02 -3.746988e+00 6.989170e+00 -8.216364e-05 1.275262e-04 -1.373241e-05
N -2.287703e-02 -3.718772e+00 -3.336783e+00 9.659768e-05 1.619617e-07 4.824842e-05
N -1.659037e+00 -9.328269e-01 1.786463e+00 -1.771101e-04 -2.093251e-04 1.638893e-05
N -1.664139e+00 -9.824219e-01 6.984403e+00 -1.480345e-04 6.955119e-05 -7.344895e-05
N -1.621501e+00 -9.649363e-01 -3.335354e+00 -1.514589e-04 1.572092e-04 -1.459459e-04
