108
Energy=-1443724.829934 Lattice="9.512120 0.000000 0.000000 -4.758424 8.235890 0.000000 0.004005 0.007704 15.358801" Stress="-0.000008 -0.000001 0.000000 -0.000001 -0.000009 0.000002 0.000000 0.000002 -0.000006" Properties=species:S:1:pos:R:3:forces:R:3
Al 1.564005 0.895384 2.428788 0.000390 0.000460 0.000233
Al 1.545052 0.888805 7.561800 0.000652 -0.000278 -0.000358
Al 1.546638 0.877488 -2.753679 0.000654 0.001052 -0.000198
Al -0.017540 3.620017 2.406948 -0.000193 0.000042 0.000383
Al -0.035837 3.598307 7.519134 -0.000228 0.000015 0.000176
Al -0.013074 3.599473 -2.692351 -0.000861 0.000246 0.000166
Ga 3.170609 -1.876914 2.419898 -0.000182 0.000086 -0.000137
Ga 3.151573 -1.864648 7.528595 0.000286 0.000336 0.000219
Ga 3.143759 -1.870269 -2.706462 -0.000031 -0.000002 0.000104
Al -4.779975 0.884025 2.401510 -0.000357 -0.000640 -0.000537
Al -4.775658 0.881176 7.553560 0.000166 -0.000276 -0.000278
Ga -4.780107 0.883553 -2.713556 0.000126 -0.000198 -0.000192
Al -6.368624 3.631115 2.417406 -0.000389 -0.003521 0.000132
Ga -6.345921 3.620443 7.539990 -0.000367 -0.000163 0.000074
Al -6.375429 3.613743 -2.720999 0.000349 0.000258 -0.000218
Al -3.195261 -1.868087 2.386416 -0.000521 -0.000100 -0.000621
Ga -3.194406 -1.854701 7.541469 -0.000316 0.000302 0.000548
Ga -3.184759 -1.879392 -2.688412 -0.000105 0.000207 0.000158
Ga -1.612354 0.885305 2.410066 0.000480 -0.000261 0.000150
Al -1.591940 0.899723 7.538490 -0.000888 0.000090 -0.000208
Al -1.603360 0.885572 -2.713638 0.000745 -0.000945 0.000145
Al -3.191044 3.617124 2.408404 0.000338 -0.000256 0.000082
Al -3.197623 3.627129 7.532307 0.000191 -0.001679 0.001859
Ga -3.197234 3.609959 -2.711583 0.000234 -0.000019 -0.000314
Ga -0.032238 -1.874597 2.417115 0.000458 0.000305 -0.000186
Al -0.009545 -1.871613 7.545542 -0.000250 0.000006 0.000033
Al -0.023252 -1.864837 -2.719873 -0.000009 0.000176 -0.000242
Al -0.021061 1.803813 4.983943 0.000167 0.000364 -0.000364
Al -0.026657 1.789799 -5.262358 -0.000298 -0.001068 0.000062
Ga -0.030300 1.796353 -0.164222 -0.000236 0.000019 0.000390
Al 3.149653 -3.712834 4.974824 0.000117 0.000150 -0.000084
Ga 3.143736 -3.713091 -5.277718 -0.000171 0.000208 0.000415
Al 3.163137 -3.711046 -0.142472 0.000207 0.000060 0.000350
Ga 1.567863 -0.949299 4.994188 -0.000521 0.000505 -0.000045
Al 1.557946 -0.948571 -5.277109 -0.000706 -0.000049 0.000307
Ga 1.566101 -0.954345 -0.154561 -0.000452 0.000386 0.000819
Ga 3.148932 1.784471 4.974606 -0.000075 -0.000344 -0.000064
Al 3.148022 1.776516 -5.272930 -0.000310 0.000060 -0.000113
Ga 3.144874 1.790512 -0.138574 -0.000121 0.000187 0.000716
Ga 6.308112 -3.697014 4.952703 -0.000163 -0.000159 -0.000016
Ga 6.311990 -3.721402 -5.258069 0.000194 0.000241 0.000464
Al 6.314513 -3.693988 -0.139977 -0.000874 -0.000654 0.000201
Al 4.743677 -0.949329 4.960044 -0.000286 -0.000169 0.000313
Al 4.723290 -0.936847 -5.267267 -0.000123 -0.000129 0.000597
Al 4.749812 -0.958581 -0.132636 0.000027 -0.000246 0.000681
Ga -3.200932 1.806769 4.985690 0.000218 -0.000130 0.000360
Al -3.202865 1.785642 -5.299047 0.000775 0.000551 0.000319
Al -3.191462 1.783825 -0.135176 0.000212 0.000076 0.000304
Al -0.004590 -3.701384 4.971638 -0.000053 -0.000114 -0.000314
Al -0.017047 -3.707106 -5.263922 -0.000500 0.001084 0.001670
Ga -0.028735 -3.703418 -0.153126 0.000452 0.000050 0.000138
Ga -1.609165 -0.952029 4.995138 -0.000115 0.000123 0.000199
Ga -1.594687 -0.941526 -5.268570 0.000143 -0.000008 0.000593
Al -1.622264 -0.951060 -0.165717 0.000211 0.000236 -0.000330
N 1.516966 0.902878 4.335907 0.000182 -0.000077 -0.000344
N 1.551295 0.880205 -5.869236 0.000258 -0.000401 -0.000096
N 1.563050 0.876465 -0.845501 0.000188 -0.000310 -0.000110
N -0.067640 3.597006 4.331646 -0.000100 -0.000104 -0.000359
N -0.027353 3.565300 -5.932266 -0.000074 0.000010 -0.000154
N -0.020013 3.666344 -0.777720 0.000313 0.000369 0.000193
N 3.193820 -1.895950 4.405896 0.000095 -0.000321 -0.000112
N 3.148407 -1.826801 -5.850676 0.000106 0.000299 -0.000497
N 3.194460 -1.894732 -0.722476 0.000030 -0.000046 0.000176
N -4.774163 0.833115 4.314627 -0.000222 0.000594 -0.000901
N -4.785571 0.870477 -5.883088 0.000278 -0.000041 -0.000345
N -4.741056 0.852214 -0.731891 0.000271 0.000204 0.000136
N -6.321349 3.644651 4.336962 0.000279 0.000985 -0.001287
N -6.323706 3.594168 -5.846073 0.000591 0.000102 0.000171
N -6.409922 3.638966 -0.802358 -0.000145 0.000244 -0.000061
N -3.224434 -1.840869 4.307117 -0.000224 0.000142 -0.000012
N -3.235688 -1.851134 -5.850908 -0.000187 0.000368 -0.000537
N -3.195855 -1.875623 -0.706531 -0.000042 0.000540 0.000032
N -1.572082 0.905010 4.383330 0.000340 -0.000382 -0.000141
N -1.601923 0.926567 -5.905920 -0.000580 0.000523 0.000093
N -1.655941 0.859231 -0.786885 0.000063 -0.000177 -0.000019
N -3.189628 3.670113 4.332707 -0.000298 -0.000020 0.000101
N -3.244034 3.602687 -5.901774 0.000423 -0.001364 -0.001468
N -3.154331 3.593733 -0.734185 0.000122 -0.000305 0.000387
N -0.023427 -1.909696 4.381840 0.000162 -0.000339 -0.000154
N 0.017272 -1.903073 -5.896126 0.000423 -0.000509 -0.000247
N -0.060357 -1.847620 -0.804313 -0.000072 -0.000035 0.000097
N 0.020550 1.812643 1.811666 -0.000252 0.000554 -0.000383
N -0.015632 1.791180 6.907440 0.000021 0.000322 -0.000007
N -0.032450 1.793459 -3.331985 0.000176 0.000135 0.000114
N 3.154627 -3.750184 1.779007 -0.000286 -0.000378 -0.000287
N 3.144725 -3.749342 6.902899 0.001246 0.000092 -0.000786
N 3.194432 -3.732273 -3.310207 0.000247 -0.000025 0.000036
N 1.568128 -0.903570 1.823206 -0.000389 -0.000107 -0.000735
N 1.524270 -0.919301 6.967850 -0.000143 0.000566 0.000156
N 1.522765 -0.937645 -3.353342 -0.000461 -0.000310 -0.000117
N 3.138982 1.795947 1.850855 0.001359 0.001262 -0.000152
N 3.146037 1.741840 6.957881 -0.000186 -0.000436 0.000480
N 3.110245 1.810135 -3.353955 -0.000682 -0.000393 0.000158
N 6.320355 -3.701174 1.798290 0.000108 0.000000 0.000212
N 6.280691 -3.720712 6.928947 0.000154 -0.000045 -0.000232
N 6.310971 -3.750752 -3.286740 0.000578 -0.000203 -0.000146
N 4.773609 -0.925365 1.778403 0.000288 0.000189 0.000098
N 4.740552 -0.896801 6.872442 -0.000086 0.000216 -0.000134
N 4.737329 -0.955962 -3.368068 -0.000295 0.000244 0.000145
N -3.232440 1.815767 1.784429 -0.000440 0.000723 -0.000633
N -3.198240 1.796373 6.975768 0.000232 0.000065 0.000422
N -3.154539 1.763825 -3.380834 -0.000221 0.000086 -0.000864
N -0.019857 -3.746743 1.820970 -0.000512 0.000094 -0.000103
N 0.025418 -3.674212 6.890838 -0.000512 0.000786 0.000241
N -0.061632 -3.677744 -3.336228 -0.000364 -0.000238 -0.000640
N -1.642479 -0.971581 1.749420 0.000015 0.000255 -0.000032
N -1.561880 -0.925308 6.973268 0.000213 -0.000088 -0.000015
N -1.568374 -0.927542 -3.290406 -0.000079 0.000209 0.000118
