108
Energy=-1672602.273130 Lattice="9.543749 0.000000 0.000000 -4.774370 8.264539 0.000000 -0.001590 -0.004063 15.430608" Stress="0.000002 -0.000001 -0.000001 -0.000001 0.000002 -0.000000 -0.000001 -0.000000 -0.000005" Properties=species:S:1:pos:R:3:forces:R:3
Al 1.580168 0.874939 2.454267 0.000491 0.000276 0.000443
Al 1.579516 0.924191 7.601035 -0.000368 -0.012838 -0.017772
Al 1.563077 0.896234 -2.742525 0.000021 -0.000023 0.000799
Al -0.015998 3.646962 2.398662 -0.000096 -0.000260 -0.000033
Al -0.017706 3.635715 7.590902 -0.000904 0.000738 -0.000778
Ga -0.023675 3.629300 -2.722943 -0.000010 0.000103 0.000238
Al 3.178118 -1.873617 2.422480 -0.001742 0.000840 -0.004214
Al 3.163180 -1.881474 7.557532 -0.002047 0.001143 -0.001046
Ga 3.166156 -1.885050 -2.698836 0.000172 -0.000096 0.000358
Al -4.794366 0.861614 2.424613 -0.001563 0.001417 -0.002620
Ga -4.819175 0.876458 7.560407 0.000466 -0.000742 -0.000177
Ga -4.796824 0.885504 -2.711028 0.000141 -0.000158 0.000388
Ga -6.408307 3.626036 2.440122 0.000140 -0.000555 -0.000003
Al -6.398703 3.614466 7.549630 0.000048 0.002465 -0.001704
Al -6.394915 3.628890 -2.714884 -0.000063 0.000110 0.000455
Al -3.222576 -1.883265 2.417522 0.000160 -0.000185 -0.000004
Al -3.210179 -1.890411 7.549410 0.000168 0.000082 -0.000291
Al -3.202161 -1.879141 -2.692327 -0.000028 0.000012 0.000156
Ga -1.622996 0.881772 2.437343 0.000163 0.000093 -0.000131
Ga -1.610983 0.873196 7.552867 0.000176 -0.000446 -0.000418
Al -1.607162 0.887650 -2.714458 -0.000096 -0.000177 0.000237
Ga -3.193842 3.625333 2.431209 -0.000070 -0.000114 -0.000122
Ga -3.203334 3.636572 7.553843 0.000079 0.000305 -0.000338
Al -3.193579 3.629966 -2.705375 0.000013 -0.000063 0.000178
Ga -0.015768 -1.866287 2.459759 0.000013 -0.000190 -0.000478
Ga -0.026971 -1.879203 7.538362 0.002072 0.001291 -0.001128
Ga -0.027523 -1.872787 -2.720237 -0.000195 -0.000151 0.000166
Ga -0.012376 1.792456 4.995553 0.001121 -0.000910 0.000175
Al -0.012787 1.803114 -5.300713 -0.001734 0.000959 0.001372
Ga -0.023791 1.806195 -0.139456 0.000042 -0.000010 0.000283
Ga 3.157939 -3.709217 4.990156 -0.000112 -0.000222 0.000484
Al 3.163974 -3.716215 -5.302099 -0.000212 0.000176 0.000106
Al 3.166303 -3.714563 -0.131043 -0.000102 0.000230 0.000306
Al 1.571160 -0.956717 4.983495 0.001543 0.002915 0.006340
Ga 1.584210 -0.940697 -5.308516 -0.000042 -0.002139 -0.000070
Ga 1.584681 -0.949693 -0.129853 0.000122 -0.000024 0.000586
Al 3.163501 1.792989 4.996886 -0.000682 -0.001894 -0.004588
Al 3.138225 1.807292 -5.294374 0.001618 0.000753 0.001911
Ga 3.156564 1.794682 -0.138284 0.000125 -0.000003 0.000731
Ga 6.346746 -3.711936 5.013998 -0.000015 -0.000142 0.000047
Ga 6.341490 -3.721641 -5.305912 -0.000147 0.000422 0.000145
Al 6.327265 -3.699053 -0.147473 0.000693 -0.000535 -0.000372
Ga 4.748715 -0.948089 4.977857 -0.000041 0.000115 0.000566
Ga 4.745903 -0.966522 -5.301406 -0.000023 -0.000369 0.000113
Al 4.759226 -0.967985 -0.120172 -0.000160 0.000133 0.000262
Al -3.222248 1.791519 4.986940 0.000105 -0.000052 -0.000120
Ga -3.196290 1.809057 -5.269604 0.000087 0.000153 0.000181
Al -3.201360 1.799997 -0.159822 -0.000187 -0.000090 0.000271
Al -0.026456 -3.717721 5.004089 0.000004 -0.000102 0.000175
Ga -0.022962 -3.733346 -5.280527 0.000462 0.000240 0.000134
Ga -0.017007 -3.727380 -0.157874 -0.000134 -0.000067 0.000219
Al -1.617389 -0.964578 4.989058 0.000045 0.000163 0.000315
Ga -1.622858 -0.949560 -5.274827 -0.000018 -0.000274 0.000092
Ga -1.639023 -0.953840 -0.146128 -0.000016 0.000019 0.000113
N 1.610543 0.853579 4.368034 0.000221 0.000324 -0.000939
N 1.570685 0.932446 -5.946995 0.000273 0.001808 0.007542
N 1.565800 0.883310 -0.833004 -0.000023 -0.000033 -0.000409
N -0.018990 3.636804 4.309371 0.000038 0.000141 0.000082
N -0.064874 3.610538 -5.915977 0.000430 -0.000494 0.000094
N -0.027355 3.681049 -0.736737 0.000028 0.000001 -0.000225
N 3.120264 -1.856251 4.324633 0.000099 -0.000015 0.001966
N 3.158913 -1.924378 -5.957174 0.000161 0.000269 0.000592
N 3.203939 -1.901614 -0.715164 0.000073 0.000029 -0.000411
N -4.794954 0.923618 4.341909 -0.000617 0.000474 0.002453
N -4.838886 0.910081 -5.886425 -0.000492 0.000112 -0.000174
N -4.758922 0.850188 -0.726228 0.000088 -0.000091 -0.000407
N -6.352712 3.610253 4.416126 0.000136 0.000062 -0.000065
N -6.383002 3.584352 -5.962801 -0.000382 -0.000953 0.000196
N -6.435345 3.652687 -0.796249 -0.000344 0.000311 -0.000177
N -3.166418 -1.862055 4.331568 -0.000036 -0.000029 0.000003
N -3.198538 -1.873903 -5.976757 -0.000033 -0.000026 0.000129
N -3.251578 -1.899560 -0.775073 -0.000053 0.000128 -0.000106
N -1.656067 0.857737 4.416661 -0.000032 -0.000020 0.000183
N -1.574426 0.903253 -5.901512 0.000466 -0.000007 0.000111
N -1.646683 0.907022 -0.796553 0.000068 -0.000031 -0.000236
N -3.244026 3.609081 4.410478 -0.000064 0.000097 0.000098
N -3.166162 3.656883 -5.907311 -0.000062 -0.000116 0.000128
N -3.153053 3.614039 -0.779422 0.000057 -0.000014 -0.000201
N -0.017403 -1.875351 4.450435 -0.001320 -0.001034 -0.001160
N -0.024850 -1.877452 -5.912511 -0.000169 0.000197 0.000701
N -0.019951 -1.869516 -0.756267 0.000052 -0.000051 -0.000316
N 0.023318 1.812244 1.847214 -0.000241 0.000196 -0.000250
N 0.020134 1.824981 6.976278 -0.000105 0.001783 0.001955
N -0.023326 1.752533 -3.370002 0.000244 -0.000063 -0.000554
N 3.195983 -3.691179 1.790299 0.000283 -0.000032 0.000207
N 3.209008 -3.693407 6.968874 0.000315 -0.000394 0.000086
N 3.120073 -3.732903 -3.381942 -0.000002 0.000048 -0.000159
N 1.607292 -0.928942 1.848063 0.001164 -0.000808 0.000766
N 1.615309 -0.932321 6.926634 -0.000058 0.004998 0.001897
N 1.579004 -0.909928 -3.331684 -0.000023 0.000524 -0.000629
N 3.153003 1.747989 1.840363 0.001102 -0.000402 0.000068
N 3.115169 1.813344 6.900328 -0.000242 0.001683 0.005787
N 3.115800 1.826391 -3.364884 -0.000224 -0.000106 -0.000657
N 6.305463 -3.687462 1.775056 -0.000167 0.000173 0.000173
N 6.331827 -3.719152 7.001494 0.000718 -0.000868 0.000556
N 6.383749 -3.684084 -3.318137 0.000055 -0.000050 -0.000276
N 4.754137 -0.960333 1.813407 -0.000019 0.000122 -0.000330
N 4.746539 -1.006798 6.963049 0.000394 0.000125 0.000009
N 4.792145 -0.984374 -3.326432 -0.000016 0.000072 -0.000214
N -3.244788 1.773711 1.759640 -0.000051 -0.000272 0.000226
N -3.214370 1.789646 6.892194 -0.000105 0.000071 0.000208
N -3.162959 1.822809 -3.293016 -0.000016 0.000046 -0.000210
N -0.024314 -3.714307 1.810606 -0.000016 0.000097 -0.000014
N -0.067332 -3.744571 6.913155 -0.000426 -0.000569 0.000201
N -0.020715 -3.768517 -3.292369 -0.000038 -0.000004 -0.000225
N -1.654549 -0.982968 1.827393 -0.000039 0.000088 -0.000076
N -1.662920 -0.985783 6.898983 -0.000533 0.000064 0.000114
N -1.662661 -0.931828 -3.292694 -0.000006 0.000118 -0.000053
