108
Energy=-2.450786e+06 Lattice="9.643361e+00 0.000000e+00 0.000000e+00 -4.822313e+00 8.350943e+00 0.000000e+00 -9.908270e-04 -6.106354e-04 1.564780e+01" Stress="-6.582998e-06 2.994119e-06 7.866786e-06 1.114386e-07 -1.167932e-05 2.347442e-06 -6.740509e-06 -1.840520e-07 7.114376e-06" Properties=species:S:1:pos:R:3:forces:R:3 Config_type=AlGaN_super3_44_2_17.xyz
Al 1.574266e+00 8.892830e-01 2.460911e+00 -4.054657e-06 1.600817e-05 -9.645695e-07
Al 1.591600e+00 8.872751e-01 7.673411e+00 -2.852705e-07 -4.442785e-06 6.336953e-06
Ga 1.578606e+00 8.972604e-01 -2.752044e+00 3.655156e-06 5.414592e-06 5.498363e-06
Al -1.268278e-02 3.663638e+00 2.475015e+00 1.701588e-06 5.473064e-06 -1.978556e-07
Ga -1.154942e-02 3.667957e+00 7.666089e+00 1.879850e-06 2.018350e-06 7.497869e-06
Al -2.327533e-02 3.669109e+00 -2.756212e+00 -1.134501e-06 -5.868501e-06 2.438978e-06
Ga 3.189900e+00 -1.891476e+00 2.452826e+00 -3.860267e-06 -8.310841e-06 -6.079111e-06
Ga 3.188337e+00 -1.881581e+00 7.671190e+00 9.895326e-06 1.031891e-05 9.209089e-06
Ga 3.198332e+00 -1.899117e+00 -2.741283e+00 -2.890431e-06 -9.261035e-07 1.099559e-06
Ga -4.853922e+00 8.797035e-01 2.458252e+00 -1.584091e-05 -5.159691e-06 4.192108e-06
Al -4.850519e+00 8.914213e-01 7.685072e+00 2.183221e-06 4.436495e-06 -6.667127e-07
Ga -4.841827e+00 8.878123e-01 -2.756565e+00 3.897365e-06 -6.469699e-07 -3.918852e-06
Ga -6.466356e+00 3.670936e+00 2.474533e+00 3.438310e-06 5.927422e-06 2.321022e-06
Ga -6.463238e+00 3.660729e+00 7.659565e+00 7.717614e-06 -1.904510e-06 2.036611e-06
Ga -6.461310e+00 3.669110e+00 -2.751796e+00 1.055061e-06 -5.081588e-07 6.561409e-06
Ga -3.242566e+00 -1.905230e+00 2.460563e+00 -3.527559e-06 4.619744e-07 1.578899e-05
Ga -3.235889e+00 -1.896944e+00 7.676088e+00 -2.407470e-06 -2.191260e-06 6.352568e-06
Ga -3.239403e+00 -1.896096e+00 -2.753229e+00 -6.055357e-06 1.396504e-06 1.089821e-06
Ga -1.610548e+00 8.908928e-01 2.464876e+00 -8.871025e-06 -4.541380e-07 2.384702e-06
Ga -1.632554e+00 8.856197e-01 7.691668e+00 -3.124959e-06 5.398917e-06 5.000701e-06
Ga -1.630303e+00 8.929242e-01 -2.775952e+00 3.487059e-06 -5.502616e-06 -2.340357e-06
Ga -3.232019e+00 3.677261e+00 2.462915e+00 -2.115058e-05 -4.071023e-06 1.503083e-05
Ga -3.239560e+00 3.660787e+00 7.687910e+00 8.543597e-06 -5.086155e-06 5.280063e-06
Ga -3.229813e+00 3.664069e+00 -2.763227e+00 -1.682410e-06 5.397289e-06 4.058600e-07
Al -1.761854e-02 -1.887534e+00 2.464576e+00 1.892989e-06 1.616411e-05 5.077729e-06
Ga -2.163130e-02 -1.882128e+00 7.687474e+00 3.168566e-06 6.840715e-06 8.960390e-06
Ga -2.936839e-02 -1.890519e+00 -2.763472e+00 2.363773e-07 1.254678e-07 2.884319e-06
Ga -7.847664e-03 1.823261e+00 5.064191e+00 -2.173098e-06 -4.271209e-07 1.414042e-05
Ga -2.904256e-02 1.810620e+00 -5.369587e+00 9.829341e-07 -3.934852e-06 2.342725e-06
Ga -2.110421e-02 1.827318e+00 -1.345063e-01 3.572840e-06 2.630657e-06 9.524812e-06
Ga 3.207581e+00 -3.755411e+00 5.056989e+00 8.432905e-06 7.426421e-06 1.143414e-05
Ga 3.193398e+00 -3.759201e+00 -5.351603e+00 -1.400137e-06 5.175092e-06 5.217127e-06
Ga 3.208918e+00 -3.753073e+00 -1.423962e-01 1.348173e-05 -3.347388e-07 -3.762912e-06
Ga 1.577135e+00 -9.592175e-01 5.058587e+00 1.591665e-06 -6.060177e-06 2.958933e-06
Ga 1.577169e+00 -9.598990e-01 -5.369471e+00 -3.456576e-06 1.597029e-06 8.008355e-06
Ga 1.586017e+00 -9.657202e-01 -1.258786e-01 5.338919e-06 -4.176200e-06 1.099758e-06
Ga 3.181562e+00 1.810755e+00 5.077910e+00 -6.658047e-07 5.892533e-07 -6.078346e-07
Ga 3.200286e+00 1.810370e+00 -5.386805e+00 4.611809e-06 6.233066e-06 1.187325e-05
Ga 3.193598e+00 1.805649e+00 -1.313599e-01 7.867532e-06 1.035607e-06 -8.440524e-07
Al 6.398394e+00 -3.753528e+00 5.055236e+00 -5.479180e-06 -6.907437e-06 4.292391e-06
Ga 6.407401e+00 -3.743507e+00 -5.349398e+00 4.753018e-06 -6.684476e-06 1.369911e-05
Ga 6.389767e+00 -3.750015e+00 -1.452440e-01 3.047487e-07 4.985097e-06 1.689207e-06
Ga 4.805945e+00 -9.710242e-01 5.086687e+00 4.702727e-06 -2.485590e-06 -5.461099e-07
Ga 4.813760e+00 -9.536069e-01 -5.378504e+00 1.374402e-05 1.225519e-05 1.319923e-05
Al 4.800125e+00 -9.667645e-01 -1.466025e-01 6.402377e-06 4.490833e-06 -4.972291e-06
Ga -3.241036e+00 1.812043e+00 5.083170e+00 1.954549e-06 -1.396294e-06 -6.600912e-06
Al -3.240222e+00 1.803562e+00 -5.375310e+00 1.030919e-06 8.132282e-06 -3.021430e-06
Ga -3.242405e+00 1.805696e+00 -1.464787e-01 1.012687e-05 6.003466e-06 4.934222e-06
Ga -3.002209e-02 -3.743205e+00 5.064810e+00 -8.351498e-06 5.050507e-06 8.821606e-06
Ga -2.369523e-02 -3.750301e+00 -5.368272e+00 2.980525e-07 -7.360214e-06 1.418370e-05
Ga -2.368360e-02 -3.746923e+00 -1.329825e-01 1.410760e-05 5.094595e-06 7.584159e-06
Ga -1.629912e+00 -9.792484e-01 5.057942e+00 -1.339098e-06 1.583807e-06 4.855305e-05
Al -1.636131e+00 -9.598113e-01 -5.364519e+00 6.644100e-06 4.234823e-07 9.727035e-07
Ga -1.637294e+00 -9.693937e-01 -1.329070e-01 1.654983e-05 1.320032e-05 6.249609e-06
N 1.585303e+00 8.892981e-01 4.376912e+00 -4.306333e-06 -6.787600e-07 -7.250819e-06
N 1.582393e+00 8.894821e-01 -6.056082e+00 -5.021250e-06 2.025718e-07 -1.021209e-05
N 1.581560e+00 8.882219e-01 -7.758047e-01 -6.810822e-06 7.401180e-07 2.787787e-06
N 2.066486e-02 3.691846e+00 4.399600e+00 1.104020e-06 -5.774246e-07 -1.282637e-05
N -1.814103e-02 3.674704e+00 -6.007695e+00 -1.418269e-05 -1.042286e-05 -7.095753e-06
N -2.330319e-02 3.667156e+00 -8.408991e-01 -7.540229e-06 3.449056e-06 -5.223143e-06
N 3.195152e+00 -1.890780e+00 4.434525e+00 -1.637372e-06 1.065279e-05 -6.144652e-06
N 3.191492e+00 -1.897094e+00 -5.997506e+00 -1.342318e-05 -4.482567e-06 -1.416119e-05
N 3.229934e+00 -1.871287e+00 -7.499032e-01 -4.558258e-06 1.709200e-06 4.052992e-06
N -4.846685e+00 8.841564e-01 4.433801e+00 2.402867e-06 8.953707e-06 6.705943e-06
N -4.802101e+00 9.142718e-01 -6.041492e+00 -6.575899e-06 -1.061112e-05 -6.438440e-06
N -4.846019e+00 8.406874e-01 -7.689071e-01 -1.467891e-05 -1.056732e-05 2.023417e-06
N -6.495000e+00 3.690736e+00 4.462506e+00 4.162742e-06 -4.803302e-06 -4.587006e-06
N -6.458492e+00 3.675804e+00 -6.009012e+00 -7.991447e-06 -9.239707e-07 -8.611003e-06
N -6.453566e+00 3.669542e+00 -7.691990e-01 -2.980920e-06 -5.180081e-06 -2.002143e-06
N -3.243037e+00 -1.943087e+00 4.446831e+00 -2.499723e-06 -3.736887e-06 -7.219029e-06
N -3.191926e+00 -1.876643e+00 -5.986284e+00 -1.404389e-05 -1.355010e-06 -3.764837e-06
N -3.276921e+00 -1.870268e+00 -7.635243e-01 -1.294282e-05 -4.164054e-06 2.029643e-06
N -1.627743e+00 8.912047e-01 4.442430e+00 6.370071e-06 -8.195890e-07 -3.598633e-06
N -1.671223e+00 8.637973e-01 -5.961123e+00 -6.969068e-06 -4.073736e-06 1.439084e-06
N -1.627309e+00 8.868811e-01 -7.872408e-01 -2.868829e-06 3.658185e-07 -2.306782e-06
N -3.237827e+00 3.669541e+00 4.439517e+00 4.987952e-06 4.031346e-06 -1.539159e-06
N -3.234730e+00 3.623217e+00 -5.974197e+00 1.126814e-06 2.580282e-06 -1.589172e-06
N -3.236696e+00 3.670652e+00 -7.781520e-01 -1.145345e-05 1.650619e-06 -3.358641e-06
N -2.065529e-02 -1.894976e+00 4.380009e+00 -1.238318e-06 -5.797673e-06 -6.164382e-06
N -6.654670e-02 -1.867862e+00 -5.978050e+00 1.190291e-06 5.770052e-06 -8.691459e-06
N -2.490878e-02 -1.891822e+00 -7.842437e-01 -3.287117e-07 2.449259e-06 -3.673690e-06
N 2.016534e-02 1.846193e+00 1.860534e+00 5.043289e-06 -1.245434e-05 -3.237899e-06
N 1.904608e-02 1.788857e+00 7.055554e+00 4.156110e-06 1.008342e-06 -9.873498e-06
N -2.085708e-02 1.864470e+00 -3.383954e+00 1.488288e-06 2.178486e-06 -3.488133e-06
N 3.242566e+00 -3.779965e+00 1.846755e+00 -1.263070e-06 -5.739866e-06 -3.765770e-06
N 3.192238e+00 -3.753261e+00 7.037317e+00 1.815332e-07 -2.900159e-06 -1.228740e-05
N 3.234860e+00 -3.773139e+00 -3.365979e+00 7.506294e-06 -1.551212e-06 1.504729e-06
N 1.541070e+00 -9.419178e-01 1.865163e+00 -5.106881e-07 -1.520838e-06 -1.392474e-06
N 1.579405e+00 -9.174260e-01 7.047443e+00 -1.718085e-06 -6.139743e-06 -6.685701e-06
N 1.587812e+00 -9.647108e-01 -3.389935e+00 -1.158008e-06 -1.204195e-06 -3.474231e-06
N 3.148242e+00 1.792092e+00 1.850808e+00 5.819009e-06 -7.822741e-06 -2.721955e-06
N 3.190201e+00 1.761861e+00 7.074378e+00 -2.172378e-06 -1.909661e-06 3.745225e-07
N 3.191799e+00 1.812822e+00 -3.403669e+00 1.069123e-06 -4.589419e-06 -2.331657e-06
N 6.360540e+00 -3.778593e+00 1.837069e+00 -7.256215e-06 -1.247085e-05 1.835993e-06
N 6.402555e+00 -3.748392e+00 6.975196e+00 4.330841e-07 -2.971769e-06 -1.190668e-05
N 6.363768e+00 -3.773272e+00 -3.365559e+00 4.203385e-06 3.357058e-06 -4.601650e-06
N 4.800975e+00 -9.688581e-01 1.770724e+00 1.367787e-06 4.472637e-06 -4.452941e-06
N 4.801848e+00 -9.179293e-01 7.070477e+00 1.626332e-06 8.178537e-07 -2.611941e-06
N 4.798143e+00 -9.659456e-01 -3.400688e+00 -1.673326e-06 2.103454e-06 1.679668e-06
N -3.236369e+00 1.812925e+00 1.828100e+00 9.961123e-06 -2.062217e-08 -9.554764e-06
N -3.279039e+00 1.789107e+00 7.065121e+00 -1.850151e-06 1.200820e-06 -1.230809e-06
N -3.243243e+00 1.812753e+00 -3.451129e+00 1.218949e-06 7.776980e-07 -2.503130e-06
N -2.576444e-02 -3.703867e+00 1.854223e+00 -6.849588e-07 -2.545258e-07 -1.122294e-05
N -2.112180e-02 -3.745608e+00 7.046182e+00 3.020987e-06 -3.474779e-07 -7.159579e-06
N -2.425424e-02 -3.753216e+00 -3.390194e+00 2.373613e-06 -1.149011e-06 -4.261488e-06
N -1.591136e+00 -9.924674e-01 1.851732e+00 -8.716603e-08 -1.418159e-05 -1.132515e-05
N -1.628825e+00 -9.671213e-01 7.033159e+00 6.402873e-06 -1.578876e-06 -4.541820e-05
N -1.634423e+00 -9.681768e-01 -3.443717e+00 1.709208e-06 2.081256e-06 -4.170838e-06
