108
Energy=-8.028675e+05 Lattice="9.461061e+00 0.000000e+00 0.000000e+00 -4.737311e+00 8.181719e+00 0.000000e+00 -5.505882e-04 8.239805e-03 1.522508e+01" Stress="6.115651e-03 2.405393e-03 1.810801e-04 2.404875e-03 5.222573e-03 2.647271e-04 1.732400e-04 2.605796e-04 1.087207e-02" Properties=species:S:1:pos:R:3:forces:R:3 Config_type=AlGaN_super3_8_1_7.xyz
Al 1.558629e+00 8.706339e-01 2.403226e+00 2.601928e-03 6.862765e-03 -2.380539e-03
Al 1.549730e+00 8.757569e-01 7.464063e+00 1.862107e-03 4.653276e-03 2.588051e-03
Al 1.551648e+00 8.720073e-01 -2.717013e+00 2.435314e-03 -3.402369e-03 1.615851e-03
Al -1.432052e-02 3.577194e+00 2.396112e+00 1.132967e-02 -6.200622e-03 5.922150e-03
Al -2.384711e-02 3.596524e+00 7.473081e+00 1.166977e-03 3.415686e-04 -4.491291e-04
Al -1.492696e-02 3.585697e+00 -2.705242e+00 1.452105e-03 1.908148e-03 1.753637e-03
Al 3.128604e+00 -1.884635e+00 2.420770e+00 4.553745e-03 9.011135e-03 -4.490425e-04
Al 3.131895e+00 -1.853866e+00 7.465580e+00 4.908461e-03 5.518213e-04 5.674673e-04
Al 3.147053e+00 -1.876499e+00 -2.737038e+00 -3.791973e-03 9.534660e-03 1.354992e-02
Al -4.756396e+00 8.921607e-01 2.407103e+00 2.913193e-04 -3.992053e-04 -1.033999e-03
Al -4.770010e+00 8.894922e-01 7.459983e+00 2.109715e-03 -4.638643e-03 -1.044180e-03
Al -4.762748e+00 8.800880e-01 -2.692483e+00 -2.562001e-03 -1.143904e-03 -8.004842e-03
Al -6.346268e+00 3.603990e+00 2.388606e+00 1.454029e-02 -5.933657e-05 -2.593762e-03
Al -6.344027e+00 3.599839e+00 7.463908e+00 -4.241440e-04 8.390300e-04 9.785126e-04
Al -6.345475e+00 3.597896e+00 -2.708625e+00 1.914485e-05 -1.424347e-03 1.613212e-03
Al -3.195557e+00 -1.863572e+00 2.390963e+00 1.571455e-03 -1.731047e-03 4.368484e-04
Al -3.180324e+00 -1.858635e+00 7.463657e+00 -6.558401e-03 -1.911712e-03 3.468022e-03
Al -3.163417e+00 -1.862032e+00 -2.701837e+00 -2.996234e-03 -3.854387e-04 2.728180e-03
Al -1.612583e+00 8.728739e-01 2.386740e+00 1.792081e-03 -5.654404e-03 -3.455466e-03
Al -1.619774e+00 8.918601e-01 7.473850e+00 6.283214e-04 1.626287e-03 1.125884e-04
Al -1.619089e+00 8.762592e-01 -2.706158e+00 5.558035e-03 -2.191377e-03 7.385959e-04
Al -3.123428e+00 3.601703e+00 2.443479e+00 -1.076304e-02 -1.755439e-02 -2.888926e-03
Al -3.198622e+00 3.601893e+00 7.475506e+00 2.356164e-03 -6.570268e-05 -1.060416e-03
Ga -3.193677e+00 3.604224e+00 -2.686560e+00 5.315528e-03 2.120703e-03 1.333127e-04
Ga 2.357439e-02 -1.883676e+00 2.398856e+00 -6.683323e-04 9.611537e-04 -5.464777e-03
Ga -3.299841e-02 -1.839477e+00 7.483850e+00 4.563337e-03 -2.423265e-04 -2.328218e-03
Al -3.260076e-02 -1.850132e+00 -2.709059e+00 5.207296e-03 7.233611e-04 1.869480e-03
Al -1.521112e-02 1.782161e+00 4.937417e+00 -4.976672e-03 -5.387265e-05 7.861201e-04
Al -2.444007e-02 1.774493e+00 -5.237354e+00 -2.791575e-03 -2.635069e-04 5.175515e-04
Al -8.203306e-03 1.764719e+00 -1.566657e-01 -3.139039e-03 -3.040119e-04 -1.816575e-03
Ga 3.130784e+00 -3.682979e+00 4.948958e+00 -3.701665e-03 -1.487786e-03 -1.562981e-03
Al 3.135377e+00 -3.689138e+00 -5.241214e+00 -1.056104e-03 4.426329e-04 1.535195e-03
Ga 3.146401e+00 -3.685549e+00 -1.224746e-01 -2.121737e-03 -9.774283e-04 3.480709e-03
Al 1.569245e+00 -9.270660e-01 4.944465e+00 2.115649e-03 -3.575478e-04 1.034063e-03
Al 1.564134e+00 -9.598497e-01 -5.227768e+00 -2.887433e-03 4.542225e-03 9.006440e-04
Al 1.576375e+00 -9.478250e-01 -1.966083e-01 -4.966515e-03 2.740124e-03 8.036064e-03
Al 3.120746e+00 1.791885e+00 4.935615e+00 1.918495e-03 7.694202e-04 -7.689634e-05
Al 3.118233e+00 1.787197e+00 -5.240329e+00 -9.876488e-04 -5.827101e-04 2.135326e-03
Al 3.134782e+00 1.778698e+00 -1.702910e-01 -5.410342e-03 3.350906e-03 4.411728e-03
Al 6.282098e+00 -3.681478e+00 4.932211e+00 7.305919e-06 5.541597e-04 1.579435e-03
Al 6.290092e+00 -3.683592e+00 -5.235069e+00 -9.469632e-04 9.884877e-05 1.508421e-03
Al 6.310706e+00 -3.688716e+00 -1.538991e-01 -2.826693e-03 2.293383e-03 -2.876387e-03
Al 4.707382e+00 -9.451676e-01 4.937462e+00 -1.894334e-05 3.580666e-03 1.536977e-04
Ga 4.712867e+00 -9.577845e-01 -5.221827e+00 -5.651904e-04 4.698222e-03 8.427059e-04
Ga 4.723986e+00 -9.350345e-01 -1.496995e-01 -1.683534e-03 5.893490e-04 -1.380315e-03
Al -3.195600e+00 1.790222e+00 4.936750e+00 -1.488831e-03 -4.173014e-03 2.573848e-03
Al -3.193144e+00 1.788052e+00 -5.240602e+00 -4.681622e-04 -4.017109e-04 1.113941e-03
Al -3.180800e+00 1.785432e+00 -1.613006e-01 -2.658521e-03 -1.986969e-03 6.917162e-03
Al -4.257964e-02 -3.663844e+00 4.938207e+00 2.635127e-03 -1.326609e-02 3.896374e-03
Al -3.426394e-02 -3.672959e+00 -5.228643e+00 -1.355819e-04 -1.658519e-03 1.246482e-05
Al -1.852390e-02 -3.678871e+00 -1.699245e-01 -4.308365e-03 3.616275e-03 8.035583e-03
Ga -1.597039e+00 -9.557653e-01 4.944407e+00 -2.266805e-03 4.685011e-03 -3.219082e-03
Al -1.595065e+00 -9.478445e-01 -5.224260e+00 -3.657432e-03 4.089119e-03 -1.377142e-04
Al -1.584556e+00 -9.513705e-01 -1.576603e-01 -2.102336e-03 3.358057e-04 -1.869811e-03
N 1.549450e+00 8.885294e-01 4.336537e+00 -2.831269e-04 -4.571964e-03 -2.904030e-03
N 1.544407e+00 8.710120e-01 -5.834954e+00 1.337347e-03 -3.400352e-03 4.779290e-06
N 1.556307e+00 8.720338e-01 -7.861769e-01 1.362497e-03 -1.084697e-03 3.784148e-04
N -1.829950e-03 3.579495e+00 4.326134e+00 6.950787e-03 -4.226518e-03 -3.373507e-03
N -2.263513e-02 3.592267e+00 -5.834529e+00 -5.930521e-04 -3.070012e-04 9.084081e-04
N 9.044799e-03 3.575268e+00 -7.727226e-01 4.028978e-03 -2.956075e-03 -1.158992e-03
N 3.130468e+00 -1.828431e+00 4.338309e+00 -7.471895e-04 6.275113e-03 -3.693859e-03
N 3.109896e+00 -1.877206e+00 -5.843522e+00 -6.176668e-03 -4.182497e-03 -2.218987e-03
N 3.123446e+00 -1.850901e+00 -7.934774e-01 -5.262687e-03 -4.481746e-04 -3.263526e-03
N -4.767831e+00 8.867730e-01 4.338323e+00 7.164182e-04 -4.538446e-03 -4.165607e-04
N -4.772244e+00 9.068815e-01 -5.846997e+00 1.897142e-03 3.113535e-03 -2.722579e-03
N -4.771707e+00 9.242948e-01 -8.137206e-01 7.959300e-03 4.094526e-04 1.254053e-02
N -6.344310e+00 3.608916e+00 4.326233e+00 -2.879203e-04 8.335651e-04 -3.248917e-03
N -6.341894e+00 3.599261e+00 -5.837510e+00 1.028692e-03 1.316237e-04 -1.061546e-03
N -6.329561e+00 3.594600e+00 -7.796499e-01 4.529022e-04 1.084901e-03 2.952971e-03
N -3.202793e+00 -1.876698e+00 4.318574e+00 -5.527686e-03 -2.594905e-03 -3.525091e-03
N -3.148813e+00 -1.876810e+00 -5.839764e+00 6.355001e-03 -3.296949e-03 -1.964177e-03
N -3.141072e+00 -1.875703e+00 -7.756305e-01 5.944573e-03 -3.268034e-03 -1.930554e-03
N -1.618291e+00 9.140424e-01 4.317983e+00 5.727520e-03 1.581992e-03 -3.353645e-03
N -1.623831e+00 8.833401e-01 -5.831273e+00 4.900433e-03 -3.103981e-03 9.723035e-04
N -1.613799e+00 8.797173e-01 -7.750660e-01 3.423963e-03 -1.955243e-03 2.946013e-03
N -3.243550e+00 3.569530e+00 4.335714e+00 3.992729e-03 4.860540e-03 1.296692e-03
N -3.199884e+00 3.603488e+00 -5.829732e+00 2.946774e-03 6.644785e-04 1.367777e-03
N -3.231046e+00 3.588241e+00 -7.149533e-01 1.024423e-02 -3.709468e-03 -6.801551e-03
N 3.018747e-02 -1.892612e+00 4.378627e+00 9.399183e-04 1.043577e-02 -2.291860e-03
N -2.959990e-02 -1.852984e+00 -5.790807e+00 3.491277e-03 1.996312e-04 7.382784e-03
N -2.075852e-02 -1.854092e+00 -7.746854e-01 3.498596e-03 -4.423614e-04 4.919388e-04
N -1.409984e-02 1.767816e+00 1.771953e+00 -2.624485e-03 -2.734852e-03 2.192133e-03
N -2.256230e-02 1.782744e+00 6.867986e+00 -3.555251e-03 -2.316403e-03 -1.153652e-03
N -2.052442e-02 1.772024e+00 -3.312589e+00 -4.645915e-03 3.444119e-04 7.596603e-04
N 3.169750e+00 -3.730634e+00 1.917337e+00 -1.550762e-03 2.098190e-02 -1.779600e-02
N 3.135742e+00 -3.678622e+00 6.906145e+00 -3.353389e-03 -5.484235e-05 7.904601e-03
N 3.183802e+00 -3.642244e+00 -3.304463e+00 -1.693038e-03 -1.355817e-02 -9.082312e-03
N 1.621757e+00 -8.944680e-01 1.772643e+00 -1.216657e-03 -1.398859e-02 -6.946017e-03
N 1.602463e+00 -9.130247e-01 6.861501e+00 -3.566339e-03 -1.714940e-03 -3.467698e-03
N 1.574988e+00 -9.632566e-01 -3.310337e+00 -5.915059e-03 2.827147e-03 1.475308e-03
N 3.127400e+00 1.788923e+00 1.781864e+00 1.126958e-04 3.872758e-04 -1.639313e-03
N 3.120138e+00 1.792148e+00 6.862390e+00 -8.643986e-04 -4.606276e-04 -1.730190e-03
N 3.124666e+00 1.782249e+00 -3.315186e+00 -5.884236e-05 5.883398e-04 4.209120e-05
N 6.277803e+00 -3.677288e+00 1.770719e+00 4.137259e-03 -1.074112e-03 1.782079e-03
N 6.283926e+00 -3.672577e+00 6.861422e+00 -2.989924e-04 -3.761686e-04 -1.123946e-03
N 6.287608e+00 -3.678210e+00 -3.311208e+00 -3.011166e-04 5.205650e-04 6.318023e-05
N 4.693065e+00 -9.471973e-01 1.827991e+00 3.142669e-03 1.441887e-03 4.830447e-03
N 4.713046e+00 -9.491220e-01 6.867440e+00 -2.313868e-03 2.768278e-03 -9.737503e-04
N 4.698958e+00 -9.480273e-01 -3.249725e+00 9.040023e-03 1.961369e-03 6.471246e-04
N -3.173883e+00 1.800276e+00 1.784960e+00 1.099813e-03 -1.074102e-02 -1.182849e-03
N -3.190987e+00 1.791768e+00 6.865100e+00 7.147265e-04 -4.263346e-05 -5.924708e-04
N -3.188132e+00 1.759323e+00 -3.319394e+00 6.915746e-04 -6.906811e-03 -2.858896e-03
N 1.094856e-01 -3.744702e+00 1.761952e+00 -3.706706e-02 7.352558e-03 -1.079671e-03
N -3.202953e-02 -3.690484e+00 6.860826e+00 -7.255018e-06 -6.370765e-03 -2.701885e-03
N -5.495442e-02 -3.659677e+00 -3.315011e+00 -5.329509e-03 3.791921e-03 -1.336201e-03
N -1.619507e+00 -1.003672e+00 1.766160e+00 -1.693690e-03 1.915793e-02 2.649438e-03
N -1.653513e+00 -9.255407e-01 6.903196e+00 3.390776e-03 6.388935e-03 3.584175e-04
N -1.596637e+00 -9.486155e-01 -3.304884e+00 -2.604010e-03 3.321423e-03 1.933362e-04
