108
Energy=-711317.112703 Lattice="9.428177 0.000000 0.000000 -4.715554 8.162899 0.000000 0.000876 0.002003 15.146071" Stress="-0.000001 -0.000003 -0.000001 -0.000003 -0.000005 0.000001 -0.000001 0.000001 0.000008" Properties=species:S:1:pos:R:3:forces:R:3
Al 1.553411 0.874188 2.368390 -0.000204 0.000044 0.004397
Al 1.560530 0.871895 7.440707 -0.000780 -0.001480 -0.000274
Al 1.548026 0.874466 -2.685435 0.000106 -0.000228 -0.000443
Al -0.017140 3.591528 2.353092 -0.000095 -0.000012 0.001843
Al -0.013867 3.592687 7.448736 -0.001940 0.003244 0.001407
Al -0.015797 3.586794 -2.678200 -0.000163 0.000103 -0.000562
Al 3.129391 -1.851086 2.372835 0.000005 -0.000143 0.000092
Al 3.129797 -1.842307 7.435989 0.003072 -0.000771 0.002408
Al 3.133794 -1.849520 -2.683620 -0.000117 0.000064 -0.000135
Al -4.738699 0.868002 2.371973 0.000299 -0.000321 0.000079
Al -4.737470 0.870133 7.420953 0.000057 0.000104 0.000091
Al -4.743174 0.859025 -2.677090 0.000111 -0.000036 -0.000480
Al -6.317741 3.585510 2.359363 0.000026 0.000331 0.000076
Al -6.321963 3.579142 7.436662 -0.000378 -0.000557 0.000608
Al -6.317438 3.586758 -2.673283 0.000200 0.000169 -0.000465
Al -3.165428 -1.854875 2.365064 -0.000005 0.000123 -0.000267
Al -3.172230 -1.852354 7.425780 0.002124 0.001334 -0.000106
Al -3.167088 -1.851697 -2.675087 -0.000026 0.000003 -0.000468
Al -1.599532 0.866104 2.358460 0.000456 -0.000276 0.001110
Al -1.605473 0.873064 7.436389 -0.002251 0.000236 0.002493
Al -1.591761 0.861853 -2.673899 0.000267 -0.000117 -0.000577
Al -3.165178 3.584086 2.344041 0.000062 0.000047 0.000496
Al -3.160833 3.574507 7.452239 -0.000581 -0.000314 0.000730
Ga -3.166407 3.589827 -2.667721 0.000016 0.000101 -0.000639
Al -0.028885 -1.849045 2.374465 -0.000981 -0.000538 0.001407
Ga -0.010845 -1.844984 7.447606 -0.000210 0.000483 -0.000597
Al -0.032792 -1.849626 -2.686256 0.000359 -0.000247 -0.001259
Ga -0.019126 1.769700 4.922302 -0.000705 0.000125 -0.001069
Al -0.024908 1.772399 -5.199312 -0.000284 0.000228 -0.000697
Al -0.028377 1.780734 -0.156621 0.000122 0.000092 -0.000143
Ga 3.123603 -3.659044 4.911621 -0.000208 0.000185 0.000159
Al 3.125780 -3.665167 -5.205252 -0.000101 0.000394 -0.000941
Al 3.132637 -3.669515 -0.144703 0.000366 0.000080 -0.000016
Al 1.560253 -0.931108 4.886137 0.000647 -0.002628 0.003877
Al 1.556985 -0.943438 -5.176348 0.001525 0.000090 0.000162
Ga 1.549676 -0.949319 -0.155968 -0.000302 0.000343 -0.000589
Al 3.122814 1.769869 4.899788 0.003269 0.001785 0.002409
Al 3.121386 1.774292 -5.196021 0.000091 -0.000089 -0.000252
Al 3.124877 1.781306 -0.157924 -0.000295 -0.000192 -0.000399
Al 6.267482 -3.659231 4.897565 0.000895 0.000446 0.000839
Al 6.264460 -3.666009 -5.189078 -0.000155 -0.000208 -0.000123
Al 6.262823 -3.665183 -0.163755 0.000019 -0.000112 0.000032
Al 4.699137 -0.938158 4.897813 -0.000347 0.000021 0.000225
Al 4.693981 -0.944248 -5.200252 -0.000557 -0.000109 -0.000292
Al 4.701301 -0.944589 -0.153819 0.000414 0.000122 0.000369
Al -3.174512 1.763034 4.896494 0.000849 -0.000641 0.000488
Al -3.168969 1.766720 -5.197922 0.000165 0.000097 -0.000232
Al -3.169128 1.764033 -0.149068 0.000050 0.000486 -0.000260
Ga -0.031982 -3.673572 4.896662 0.000237 0.000050 0.000309
Al -0.029236 -3.673394 -5.195346 0.000601 -0.001913 0.000411
Al -0.036214 -3.668932 -0.140352 0.000320 -0.000114 -0.000497
Al -1.608967 -0.942036 4.889440 0.000804 -0.000449 0.002494
Al -1.602839 -0.941802 -5.182505 0.001331 -0.000567 -0.000771
Al -1.603740 -0.946848 -0.157406 0.000480 -0.000446 -0.000276
N 1.598248 0.857363 4.310504 -0.004398 -0.001116 -0.011155
N 1.551475 0.864131 -5.786883 -0.000041 -0.000136 0.000239
N 1.547073 0.916375 -0.775148 0.000279 0.000268 0.000747
N 0.019282 3.612368 4.271477 -0.001035 -0.000795 -0.003547
N -0.016333 3.588978 -5.787258 0.000230 0.000326 0.000593
N -0.024134 3.587833 -0.758059 0.000045 -0.000088 0.000492
N 3.128037 -1.806339 4.282023 0.000085 0.000177 -0.000959
N 3.120102 -1.846667 -5.794153 0.000785 0.000161 0.000978
N 3.167920 -1.876672 -0.770378 -0.000623 -0.000381 -0.000603
N -4.739099 0.869177 4.296344 0.000441 0.000014 -0.000359
N -4.739694 0.867554 -5.805628 0.000097 -0.000075 0.000123
N -4.739404 0.866145 -0.759126 0.000121 0.000110 0.000610
N -6.354986 3.562513 4.272834 -0.000112 0.000094 -0.000458
N -6.315959 3.585407 -5.795133 -0.000337 0.000105 0.000259
N -6.309079 3.588543 -0.755804 -0.000153 -0.000106 0.000699
N -3.167310 -1.854947 4.288926 0.000273 0.000287 0.000328
N -3.164338 -1.854552 -5.798678 0.000375 -0.000081 0.000088
N -3.166952 -1.851946 -0.758713 0.000158 0.000032 0.000609
N -1.629273 0.845031 4.278061 -0.001460 0.001816 -0.001815
N -1.598901 0.865049 -5.794836 0.000132 -0.000641 0.000976
N -1.595567 0.867914 -0.754690 0.000226 -0.000086 0.000693
N -3.163477 3.541637 4.255505 0.000204 -0.000140 -0.001189
N -3.167190 3.583765 -5.780103 0.000096 -0.000664 0.000467
N -3.166129 3.591870 -0.689749 -0.000482 -0.000711 0.000824
N -0.024757 -1.803543 4.295637 0.000316 0.000199 -0.002185
N -0.011273 -1.855291 -5.725107 -0.004019 0.003246 -0.000697
N -0.064125 -1.880254 -0.778027 -0.000849 0.000700 0.001879
N -0.023233 1.772805 1.765842 0.000351 -0.000137 0.000642
N -0.039019 1.782513 6.904152 0.006769 -0.002618 -0.003227
N -0.026530 1.774146 -3.280045 -0.000154 -0.000019 0.000438
N 3.125796 -3.662310 1.769498 0.000066 -0.000062 0.000300
N 3.114120 -3.659038 6.893843 0.002913 -0.003070 -0.000929
N 3.162708 -3.645845 -3.297791 0.000075 -0.000021 0.001036
N 1.545818 -0.948986 1.818314 0.001364 0.001357 0.000753
N 1.609993 -0.934615 6.812612 -0.006381 0.006675 -0.002993
N 1.553659 -0.946614 -3.260689 -0.000011 0.000463 0.000728
N 3.122574 1.773536 1.759804 -0.000461 -0.000459 0.000425
N 3.119129 1.776778 6.822665 -0.000235 0.000257 0.000614
N 3.122327 1.775808 -3.278812 -0.000017 -0.000104 0.000349
N 6.264524 -3.663520 1.753081 -0.000122 -0.000092 -0.000042
N 6.263311 -3.665490 6.822054 0.000172 0.000230 -0.000065
N 6.263853 -3.665902 -3.271315 0.000090 0.000016 0.000520
N 4.694780 -0.943916 1.766786 -0.000219 0.000237 -0.000206
N 4.694295 -0.944426 6.821038 0.001063 0.000100 -0.000293
N 4.695643 -0.944949 -3.283950 0.000045 0.000166 0.000429
N -3.170104 1.766244 1.761976 0.000134 -0.000002 0.000081
N -3.165576 1.777331 6.821329 -0.000365 -0.000154 -0.000289
N -3.167519 1.726045 -3.288191 -0.000083 -0.000249 0.000468
N -0.029489 -3.662709 1.777634 0.000021 0.000098 -0.000088
N -0.024396 -3.717742 6.870575 0.000765 0.000471 -0.000643
N -0.065287 -3.650129 -3.290203 -0.000310 -0.000285 0.000596
N -1.595341 -0.948169 1.762551 -0.000092 0.000203 -0.000293
N -1.619717 -0.912151 6.813736 -0.004152 -0.004100 -0.002492
N -1.600524 -0.943384 -3.271236 -0.000242 0.000163 0.000363
