108
Energy=-6.655384e+05 Lattice="9.475358e+00 0.000000e+00 0.000000e+00 -4.738675e+00 8.204934e+00 0.000000e+00 -8.213302e-04 -1.337266e-03 1.526890e+01" Stress="1.210219e-02 4.812560e-03 2.615307e-06 4.797623e-03 1.699237e-02 -8.761001e-05 -1.679205e-07 -8.471393e-05 2.298463e-02" Properties=species:S:1:pos:R:3:forces:R:3 Config_type=AlGaN_super3_5_0_1.xyz
Al 1.563655e+00 9.027491e-01 2.480475e+00 -1.038663e-03 -1.465776e-02 -1.026887e-02
Al 1.563545e+00 9.018444e-01 7.496089e+00 -1.035275e-03 -1.394579e-02 -5.651684e-03
Al 1.564237e+00 9.043087e-01 -2.755047e+00 -1.275735e-03 -1.393612e-02 -5.025714e-03
Al -2.172137e-03 3.610594e+00 2.476569e+00 -3.022960e-03 -6.150528e-04 -9.304825e-03
Al -8.717286e-04 3.610958e+00 7.495979e+00 -2.750699e-03 -1.219419e-03 -3.388052e-03
Al -3.043751e-04 3.612339e+00 -2.755083e+00 -2.848794e-03 -1.221058e-03 -2.103185e-03
Al 3.172107e+00 -1.884643e+00 2.480489e+00 -3.205719e-03 2.322520e-03 -1.034524e-02
Al 3.173325e+00 -1.884610e+00 7.495953e+00 -2.937891e-03 1.754043e-03 -4.696374e-03
Al 3.174726e+00 -1.883884e+00 -2.756012e+00 -2.956341e-03 1.348665e-03 -5.219702e-03
Al -4.783058e+00 9.018611e-01 2.475063e+00 1.354175e-03 -1.304873e-02 -8.563859e-03
Al -4.782751e+00 9.018392e-01 7.496151e+00 1.228890e-03 -1.274759e-02 -3.998684e-03
Al -4.782259e+00 9.032419e-01 -2.752213e+00 1.441310e-03 -1.267029e-02 -3.387675e-03
Al -6.346201e+00 3.611058e+00 2.475802e+00 -6.863653e-04 1.174931e-04 -7.304022e-03
Al -6.347521e+00 3.611260e+00 7.495914e+00 -1.093204e-04 -4.241149e-05 -2.589390e-03
Al -6.346227e+00 3.612731e+00 -2.751501e+00 -2.852931e-04 1.820968e-04 -1.761244e-03
Al -3.173647e+00 -1.884075e+00 2.473956e+00 -5.635418e-04 3.211115e-03 -8.213650e-03
Al -3.173446e+00 -1.884480e+00 7.495888e+00 -3.451060e-04 3.025428e-03 -3.488283e-03
Al -3.172815e+00 -1.883386e+00 -2.752431e+00 -3.748947e-04 2.786339e-03 -3.522901e-03
Al -1.653983e+00 9.020372e-01 2.475415e+00 1.345283e-02 -7.678383e-03 -9.915804e-03
Al -1.654463e+00 9.020046e-01 7.496187e+00 1.339654e-02 -7.727344e-03 -5.518770e-03
Al -1.653906e+00 9.031682e-01 -2.752077e+00 1.345284e-02 -7.654109e-03 -5.567508e-03
Al -3.217497e+00 3.612153e+00 2.475520e+00 1.104790e-02 4.759609e-03 -8.385559e-03
Al -3.218907e+00 3.611087e+00 7.496139e+00 1.171445e-02 5.233885e-03 -3.629413e-03
Al -3.217742e+00 3.612760e+00 -2.754901e+00 1.157307e-02 5.206678e-03 -2.422125e-03
Al -4.522945e-02 -1.883976e+00 2.480023e+00 1.224484e-02 8.441347e-03 -1.020752e-02
Al -4.494835e-02 -1.884375e+00 7.496072e+00 1.154127e-02 7.976572e-03 -5.120951e-03
Ga -4.420817e-02 -1.883051e+00 -2.756744e+00 1.432259e-02 1.014059e-02 -5.779773e-03
Al -7.509979e-04 1.804912e+00 4.986922e+00 -1.137316e-02 -8.149125e-03 -5.362916e-03
Al -2.541180e-04 1.805949e+00 -5.263566e+00 -1.184873e-02 -7.856443e-03 -5.281497e-03
Al -2.191174e-04 1.802555e+00 -2.385603e-01 -1.201738e-02 -8.064745e-03 2.871820e-02
Al 3.173557e+00 -3.691008e+00 4.987083e+00 -1.184465e-02 -5.025446e-03 -3.959046e-03
Al 3.174274e+00 -3.689620e+00 -5.264145e+00 -1.185185e-02 -5.277756e-03 -4.266185e-03
Ga 3.170574e+00 -3.688510e+00 -2.391400e-01 -1.526996e-02 -8.184367e-03 3.828492e-02
Al 1.608746e+00 -9.814804e-01 4.987899e+00 -1.337119e-02 7.784675e-03 -6.646589e-03
Al 1.609769e+00 -9.801424e-01 -5.264304e+00 -1.373419e-02 7.403629e-03 -6.477080e-03
Al 1.608802e+00 -9.802756e-01 -2.570963e-01 -1.444048e-02 7.487171e-03 3.018178e-02
Al 3.128110e+00 1.805097e+00 4.986718e+00 2.404860e-04 -3.000949e-03 -3.481489e-03
Ga 3.128962e+00 1.806432e+00 -5.263040e+00 3.500931e-04 -2.861573e-03 -2.606929e-03
Al 3.127166e+00 1.804187e+00 -2.412116e-01 4.284251e-04 -3.060097e-03 3.078750e-02
Al 6.302101e+00 -3.690926e+00 4.985810e+00 2.846386e-04 1.493456e-05 -2.161819e-03
Al 6.303126e+00 -3.689191e+00 -5.263186e+00 -5.200606e-05 3.185358e-06 -2.240914e-03
Ga 6.301615e+00 -3.690390e+00 -2.375546e-01 4.305786e-04 -6.676683e-05 4.123289e-02
Al 4.737714e+00 -9.817605e-01 4.986389e+00 -1.398180e-03 1.277614e-02 -4.311849e-03
Al 4.738707e+00 -9.801883e-01 -5.263406e+00 -1.328897e-03 1.256318e-02 -4.240314e-03
Al 4.735913e+00 -9.808941e-01 -2.419838e-01 -1.135039e-03 1.289845e-02 3.002615e-02
Ga -3.218600e+00 1.804953e+00 4.985924e+00 2.782823e-03 -1.679348e-03 -3.957973e-03
Al -3.217668e+00 1.806080e+00 -5.263119e+00 3.232756e-03 -1.476288e-03 -4.357167e-03
Al -3.218601e+00 1.804248e+00 -2.371215e-01 3.303175e-03 -1.301660e-03 2.924720e-02
Al -4.464056e-02 -3.690644e+00 4.986621e+00 2.652368e-03 1.276424e-03 -3.443247e-03
Al -4.382864e-02 -3.689444e+00 -5.263801e+00 3.024676e-03 1.516869e-03 -3.632336e-03
Al -4.576476e-02 -3.692875e+00 -2.284077e-01 3.149325e-03 3.418312e-03 2.880615e-02
Al -1.609484e+00 -9.816182e-01 4.986432e+00 1.113798e-03 1.385054e-02 -5.254285e-03
Al -1.608707e+00 -9.797865e-01 -5.263538e+00 1.403687e-03 1.395855e-02 -5.349139e-03
Al -1.611094e+00 -9.802093e-01 -2.368477e-01 2.568754e-03 1.365248e-02 2.795620e-02
N 1.563656e+00 9.028082e-01 4.393189e+00 -6.471047e-04 -1.353413e-02 5.507065e-03
N 1.564015e+00 9.029894e-01 -5.858797e+00 -1.945879e-02 -2.437421e-02 -2.849721e-03
N 1.563637e+00 9.029524e-01 -8.420285e-01 -4.257637e-04 -1.313282e-02 6.582526e-03
N -1.075749e-03 3.610843e+00 4.391298e+00 -2.151619e-03 1.413008e-04 2.424705e-03
N 1.144858e-05 3.612325e+00 -5.858705e+00 -1.648177e-03 -8.557709e-05 2.616917e-03
N -2.906846e-03 3.608959e+00 -8.289085e-01 -2.007322e-03 -2.065335e-02 -1.338837e-02
N 3.173604e+00 -1.884986e+00 4.393171e+00 -2.543612e-03 1.355196e-03 2.634966e-03
N 3.174220e+00 -1.883205e+00 -5.858957e+00 -2.312721e-03 1.623055e-03 2.265936e-03
N 3.173202e+00 -1.883579e+00 -8.429653e-01 -2.083689e-03 2.235529e-02 -3.257340e-03
N -4.783438e+00 9.015156e-01 4.390357e+00 -1.808846e-02 -2.436103e-02 -2.223696e-03
N -4.781565e+00 9.029280e-01 -5.858485e+00 1.968946e-02 -2.421458e-02 -2.445517e-03
N -4.783064e+00 9.024743e-01 -8.365062e-01 7.531548e-04 -1.319165e-02 6.066801e-03
N -6.347253e+00 3.611092e+00 4.390865e+00 -4.629079e-04 3.418282e-04 2.918193e-03
N -6.346689e+00 3.613067e+00 -5.858790e+00 -6.772227e-04 2.216352e-02 -5.272784e-03
N -6.347087e+00 3.611247e+00 -8.340912e-01 1.794594e-02 -1.045247e-02 -3.456819e-03
N -3.173573e+00 -1.884927e+00 4.390015e+00 -9.537670e-04 1.878767e-03 2.457496e-03
N -3.172617e+00 -1.883089e+00 -5.858623e+00 -1.025182e-03 1.634936e-03 2.359753e-03
N -3.174190e+00 -1.883536e+00 -8.359748e-01 -1.105825e-03 2.299415e-02 -3.749653e-03
N -1.653841e+00 9.016357e-01 4.390521e+00 3.224486e-02 -1.867467e-02 8.834463e-05
N -1.653673e+00 9.033176e-01 -5.858504e+00 1.336284e-02 -7.772423e-03 7.672612e-03
N -1.654406e+00 9.022371e-01 -8.354566e-01 1.324115e-02 -7.632942e-03 8.186088e-03
N -3.218618e+00 3.611960e+00 4.390673e+00 1.196647e-02 2.787596e-02 -2.257615e-03
N -3.218081e+00 3.612399e+00 -5.858700e+00 1.180368e-02 5.687390e-03 5.284907e-03
N -3.223117e+00 3.611738e+00 -8.319735e-01 -2.651325e-03 -2.811589e-03 -1.198987e-03
N -4.562329e-02 -1.884606e+00 4.392898e+00 1.136351e-02 7.223764e-03 5.230609e-03
N -4.413843e-02 -1.882980e+00 -5.858684e+00 1.112550e-02 7.288576e-03 4.199569e-03
N -4.450486e-02 -1.882980e+00 -8.444650e-01 1.070352e-02 6.171631e-03 3.191168e-02
N -2.115776e-04 1.804393e+00 1.880803e+00 -1.144983e-02 -7.207097e-03 -2.558060e-02
N -8.867349e-04 1.804786e+00 6.901060e+00 -1.155733e-02 -7.127797e-03 4.808398e-03
N -2.512248e-04 1.806245e+00 -3.349264e+00 -1.128278e-02 -7.536554e-03 4.884389e-03
N 3.164410e+00 -3.690087e+00 1.880789e+00 -9.031041e-03 -6.072995e-03 -1.165006e-02
N 3.173399e+00 -3.691090e+00 6.901131e+00 -1.190379e-02 -6.020159e-03 5.279604e-03
N 3.174427e+00 -3.689747e+00 -3.350559e+00 -1.211437e-02 -5.863979e-03 5.008342e-03
N 1.608265e+00 -9.805479e-01 1.894467e+00 -1.385462e-02 8.079010e-03 -2.448451e-02
N 1.608783e+00 -9.815851e-01 6.901453e+00 -1.332840e-02 7.627972e-03 7.689634e-03
N 1.610390e+00 -9.797055e-01 -3.350930e+00 2.311442e-03 1.654097e-02 2.163051e-03
N 3.127780e+00 1.804598e+00 1.880386e+00 9.063847e-04 -1.496414e-03 -2.823648e-02
N 3.128188e+00 1.804980e+00 6.901056e+00 1.126624e-03 -1.689444e-03 1.834878e-03
N 3.128957e+00 1.806840e+00 -3.347830e+00 1.287582e-03 -1.995100e-03 2.591846e-02
N 6.302347e+00 -3.689049e+00 1.873897e+00 1.647758e-04 -1.015766e-03 -1.238449e-02
N 6.302102e+00 -3.690721e+00 6.900528e+00 3.589281e-04 -2.679516e-04 2.694780e-03
N 6.303195e+00 -3.689418e+00 -3.348286e+00 7.104465e-04 -3.357746e-04 2.520111e-03
N 4.736148e+00 -9.817662e-01 1.879726e+00 -8.072252e-04 1.314783e-02 -2.509225e-02
N 4.737775e+00 -9.814678e-01 6.900780e+00 -7.843826e-04 1.323743e-02 5.104202e-03
N 4.738670e+00 -9.803170e-01 -3.348884e+00 -9.114188e-04 1.373527e-02 5.174639e-03
N -3.218130e+00 1.805384e+00 1.878968e+00 2.430835e-03 -1.712226e-03 -2.893104e-02
N -3.218620e+00 1.804934e+00 6.901161e+00 2.657257e-03 -1.419545e-03 2.533267e-02
N -3.217862e+00 1.806196e+00 -3.348175e+00 2.204682e-03 -1.576447e-03 1.915696e-03
N -4.330371e-02 -3.689457e+00 1.880394e+00 1.313511e-03 -9.271189e-05 -2.788230e-02
N -4.456309e-02 -3.690758e+00 6.900916e+00 2.147297e-03 -1.200654e-04 2.257376e-03
N -4.371546e-02 -3.689978e+00 -3.349717e+00 2.071979e-03 -2.211764e-02 -5.790729e-03
N -1.608422e+00 -9.808633e-01 1.879890e+00 4.702762e-04 1.340743e-02 -2.553204e-02
N -1.609360e+00 -9.813511e-01 6.900854e+00 4.964291e-04 1.358116e-02 4.887453e-03
N -1.609242e+00 -9.797349e-01 -3.349248e+00 -1.822382e-02 2.452437e-02 -3.046306e-03
