108
Energy=-7.570926e+05 Lattice="9.434117e+00 0.000000e+00 0.000000e+00 -4.718618e+00 8.168982e+00 0.000000e+00 -1.693936e-03 -6.122617e-04 1.515306e+01" Stress="-2.967541e-05 -3.863706e-04 2.001928e-04 -3.940201e-04 -5.849476e-04 1.836053e-04 2.021925e-04 1.795964e-04 2.273756e-04" Properties=species:S:1:pos:R:3:forces:R:3 Config_type=AlGaN_super3_7_1_20.xyz
Al 1.550848e+00 8.790568e-01 2.386806e+00 6.299567e-04 -7.034722e-04 -2.290032e-04
Al 1.553825e+00 8.776125e-01 7.422414e+00 -4.127915e-04 2.100732e-03 5.502580e-04
Al 1.554747e+00 8.838327e-01 -2.684344e+00 -5.482945e-04 -1.110992e-03 -2.634633e-04
Al -2.087822e-02 3.592034e+00 2.376554e+00 3.950438e-05 5.205716e-05 -1.134090e-04
Al -2.200595e-02 3.590457e+00 7.420277e+00 1.537061e-04 -1.174251e-04 -3.649074e-06
Al -1.281892e-02 3.591605e+00 -2.679330e+00 -4.852366e-04 4.011810e-04 3.500055e-04
Al 3.128571e+00 -1.861087e+00 2.381567e+00 2.699313e-03 -1.354197e-03 7.160325e-04
Al 3.125925e+00 -1.858325e+00 7.432989e+00 -2.540692e-03 2.001286e-03 -1.232284e-03
Al 3.143136e+00 -1.850025e+00 -2.683476e+00 -1.931730e-03 8.111662e-04 -1.388168e-03
Al -4.746577e+00 8.694857e-01 2.354016e+00 1.712603e-04 8.866264e-05 -3.582538e-04
Al -4.752435e+00 8.700407e-01 7.439040e+00 -4.185257e-04 -3.073024e-05 1.298662e-04
Al -4.751273e+00 8.580174e-01 -2.665636e+00 -2.019696e-04 -5.762774e-04 2.090516e-04
Al -6.318830e+00 3.588958e+00 2.378005e+00 9.524432e-05 7.686953e-07 -3.398917e-04
Al -6.319686e+00 3.583449e+00 7.418891e+00 1.956514e-05 3.293049e-04 -1.584403e-04
Al -6.324321e+00 3.585391e+00 -2.671836e+00 -2.201446e-03 -1.273444e-03 9.283402e-04
Al -3.164099e+00 -1.859480e+00 2.363138e+00 -2.117250e-04 -4.649442e-05 -3.317129e-04
Al -3.169545e+00 -1.858513e+00 7.435548e+00 -2.136080e-03 -7.616974e-04 8.032183e-04
Al -3.175100e+00 -1.853041e+00 -2.675250e+00 -4.312187e-03 -2.747346e-03 2.301471e-03
Al -1.590705e+00 8.680930e-01 2.366291e+00 -1.123695e-04 -4.159576e-06 -2.321960e-04
Al -1.588842e+00 8.703955e-01 7.423573e+00 -4.117983e-04 7.803195e-04 -5.816266e-04
Al -1.586810e+00 8.683530e-01 -2.658810e+00 4.405849e-04 -2.293676e-03 8.654384e-04
Al -3.165592e+00 3.595806e+00 2.363126e+00 -4.857282e-05 -2.322710e-04 -2.677318e-04
Al -3.163546e+00 3.597314e+00 7.426734e+00 -1.259316e-03 1.390470e-04 -5.695892e-04
Ga -3.165815e+00 3.588492e+00 -2.649149e+00 6.036243e-04 4.970499e-04 -3.593895e-04
Al -2.904611e-02 -1.856376e+00 2.390483e+00 1.555324e-03 3.107526e-04 -8.831162e-04
Ga -3.357642e-02 -1.845513e+00 7.426246e+00 1.055569e-03 -4.209889e-04 -4.210450e-04
Ga -3.805640e-02 -1.857889e+00 -2.669023e+00 1.173924e-03 7.289854e-04 -7.584657e-04
Al -1.442568e-02 1.777663e+00 4.896963e+00 -6.873862e-05 1.393485e-04 2.070257e-04
Al -1.285116e-02 1.777372e+00 -5.205137e+00 6.750671e-05 1.386000e-04 -6.950124e-05
Al -2.308276e-02 1.786191e+00 -1.473358e-01 3.424223e-04 -6.919114e-04 3.039100e-05
Al 3.124509e+00 -3.671481e+00 4.899787e+00 4.280809e-05 1.344289e-04 -3.125246e-04
Al 3.134117e+00 -3.660537e+00 -5.210798e+00 9.612726e-05 6.240412e-05 1.785389e-03
Al 3.138704e+00 -3.672104e+00 -1.385086e-01 -4.274792e-04 -1.692777e-03 2.590273e-04
Al 1.547745e+00 -9.440356e-01 4.887266e+00 -6.829104e-04 8.115066e-04 -3.709467e-04
Al 1.562268e+00 -9.386806e-01 -5.200405e+00 -1.092212e-03 7.336778e-05 5.868416e-04
Ga 1.566200e+00 -9.507459e-01 -1.343015e-01 -6.930906e-04 1.227718e-03 5.101374e-04
Al 3.107698e+00 1.784727e+00 4.901215e+00 -3.120158e-05 3.264083e-05 -1.984687e-04
Al 3.113271e+00 1.781346e+00 -5.200055e+00 4.806945e-06 6.873201e-05 1.354874e-04
Al 3.123689e+00 1.786303e+00 -1.509888e-01 -1.175099e-03 -7.985510e-04 -2.403674e-04
Al 6.270504e+00 -3.676256e+00 4.898248e+00 1.311938e-04 2.483561e-05 -4.600700e-05
Al 6.270247e+00 -3.670278e+00 -5.204536e+00 1.494828e-04 1.532491e-04 5.409840e-04
Al 6.267677e+00 -3.670920e+00 -1.537149e-01 6.039190e-05 2.500814e-04 1.369169e-04
Ga 4.694149e+00 -9.550056e-01 4.905413e+00 -4.208767e-05 2.329759e-04 -1.540794e-05
Al 4.692805e+00 -9.539917e-01 -5.203046e+00 1.732781e-04 2.396158e-04 2.210183e-04
Al 4.704906e+00 -9.493203e-01 -1.486215e-01 2.730699e-04 -2.403503e-04 -3.206783e-04
Ga -3.165486e+00 1.784035e+00 4.903175e+00 -1.333111e-04 9.415111e-05 -9.523407e-05
Ga -3.163568e+00 1.772787e+00 -5.202355e+00 -4.844119e-04 9.937298e-05 2.741260e-04
Al -3.166340e+00 1.769729e+00 -1.419180e-01 -9.838243e-05 -2.219059e-03 1.558387e-03
Al -2.852903e-02 -3.668850e+00 4.887134e+00 -1.494310e-04 2.663334e-04 -7.204233e-04
Al -3.046974e-02 -3.668606e+00 -5.212660e+00 -1.943223e-04 -1.125671e-03 2.227624e-03
Al -3.505275e-02 -3.678598e+00 -1.207341e-01 2.078745e-04 -3.506835e-03 1.908589e-03
Al -1.588863e+00 -9.517847e-01 4.889391e+00 -8.299958e-04 2.412367e-04 5.976717e-04
Al -1.598580e+00 -9.457268e-01 -5.197181e+00 -1.669337e-03 -1.731842e-04 4.248233e-03
Al -1.606896e+00 -9.438719e-01 -1.370833e-01 7.337121e-04 -8.445843e-04 -3.021275e-04
N 1.549091e+00 8.751964e-01 4.301625e+00 6.472092e-05 -6.990019e-05 -4.855947e-04
N 1.551526e+00 8.730012e-01 -5.807754e+00 7.463045e-05 -2.284900e-04 7.510024e-05
N 1.547550e+00 9.089782e-01 -7.746970e-01 8.731451e-04 1.891972e-03 1.718929e-03
N -2.263931e-02 3.592384e+00 4.300048e+00 -6.938081e-05 -1.676212e-04 3.512449e-05
N -1.903648e-02 3.591415e+00 -5.809499e+00 -1.511793e-04 -1.039895e-04 2.471818e-05
N -2.156587e-02 3.591928e+00 -7.571028e-01 3.096972e-04 -5.950476e-04 1.837525e-04
N 3.087476e+00 -1.881132e+00 4.285567e+00 -2.052085e-04 -3.130095e-04 9.132444e-04
N 3.122762e+00 -1.853750e+00 -5.805038e+00 -4.209711e-04 -5.487434e-05 -2.985507e-05
N 3.171717e+00 -1.884008e+00 -7.770066e-01 -5.581140e-04 7.961807e-04 2.199367e-03
N -4.784015e+00 8.925799e-01 4.259536e+00 -1.576297e-04 -1.016952e-04 4.480943e-04
N -4.785980e+00 8.474111e-01 -5.808250e+00 -3.070465e-05 -4.749854e-05 -1.568187e-05
N -4.743507e+00 8.667803e-01 -7.427401e-01 -1.499316e-04 -3.218999e-04 9.450127e-05
N -6.317901e+00 3.589720e+00 4.295581e+00 -1.695837e-05 -5.358522e-05 1.348188e-04
N -6.315422e+00 3.591256e+00 -5.814514e+00 6.170672e-05 -1.282962e-04 -2.994627e-04
N -6.311656e+00 3.593733e+00 -7.521470e-01 -5.957325e-04 -3.771792e-04 3.072801e-04
N -3.127923e+00 -1.881034e+00 4.274231e+00 3.738513e-04 -1.900839e-04 -1.466777e-04
N -3.163412e+00 -1.856262e+00 -5.799373e+00 -2.085664e-04 -9.765081e-05 1.940895e-04
N -3.165224e+00 -1.854906e+00 -7.522226e-01 -1.517009e-04 -3.402915e-04 1.051404e-03
N -1.555440e+00 8.488845e-01 4.278755e+00 9.024865e-04 -4.919408e-04 9.492141e-05
N -1.547765e+00 8.450662e-01 -5.825736e+00 7.648430e-04 -3.106245e-04 1.823863e-03
N -1.590079e+00 8.685108e-01 -7.398254e-01 6.927414e-04 -2.457629e-04 5.571913e-04
N -3.165735e+00 3.640209e+00 4.276789e+00 -4.764192e-05 -8.971588e-05 -2.081752e-04
N -3.162619e+00 3.643604e+00 -5.814177e+00 -8.515601e-04 2.749336e-04 -1.060497e-03
N -3.170184e+00 3.585595e+00 -6.729256e-01 9.616401e-04 4.177092e-03 -5.225067e-04
N -2.520863e-02 -1.854738e+00 4.307494e+00 7.425205e-05 1.801377e-04 7.155324e-05
N -2.519422e-02 -1.847768e+00 -5.746313e+00 1.603061e-03 -2.894315e-05 1.078715e-04
N -5.629524e-02 -1.891307e+00 -6.989474e-01 -1.544132e-03 4.388167e-03 -1.009614e-03
N -1.891154e-02 1.778704e+00 1.773240e+00 1.087970e-04 -3.199515e-04 -4.674689e-04
N -2.076985e-02 1.777225e+00 6.817758e+00 -6.413559e-04 5.260556e-04 1.322518e-04
N -2.401877e-02 1.777608e+00 -3.281296e+00 -7.077730e-04 -1.810340e-04 -4.263261e-04
N 3.131434e+00 -3.669297e+00 1.775403e+00 1.559970e-04 5.352687e-05 -5.216083e-04
N 3.125491e+00 -3.669995e+00 6.821219e+00 -4.738460e-04 5.363964e-04 1.921746e-04
N 3.160966e+00 -3.648200e+00 -3.289729e+00 8.401187e-04 -7.483060e-04 -2.714911e-03
N 1.569265e+00 -9.491285e-01 1.843455e+00 -6.484667e-03 2.027408e-03 -9.578382e-04
N 1.578354e+00 -9.075522e-01 6.802485e+00 4.444009e-03 -5.758689e-03 1.144861e-03
N 1.581697e+00 -9.218194e-01 -3.285161e+00 3.203934e-03 -6.551166e-04 2.637191e-04
N 3.115699e+00 1.779541e+00 1.765213e+00 1.931347e-05 1.093765e-04 -3.729421e-04
N 3.120721e+00 1.777308e+00 6.818672e+00 1.986352e-04 6.494818e-05 2.863386e-06
N 3.124969e+00 1.780524e+00 -3.278865e+00 -1.969143e-04 -6.742013e-04 -1.540913e-04
N 6.266489e+00 -3.673637e+00 1.767194e+00 1.452310e-05 -1.180580e-05 -5.455485e-05
N 6.266857e+00 -3.668461e+00 6.821567e+00 -3.112338e-04 3.355163e-06 2.764089e-05
N 6.270021e+00 -3.668295e+00 -3.278334e+00 -5.919455e-04 -5.882487e-04 -3.114160e-04
N 4.695172e+00 -9.508101e-01 1.769725e+00 2.774386e-04 -8.730791e-05 1.863160e-04
N 4.696258e+00 -9.457911e-01 6.879159e+00 -9.902394e-04 -8.454834e-04 3.742130e-04
N 4.699150e+00 -9.448479e-01 -3.281923e+00 -1.056851e-03 1.471236e-04 -5.747307e-04
N -3.166003e+00 1.773026e+00 1.777599e+00 9.219375e-05 -1.693897e-04 -9.285827e-05
N -3.172235e+00 1.772886e+00 6.884142e+00 5.580171e-04 1.933777e-03 3.238405e-04
N -3.165176e+00 1.724558e+00 -3.229688e+00 -5.923615e-04 8.434409e-04 -5.902929e-04
N -3.030497e-02 -3.670203e+00 1.792479e+00 1.918975e-04 3.719737e-05 2.364634e-04
N -2.901917e-02 -3.709264e+00 6.797763e+00 1.658029e-03 -1.852082e-03 1.926453e-03
N -6.816190e-02 -3.707960e+00 -3.302124e+00 2.423694e-03 1.853597e-03 -3.324915e-03
N -1.594691e+00 -9.470001e-01 1.776957e+00 4.809142e-04 4.042915e-04 -1.473410e-04
N -1.653611e+00 -9.222748e-01 6.806814e+00 3.253588e-03 3.352806e-04 -2.854269e-03
N -1.656819e+00 -9.326712e-01 -3.265218e+00 6.613219e-03 6.099641e-03 -8.401400e-03
