108
Energy=-2084581.790062 Lattice="9.596527 0.000000 0.000000 -4.798136 8.309789 0.000000 0.002300 -0.000118 15.547079" Stress="0.000000 -0.000000 -0.000000 0.000000 0.000000 -0.000000 0.000000 0.000000 0.000000" Properties=species:S:1:pos:R:3:forces:R:3
Al 1.581349 0.898228 2.431795 0.000009 0.000001 0.000001
Al 1.588317 0.905412 7.653730 0.000000 -0.000004 -0.000004
Al 1.585673 0.888122 -2.760452 -0.000007 -0.000001 0.000004
Al -0.015065 3.644449 2.444775 -0.000005 -0.000003 0.000001
Al 0.000458 3.641818 7.653818 -0.000004 -0.000006 -0.000003
Ga -0.003614 3.647324 -2.761689 -0.000003 -0.000001 0.000016
Ga 3.188980 -1.877064 2.438187 0.000004 -0.000005 -0.000002
Ga 3.185092 -1.870360 7.625761 0.000000 -0.000001 0.000001
Ga 3.178925 -1.867504 -2.730148 -0.000008 -0.000005 0.000008
Ga -4.843298 0.873118 2.431163 -0.000000 -0.000000 -0.000006
Al -4.841192 0.886684 7.634419 -0.000006 -0.000001 0.000001
Al -4.840422 0.876648 -2.735378 -0.000004 0.000002 -0.000002
Ga -6.429317 3.637318 2.416395 -0.000000 -0.000001 -0.000004
Al -6.436402 3.631710 7.657850 0.000001 -0.000014 0.000004
Ga -6.425115 3.643170 -2.746720 -0.000007 0.000004 0.000003
Ga -3.235674 -1.884409 2.457747 0.000009 0.000002 0.000003
Ga -3.225097 -1.890723 7.621979 -0.000004 -0.000001 -0.000005
Al -3.222374 -1.887412 -2.748196 -0.000006 -0.000007 0.000008
Ga -1.605755 0.887770 2.450603 -0.000000 -0.000004 -0.000003
Ga -1.610976 0.886645 7.637975 -0.000007 0.000003 -0.000003
Ga -1.610347 0.876140 -2.753238 -0.000005 -0.000001 0.000002
Ga -3.222137 3.658349 2.439567 -0.000001 0.000000 0.000001
Ga -3.225517 3.645031 7.633995 -0.000011 0.000001 0.000003
Ga -3.234426 3.656053 -2.729969 -0.000003 0.000001 0.000000
Ga -0.022615 -1.884085 2.442736 0.000004 0.000003 0.000004
Ga -0.027026 -1.878669 7.623971 -0.000000 0.000003 -0.000014
Al -0.026987 -1.883941 -2.728342 0.000001 0.000001 0.000010
Ga -0.010290 1.805752 5.046156 -0.000000 -0.000001 -0.000004
Al 0.002812 1.814585 -5.342085 0.000003 -0.000000 0.000005
Ga 0.001127 1.806893 -0.142438 -0.000003 -0.000003 0.000010
Ga 3.195643 -3.731158 5.041897 0.000009 -0.000000 -0.000003
Ga 3.194883 -3.742770 -5.334511 -0.000000 0.000000 0.000008
Ga 3.177848 -3.728625 -0.139704 0.000010 0.000001 0.000003
Ga 1.579218 -0.947403 5.033894 0.000012 0.000007 0.000002
Ga 1.569187 -0.936766 -5.311748 -0.000003 -0.000001 0.000003
Ga 1.578176 -0.950200 -0.163284 0.000009 0.000002 0.000005
Ga 3.175097 1.795841 5.063035 0.000007 0.000001 -0.000004
Al 3.162824 1.806996 -5.341214 -0.000000 -0.000004 0.000001
Al 3.177639 1.796240 -0.172936 0.000004 0.000006 -0.000004
Ga 6.371951 -3.729716 5.048650 0.000004 0.000002 -0.000006
Al 6.376157 -3.749568 -5.339943 0.000002 -0.000005 -0.000008
Ga 6.379985 -3.725504 -0.151681 0.000002 -0.000006 0.000009
Al 4.785026 -0.955193 5.054363 0.000004 0.000003 -0.000008
Ga 4.780964 -0.950575 -5.317013 -0.000001 -0.000001 0.000010
Al 4.779213 -0.951892 -0.179885 0.000009 0.000007 0.000003
Ga -3.227715 1.784625 5.048278 -0.000005 -0.000004 -0.000002
Ga -3.237539 1.796820 -5.322389 -0.000003 0.000002 -0.000001
Ga -3.247480 1.801950 -0.160932 -0.000002 0.000010 -0.000001
Ga -0.036795 -3.730700 5.055984 0.000015 0.000012 0.000000
Ga -0.046093 -3.738471 -5.324241 -0.000003 0.000002 0.000003
Al -0.029919 -3.733109 -0.163867 0.000001 0.000000 -0.000002
Al -1.631910 -0.962414 5.039918 0.000007 0.000003 -0.000003
Ga -1.625695 -0.970004 -5.300821 0.000001 -0.000004 0.000001
Ga -1.630608 -0.979123 -0.173784 0.000007 -0.000005 0.000005
N 1.584685 0.891691 4.346972 -0.000005 -0.000007 0.000006
N 1.579043 0.931166 -5.971724 -0.000004 0.000004 0.000002
N 1.617512 0.913758 -0.838590 -0.000007 0.000005 -0.000009
N -0.016330 3.649643 4.356600 -0.000001 0.000001 0.000011
N 0.022844 3.627732 -5.968544 -0.000003 0.000001 -0.000002
N -0.018707 3.651731 -0.792529 0.000002 -0.000005 -0.000010
N 3.224470 -1.857950 4.429706 -0.000008 -0.000003 0.000003
N 3.174211 -1.878160 -5.945990 0.000003 -0.000000 -0.000008
N 3.214934 -1.862715 -0.755786 -0.000008 -0.000003 -0.000002
N -4.830257 0.834318 4.414593 -0.000005 0.000003 0.000005
N -4.869926 0.904955 -5.994262 0.000006 -0.000002 -0.000003
N -4.870841 0.861437 -0.809236 -0.000004 -0.000005 0.000004
N -6.421428 3.644076 4.396545 -0.000003 0.000001 0.000004
N -6.465554 3.623543 -5.960733 -0.000000 0.000007 -0.000002
N -6.383216 3.625107 -0.752204 0.000001 0.000002 -0.000000
N -3.226945 -1.838794 4.451998 -0.000005 -0.000005 0.000008
N -3.223112 -1.932478 -5.943823 0.000002 0.000006 -0.000003
N -3.266486 -1.869253 -0.829664 -0.000002 -0.000003 -0.000013
N -1.615384 0.839403 4.434390 -0.000002 0.000000 0.000006
N -1.579784 0.903855 -5.922309 0.000001 -0.000005 -0.000004
N -1.614885 0.890391 -0.778857 0.000004 0.000006 -0.000003
N -3.223921 3.654030 4.421551 -0.000000 0.000005 0.000003
N -3.225427 3.652459 -5.945637 0.000005 -0.000003 -0.000007
N -3.261037 3.679299 -0.754201 0.000001 -0.000002 0.000003
N -0.063421 -1.865055 4.428434 -0.000011 -0.000004 0.000001
N -0.024869 -1.881545 -5.955951 -0.000000 0.000002 -0.000002
N -0.019716 -1.933736 -0.811245 -0.000005 0.000003 -0.000004
N 0.023173 1.830610 1.844470 -0.000000 0.000005 -0.000004
N 0.027378 1.832307 7.037753 0.000002 0.000003 0.000003
N 0.026373 1.782486 -3.421896 0.000002 0.000002 -0.000011
N 3.220531 -3.756282 1.840206 -0.000004 -0.000002 -0.000002
N 3.229132 -3.760575 7.029488 -0.000000 0.000002 0.000002
N 3.177119 -3.731506 -3.365146 0.000000 0.000005 -0.000011
N 1.574787 -0.911314 1.825968 -0.000009 0.000000 -0.000001
N 1.577343 -0.900763 7.018292 -0.000001 -0.000000 0.000004
N 1.530942 -0.936823 -3.323786 0.000006 0.000004 -0.000011
N 3.133246 1.776652 1.750867 0.000002 0.000001 0.000002
N 3.172867 1.807100 7.057815 0.000001 0.000002 0.000005
N 3.178364 1.756123 -3.406120 0.000003 -0.000002 -0.000001
N 6.331689 -3.748498 1.829225 -0.000000 -0.000002 -0.000002
N 6.376993 -3.786354 7.038830 0.000003 0.000005 0.000010
N 6.380800 -3.686800 -3.415610 0.000007 0.000001 -0.000008
N 4.782329 -0.962905 1.736947 -0.000008 0.000000 -0.000001
N 4.778455 -0.909452 6.971545 0.000003 0.000001 0.000004
N 4.819405 -0.934531 -3.335791 0.000007 0.000004 -0.000007
N -3.226329 1.801061 1.816358 -0.000003 -0.000002 -0.000001
N -3.264744 1.775541 7.028642 0.000007 0.000000 0.000004
N -3.270971 1.779081 -3.340164 0.000003 -0.000001 -0.000004
N -0.025634 -3.729069 1.754520 -0.000003 -0.000002 -0.000002
N -0.075138 -3.761626 7.035268 -0.000020 -0.000007 0.000008
N -0.029908 -3.685247 -3.351302 0.000000 -0.000002 -0.000001
N -1.628371 -0.966617 1.803059 0.000002 0.000001 -0.000002
N -1.625155 -0.959315 6.950336 0.000007 -0.000000 0.000004
N -1.621899 -1.015259 -3.320166 0.000011 -0.000000 -0.000008
