108
Energy=-1.581051e+06 Lattice="9.533597e+00 0.000000e+00 0.000000e+00 -4.779615e+00 8.255629e+00 0.000000e+00 3.835912e-03 2.345404e-03 1.536826e+01" Stress="-1.939737e-03 -7.798384e-04 1.943088e-04 -7.876864e-04 -1.116939e-03 1.469543e-04 2.020879e-04 1.450059e-04 -4.384252e-03" Properties=species:S:1:pos:R:3:forces:R:3 Config_type=AlGaN_super3_25_2_10.xyz
Al 1.564021e+00 8.674828e-01 2.409324e+00 -5.297771e-04 -1.408522e-04 -1.483727e-03
Al 1.551744e+00 8.686873e-01 7.533167e+00 4.503694e-04 -6.444971e-05 9.333886e-04
Al 1.539673e+00 8.797562e-01 -2.694639e+00 2.613318e-03 -2.764207e-03 -3.679935e-03
Al -3.823413e-02 3.617696e+00 2.403616e+00 -2.460237e-03 -1.576163e-03 -4.949817e-03
Al -3.188259e-02 3.610671e+00 7.531896e+00 -5.618940e-05 -1.531377e-07 3.129014e-04
Al -5.195437e-02 3.620098e+00 -2.690078e+00 3.548430e-03 1.052739e-04 -2.483027e-04
Al 3.159500e+00 -1.869992e+00 2.356742e+00 -5.880095e-03 -3.637769e-03 6.208399e-03
Al 3.149020e+00 -1.877617e+00 7.540104e+00 1.572375e-04 -6.569165e-05 3.104486e-04
Ga 3.146782e+00 -1.874939e+00 -2.690339e+00 -2.678280e-04 2.059634e-04 8.504220e-04
Ga -4.793949e+00 8.778857e-01 2.395890e+00 -7.130225e-05 1.466436e-03 6.120010e-04
Ga -4.785178e+00 8.855821e-01 7.540726e+00 1.086746e-03 -1.284659e-04 1.247874e-04
Al -4.785037e+00 8.795489e-01 -2.690473e+00 -1.290525e-04 2.244877e-04 2.448841e-04
Ga -6.399192e+00 3.620287e+00 2.382001e+00 5.912809e-04 -9.798959e-05 -1.788025e-06
Ga -6.385570e+00 3.623667e+00 7.555464e+00 4.094810e-04 3.918889e-04 -2.424941e-04
Ga -6.392893e+00 3.627801e+00 -2.678102e+00 1.053456e-04 -1.496373e-04 -8.487074e-04
Ga -3.202119e+00 -1.867123e+00 2.379628e+00 7.228142e-04 -1.048867e-03 1.236321e-03
Ga -3.197664e+00 -1.877337e+00 7.533365e+00 4.328207e-04 3.552578e-04 6.103447e-04
Al -3.193978e+00 -1.865448e+00 -2.669321e+00 -9.085402e-05 -2.537865e-04 -1.139959e-04
Al -1.602308e+00 8.838380e-01 2.418771e+00 4.890770e-05 1.925698e-04 2.084599e-04
Ga -1.603446e+00 9.083883e-01 7.528250e+00 4.798141e-04 -8.270087e-04 1.491866e-03
Al -1.618859e+00 8.853073e-01 -2.718771e+00 4.537252e-04 -4.861525e-04 -2.684980e-04
Al -3.178595e+00 3.632017e+00 2.401252e+00 4.012804e-04 7.148098e-04 3.132454e-04
Al -3.189116e+00 3.624800e+00 7.535643e+00 -2.047498e-04 -5.774071e-04 7.027615e-04
Al -3.197967e+00 3.620930e+00 -2.697617e+00 -4.240653e-04 -2.055444e-04 2.479384e-04
Ga -5.037348e-03 -1.843896e+00 2.403403e+00 5.031954e-04 -7.834821e-04 1.085946e-03
Ga 8.843776e-03 -1.859412e+00 7.523859e+00 -3.624144e-05 -5.293234e-04 8.488346e-04
Al -1.561862e-02 -1.854586e+00 -2.691922e+00 -7.091845e-05 -1.526207e-05 4.021214e-04
Al -2.395735e-02 1.777205e+00 4.943938e+00 -4.315626e-04 2.175425e-04 8.363064e-04
Al -2.555218e-02 1.786301e+00 -5.255242e+00 1.137258e-04 5.157934e-04 7.971791e-04
Ga -2.205344e-02 1.789815e+00 -1.567559e-01 1.222095e-04 -2.959407e-04 3.056707e-03
Ga 3.164252e+00 -3.717234e+00 4.968910e+00 -1.040661e-03 1.881496e-03 3.175927e-04
Ga 3.159148e+00 -3.728868e+00 -5.279840e+00 -1.147988e-04 8.335448e-04 5.366510e-04
Al 3.165026e+00 -3.702704e+00 -1.454612e-01 1.491842e-05 -1.848652e-05 1.027476e-03
Al 1.575621e+00 -9.422541e-01 4.960066e+00 1.652810e-04 -1.003606e-03 7.490418e-04
Al 1.566956e+00 -9.471427e-01 -5.263460e+00 -5.448999e-04 8.436774e-04 1.515245e-03
Al 1.574249e+00 -9.489990e-01 -1.553108e-01 -6.954006e-04 6.691857e-04 7.598020e-04
Ga 3.137840e+00 1.779219e+00 4.979181e+00 1.676337e-04 9.723557e-05 5.108509e-04
Ga 3.136392e+00 1.771187e+00 -5.248197e+00 -2.454877e-04 -3.150164e-05 2.076054e-04
Al 3.137290e+00 1.773670e+00 -1.657538e-01 1.703239e-05 1.116481e-04 1.365545e-03
Ga 6.331154e+00 -3.713927e+00 4.969637e+00 3.105670e-04 5.064838e-04 5.447994e-04
Ga 6.319986e+00 -3.718083e+00 -5.238576e+00 -2.585724e-04 -4.834537e-05 9.035728e-04
Al 6.315273e+00 -3.700405e+00 -1.657329e-01 1.626466e-04 -3.073515e-04 1.109016e-03
Ga 4.743377e+00 -9.589375e-01 4.965944e+00 -1.667161e-03 -2.794166e-04 4.434758e-04
Ga 4.744364e+00 -9.530519e-01 -5.244410e+00 -8.928139e-04 -4.698470e-05 6.788099e-04
Al 4.739570e+00 -9.635478e-01 -1.634472e-01 -8.147251e-06 3.826978e-04 -7.806948e-04
Al -3.182043e+00 1.797145e+00 4.948506e+00 -1.830863e-04 2.183685e-04 4.566686e-04
Al -3.198405e+00 1.802297e+00 -5.239088e+00 -2.370501e-04 1.429591e-04 7.137302e-04
Ga -3.203628e+00 1.789756e+00 -1.576336e-01 9.886848e-05 3.053978e-04 1.263299e-04
Ga 9.951949e-04 -3.703258e+00 4.965942e+00 1.911171e-04 9.757356e-05 -3.196217e-04
Ga 4.016633e-03 -3.707975e+00 -5.242161e+00 -2.056114e-04 2.248652e-04 1.635462e-04
Ga -1.157978e-02 -3.693439e+00 -1.543230e-01 8.407748e-05 -6.483512e-05 -9.119026e-04
Al -1.596832e+00 -9.316953e-01 4.959617e+00 -4.644564e-04 2.060625e-05 2.811129e-04
Ga -1.596721e+00 -9.412651e-01 -5.232255e+00 -5.210302e-04 -1.756185e-04 2.598288e-04
Al -1.611425e+00 -9.506462e-01 -1.770709e-01 -1.792972e-04 2.939575e-05 8.001129e-04
N 1.528570e+00 8.505073e-01 4.326024e+00 -3.062221e-04 6.907646e-05 -7.303946e-04
N 1.511654e+00 8.494440e-01 -5.901746e+00 -3.890246e-04 -1.225953e-04 -1.053070e-03
N 1.592772e+00 8.512360e-01 -7.930999e-01 1.085049e-05 1.279012e-05 1.673030e-04
N -2.864062e-02 3.581868e+00 4.313753e+00 -3.468141e-04 -1.056219e-03 -9.710750e-04
N -2.651133e-02 3.570185e+00 -5.917767e+00 -4.341415e-05 -7.405963e-04 -7.746786e-04
N -4.341500e-02 3.669565e+00 -7.771071e-01 5.525717e-04 -1.888194e-04 -1.083185e-04
N 3.115992e+00 -1.856976e+00 4.303525e+00 9.410906e-04 1.939721e-04 -4.250533e-03
N 3.115720e+00 -1.852107e+00 -5.902511e+00 4.064746e-05 -2.063507e-04 -5.587223e-04
N 3.148981e+00 -1.878811e+00 -7.098008e-01 4.367915e-04 4.527158e-04 1.797264e-04
N -4.754140e+00 9.024309e-01 4.369084e+00 8.835434e-04 1.064146e-04 -6.157941e-04
N -4.748049e+00 9.041254e-01 -5.853103e+00 6.215430e-04 -5.711991e-05 -4.878072e-04
N -4.832540e+00 8.560307e-01 -7.729806e-01 2.968575e-04 -3.023022e-04 -3.369707e-04
N -6.383403e+00 3.626269e+00 4.349565e+00 4.706261e-05 -7.467674e-05 -5.991442e-04
N -6.385074e+00 3.627611e+00 -5.846548e+00 9.002870e-05 5.443499e-05 -1.870459e-04
N -6.429928e+00 3.605542e+00 -7.091297e-01 -3.428279e-04 1.136190e-04 1.142939e-04
N -3.153549e+00 -1.850105e+00 4.359757e+00 8.694822e-04 1.706790e-04 -1.071015e-03
N -3.190237e+00 -1.873790e+00 -5.869719e+00 2.074404e-04 1.448584e-04 -5.963496e-04
N -3.198916e+00 -1.871765e+00 -7.511114e-01 -9.547449e-05 1.522793e-04 4.362135e-04
N -1.612117e+00 8.790305e-01 4.348909e+00 6.986755e-04 -9.106115e-05 -7.126582e-04
N -1.619654e+00 9.301119e-01 -5.841076e+00 7.555305e-04 -1.100876e-04 -4.386483e-04
N -1.617758e+00 8.421273e-01 -8.141209e-01 7.630094e-04 -6.718129e-04 -5.044429e-04
N -3.198048e+00 3.588585e+00 4.310746e+00 5.154886e-04 -8.060249e-04 -7.176257e-04
N -3.211915e+00 3.574260e+00 -5.915755e+00 3.495732e-04 -5.668332e-04 -6.295890e-04
N -3.165011e+00 3.652841e+00 -7.919223e-01 4.967788e-04 -2.391190e-04 -1.059006e-03
N -1.372886e-02 -1.817557e+00 4.387859e+00 -1.000987e-04 -1.331929e-04 -2.816216e-04
N 1.930816e-02 -1.847992e+00 -5.864979e+00 1.146471e-04 -3.094665e-04 -7.532393e-04
N -1.559865e-02 -1.818352e+00 -7.747459e-01 2.082817e-04 2.083895e-04 -5.668675e-04
N -1.583880e-02 1.763093e+00 1.836736e+00 -2.514132e-03 9.390958e-03 7.704106e-04
N 2.385341e-02 1.813832e+00 6.875705e+00 -2.752612e-04 5.176407e-04 -3.412103e-04
N -2.811779e-02 1.800590e+00 -3.318517e+00 1.719427e-04 9.978355e-05 -3.592713e-04
N 3.162628e+00 -3.704849e+00 1.778742e+00 2.046968e-03 -2.658222e-03 2.267920e-03
N 3.168041e+00 -3.711478e+00 6.970204e+00 3.014889e-04 6.440518e-04 -1.259686e-04
N 3.160317e+00 -3.756150e+00 -3.298630e+00 -1.139258e-03 7.120929e-04 -9.305507e-04
N 1.605657e+00 -9.196017e-01 1.757843e+00 2.383582e-03 -2.667116e-03 7.455389e-04
N 1.625651e+00 -9.298023e-01 6.886144e+00 -2.878276e-04 5.409260e-04 -6.452819e-04
N 1.529182e+00 -9.333469e-01 -3.341260e+00 -1.342982e-04 2.042868e-03 1.813999e-04
N 3.105371e+00 1.763122e+00 1.751254e+00 1.155480e-03 -2.621736e-04 -7.045239e-04
N 3.109954e+00 1.767710e+00 6.950820e+00 -6.355365e-04 -2.283401e-04 -4.201554e-04
N 3.147742e+00 1.744327e+00 -3.272969e+00 -1.498615e-03 -6.978765e-04 3.042412e-04
N 6.286977e+00 -3.728644e+00 1.749050e+00 -6.175082e-04 -7.317867e-04 4.416527e-05
N 6.300021e+00 -3.735988e+00 6.938857e+00 -6.470613e-04 -2.306062e-04 -7.543797e-04
N 6.287930e+00 -3.681475e+00 -3.261625e+00 -1.212770e-03 -6.952499e-04 2.226574e-04
N 4.703960e+00 -9.777370e-01 1.750875e+00 2.887071e-03 1.947926e-03 -2.290666e-03
N 4.707159e+00 -9.817081e-01 6.939679e+00 -9.448797e-04 -2.994623e-05 -4.211910e-04
N 4.785859e+00 -9.367202e-01 -3.264497e+00 -2.736936e-04 2.831591e-06 -1.435435e-04
N -3.154994e+00 1.817089e+00 1.818774e+00 9.219465e-05 -6.682395e-05 5.818259e-04
N -3.196628e+00 1.844454e+00 6.866536e+00 -2.689318e-04 4.199883e-04 -9.324023e-04
N -3.209753e+00 1.799353e+00 -3.309897e+00 -1.436148e-04 2.111887e-04 -2.675496e-04
N 2.928081e-02 -3.722913e+00 1.815333e+00 2.543550e-04 1.013318e-04 6.273291e-04
N 3.076571e-02 -3.732364e+00 6.940984e+00 7.325877e-05 8.897219e-05 -1.779198e-04
N 2.427932e-02 -3.682032e+00 -3.261439e+00 4.044095e-04 1.681756e-04 3.507595e-04
N -1.606722e+00 -9.012864e-01 1.746471e+00 -8.618423e-04 -1.705014e-04 -1.398457e-03
N -1.600706e+00 -9.451663e-01 6.871093e+00 -7.714362e-04 2.773591e-04 -3.940411e-04
N -1.610748e+00 -9.584027e-01 -3.252166e+00 -3.615986e-04 1.387363e-04 2.613532e-04
