108
Energy=-1443724.756827 Lattice="9.516931 0.000000 0.000000 -4.758415 8.240209 0.000000 -0.002448 -0.003646 15.361002" Stress="0.000001 -0.000000 -0.000001 -0.000000 -0.000001 0.000000 -0.000001 0.000000 -0.000003" Properties=species:S:1:pos:R:3:forces:R:3
Al 1.578774 0.865294 2.425893 -0.000098 0.001632 0.000660
Al 1.570184 0.881605 7.552905 -0.001912 -0.000349 -0.007732
Al 1.559604 0.905956 -2.717642 -0.000825 -0.004291 -0.003887
Al -0.035512 3.623935 2.406859 -0.000146 -0.000095 0.000276
Al -0.027481 3.629363 7.575934 0.004387 -0.003570 0.000084
Al -0.018040 3.623847 -2.748861 -0.000372 -0.000020 -0.000733
Al 3.134918 -1.879190 2.402287 0.000082 -0.000809 0.000934
Al 3.160866 -1.873018 7.551580 -0.002079 0.000200 0.000417
Ga 3.152783 -1.886807 -2.715264 0.000149 0.000860 -0.000300
Al -4.803835 0.885445 2.430676 0.003744 0.002147 -0.006125
Ga -4.783273 0.874595 7.552647 0.000012 0.000206 -0.000566
Ga -4.791825 0.889012 -2.730469 0.000529 -0.001015 0.001051
Ga -6.368777 3.600547 2.407426 -0.000034 0.000155 -0.000197
Al -6.387810 3.610436 7.563825 0.001546 0.001107 0.000212
Al -6.371227 3.625865 -2.740958 -0.000122 0.000489 0.000590
Ga -3.196112 -1.875777 2.434673 -0.000024 0.000112 -0.000256
Al -3.194209 -1.880711 7.543984 -0.000666 0.000141 0.001319
Al -3.194187 -1.886214 -2.741072 -0.000134 0.000404 -0.000193
Ga -1.616790 0.884619 2.419590 -0.000342 0.000119 -0.000384
Al -1.603933 0.882683 7.523113 -0.000720 -0.000601 0.004567
Ga -1.605010 0.892057 -2.717763 0.000875 -0.000578 -0.000377
Al -3.185106 3.621952 2.402220 0.000134 -0.000762 0.000066
Ga -3.187427 3.616789 7.559008 -0.000266 0.000461 0.000816
Al -3.189842 3.631104 -2.733070 -0.001018 -0.000543 0.001981
Al -0.006029 -1.863859 2.443861 -0.000314 -0.000067 0.000126
Ga -0.024147 -1.863641 7.532477 0.000958 -0.000033 0.000197
Al -0.023980 -1.881348 -2.734318 0.000251 0.000340 -0.000209
Ga -0.015645 1.778334 4.987561 0.000350 0.000041 0.000881
Al -0.009772 1.799535 -5.297484 -0.002586 0.002168 0.003689
Ga -0.014052 1.806976 -0.148661 -0.001116 0.000137 0.000319
Ga 3.145152 -3.704883 4.978928 0.000076 0.000300 0.000127
Al 3.153841 -3.722404 -5.257057 0.001584 0.003690 -0.004732
Al 3.146048 -3.722049 -0.152109 -0.000348 -0.000076 0.000172
Al 1.569602 -0.946937 4.971721 -0.000364 0.000351 0.000960
Ga 1.579309 -0.947167 -5.267775 0.000227 -0.000952 0.001265
Ga 1.563309 -0.948705 -0.142624 -0.000572 -0.000124 -0.000003
Al 3.152176 1.779870 4.988335 -0.001143 -0.000528 0.001946
Al 3.145565 1.805470 -5.269749 0.000655 -0.000711 -0.000558
Al 3.149753 1.789419 -0.160393 0.000869 -0.000094 0.000311
Ga 6.324384 -3.713114 5.013542 -0.000202 -0.000337 0.000459
Al 6.317376 -3.709177 -5.275344 -0.000588 0.002247 -0.000263
Ga 6.310205 -3.711573 -0.182983 0.000176 0.000249 0.000200
Ga 4.726198 -0.940255 4.977905 -0.000398 -0.000589 0.000283
Al 4.739491 -0.945063 -5.292544 -0.000372 -0.007048 0.003873
Ga 4.736604 -0.944739 -0.134833 -0.000071 0.000745 0.000188
Al -3.204509 1.791357 4.977163 0.000280 -0.001757 -0.002531
Al -3.197653 1.804396 -5.262501 0.005014 -0.000618 -0.001201
Al -3.209507 1.812168 -0.150742 -0.000384 -0.000103 0.001199
Ga -0.021685 -3.708625 4.967558 0.000110 0.000462 0.000406
Al -0.029380 -3.718973 -5.250650 0.001595 -0.001079 -0.000125
Ga -0.010218 -3.712205 -0.162145 0.000254 -0.000244 0.000535
Al -1.604277 -0.945492 5.001354 0.000182 -0.000083 0.000061
Ga -1.622380 -0.947770 -5.272547 -0.000707 0.000758 -0.000108
Ga -1.608332 -0.957686 -0.163930 -0.000326 -0.000011 0.000658
N 1.609853 0.853236 4.350513 0.000701 0.000283 -0.000520
N 1.568611 0.921519 -5.915494 0.002741 0.000278 0.003689
N 1.600373 0.902141 -0.813291 0.000857 0.000375 0.002163
N -0.021261 3.620831 4.315068 -0.000056 0.000141 -0.000611
N -0.023064 3.622902 -5.868799 0.000658 0.000343 -0.000541
N -0.070556 3.644629 -0.832164 0.000039 0.000011 -0.000041
N 3.106737 -1.855709 4.321794 0.000162 0.000095 -0.000788
N 3.186689 -1.900496 -5.892406 0.001354 0.000866 0.000042
N 3.151156 -1.921491 -0.739011 0.000203 -0.000382 0.000127
N -4.786055 0.929165 4.342389 -0.000037 0.000253 0.002965
N -4.766241 0.880642 -5.823993 -0.006259 0.003173 -0.001121
N -4.783073 0.924387 -0.746439 -0.000051 0.000106 -0.000785
N -6.373916 3.566890 4.376093 -0.000044 -0.000025 0.000001
N -6.366422 3.623588 -5.871227 0.000233 -0.000438 -0.000070
N -6.365103 3.574838 -0.815233 -0.000102 -0.000247 -0.000306
N -3.152999 -1.854174 4.402739 0.000289 0.000305 0.000071
N -3.234765 -1.887867 -5.903863 0.000536 -0.002403 0.000232
N -3.202481 -1.868562 -0.831638 -0.000039 -0.000001 0.000082
N -1.652366 0.854153 4.399222 -0.000346 -0.000045 0.000604
N -1.604434 0.931468 -5.901388 -0.002135 -0.000655 -0.002200
N -1.652652 0.909653 -0.742793 0.000433 -0.000047 0.000105
N -3.190417 3.570768 4.321215 0.000266 0.001107 -0.000880
N -3.192977 3.621483 -5.827015 -0.002801 0.001261 0.000411
N -3.152297 3.601831 -0.800295 0.000210 -0.000026 -0.000802
N -0.023875 -1.818831 4.370182 0.000209 -0.000083 -0.000310
N -0.020583 -1.918870 -5.860077 0.000192 0.000194 -0.000344
N -0.018434 -1.873232 -0.830607 0.000269 0.000025 0.000306
N 0.024897 1.810842 1.834782 0.000431 -0.000073 0.000373
N -0.020614 1.793957 6.978055 0.001488 0.001723 0.000586
N 0.016669 1.816049 -3.365524 0.000833 -0.000337 -0.000767
N 3.149365 -3.709578 1.783351 -0.000062 0.000378 -0.000063
N 3.194845 -3.683114 6.961892 -0.001750 0.001092 -0.001174
N 3.149619 -3.748577 -3.361384 0.000376 -0.000384 0.002506
N 1.557191 -0.951295 1.848290 0.000138 -0.000875 -0.001146
N 1.611373 -0.931679 6.904620 0.001009 0.000289 0.000376
N 1.530731 -0.926424 -3.294947 -0.000555 0.002355 0.000654
N 3.144801 1.738638 1.759915 -0.001079 -0.000563 0.000589
N 3.111343 1.813597 6.919918 0.000181 -0.000654 -0.002300
N 3.101277 1.817180 -3.359413 0.000757 0.000843 -0.001067
N 6.279580 -3.726701 1.792564 -0.000049 -0.000144 -0.000205
N 6.319950 -3.710588 6.997293 -0.001426 -0.000175 0.000065
N 6.323453 -3.702634 -3.345283 0.000177 -0.000115 -0.000262
N 4.697268 -0.930843 1.848093 -0.000499 -0.000119 0.000558
N 4.737136 -1.001066 6.957910 -0.000572 0.000406 -0.000104
N 4.773471 -0.977362 -3.369239 -0.000146 0.000653 -0.001850
N -3.241548 1.817998 1.773094 -0.002054 -0.001107 0.000964
N -3.161189 1.771627 6.882123 0.000089 -0.000150 0.001562
N -3.197572 1.840302 -3.366711 0.000233 0.000498 0.001032
N 0.017549 -3.673461 1.833036 0.000165 0.000324 -0.000259
N -0.064191 -3.733413 6.939965 -0.001055 -0.000545 0.000091
N -0.022032 -3.706213 -3.326378 -0.000107 -0.000211 -0.000262
N -1.564274 -0.984185 1.811886 0.000110 0.000022 -0.000726
N -1.651436 -0.930852 6.922575 0.000398 0.000181 -0.001245
N -1.609864 -0.993638 -3.300626 -0.000299 -0.000208 0.000248
