108
Energy=-1443724.747942 Lattice="9.516907 0.000000 0.000000 -4.762186 8.239121 0.000000 -0.005345 0.005947 15.365241" Stress="0.000001 -0.000001 -0.000002 -0.000001 -0.000002 0.000001 -0.000002 0.000001 0.000001" Properties=species:S:1:pos:R:3:forces:R:3
Al 1.563285 0.882697 2.435377 -0.000303 0.000087 -0.000039
Al 1.550278 0.874080 7.510160 -0.000006 -0.000047 0.000150
Al 1.567582 0.877777 -2.712213 -0.000011 0.000039 0.000090
Al -0.026648 3.616681 2.426912 -0.000146 -0.000200 0.000112
Al -0.041103 3.604721 7.511853 0.000014 0.000021 0.000050
Al -0.003006 3.616944 -2.693010 0.000014 0.000050 0.000095
Al 3.151594 -1.867487 2.427730 -0.000051 -0.000083 -0.000131
Ga 3.129207 -1.864597 7.545668 -0.000008 -0.000005 0.000085
Ga 3.157498 -1.853264 -2.729338 0.000044 0.000024 0.000015
Ga -4.797647 0.875082 2.416657 0.000027 -0.000001 0.000064
Al -4.778915 0.890543 7.534179 0.000008 -0.000000 0.000132
Al -4.784790 0.869383 -2.712004 0.000016 -0.000095 0.000407
Ga -6.382924 3.608922 2.394564 -0.000057 -0.000019 0.000069
Ga -6.367058 3.611842 7.550929 -0.000057 -0.000013 0.000063
Al -6.367677 3.624567 -2.702755 -0.000034 0.000168 0.000090
Ga -3.196257 -1.866733 2.391013 0.000015 0.000029 0.000059
Ga -3.185853 -1.853846 7.554642 -0.000098 -0.000054 0.000076
Al -3.187555 -1.867776 -2.706431 -0.000069 -0.000080 0.000053
Al -1.596547 0.873128 2.439811 -0.000211 0.000109 -0.000022
Al -1.610168 0.883715 7.524878 0.000022 0.000086 0.000147
Ga -1.605892 0.864094 -2.729727 0.000059 0.000016 0.000023
Ga -3.182897 3.625046 2.433983 -0.000089 -0.000038 0.000002
Al -3.192899 3.611799 7.535292 -0.000049 -0.000012 0.000009
Ga -3.213830 3.618073 -2.720479 0.000088 0.000001 0.000028
Ga -0.022269 -1.851043 2.418906 -0.000106 -0.000033 0.000117
Al -0.018585 -1.848352 7.543910 -0.000004 0.000087 0.000051
Al -0.032792 -1.871047 -2.724801 -0.000088 -0.000000 0.000102
Al -0.029663 1.784140 4.968811 -0.000001 -0.000043 0.000019
Ga -0.024776 1.775217 -5.286711 0.000065 0.000077 0.000052
Ga -0.009720 1.788934 -0.125987 -0.000026 -0.000002 -0.000017
Al 3.149527 -3.706048 4.981220 -0.000026 -0.000075 0.000117
Ga 3.144828 -3.709024 -5.277744 0.000016 -0.000029 0.000033
Ga 3.165563 -3.693811 -0.135964 -0.000111 0.000109 -0.000141
Al 1.558516 -0.941523 4.973538 0.000046 -0.000008 0.000036
Al 1.546832 -0.955402 -5.272631 0.000139 -0.000093 -0.000023
Ga 1.562609 -0.949480 -0.144390 -0.000059 0.000056 -0.000033
Al 3.139286 1.778561 4.993762 -0.000005 -0.000003 -0.000023
Ga 3.162972 1.769285 -5.257818 -0.000031 0.000012 0.000061
Al 3.148781 1.793534 -0.180558 0.000097 -0.000062 -0.000180
Ga 6.311633 -3.708960 4.977670 -0.000005 0.000039 -0.000108
Ga 6.324018 -3.693509 -5.239495 0.000008 0.000055 0.000188
Al 6.333360 -3.695919 -0.176513 0.000109 0.000055 0.000159
Ga 4.725932 -0.945489 4.980096 -0.000057 -0.000031 -0.000034
Al 4.749887 -0.936612 -5.264625 -0.000038 -0.000150 0.000111
Al 4.746305 -0.951611 -0.157760 0.000001 0.000054 0.000013
Al -3.184899 1.788237 4.995638 0.000019 -0.000110 -0.000030
Al -3.203530 1.776895 -5.296123 -0.000022 0.000186 0.000053
Ga -3.207700 1.776655 -0.143954 0.000080 -0.000056 0.000045
Ga -0.012676 -3.693951 5.004893 0.000021 0.000067 0.000006
Al -0.011747 -3.687949 -5.277263 -0.000035 0.000024 0.000058
Al -0.042989 -3.694753 -0.168041 0.000040 -0.000066 -0.000032
Al -1.596877 -0.930659 4.995652 -0.000030 -0.000123 -0.000374
Al -1.599091 -0.959367 -5.271750 -0.000128 0.000079 -0.000056
Al -1.613510 -0.969060 -0.166717 -0.000169 0.000225 0.000003
N 1.565310 0.882044 4.366073 0.000051 -0.000042 -0.000034
N 1.567896 0.825724 -5.937706 -0.000047 0.000022 -0.000203
N 1.597151 0.895513 -0.806265 0.000020 -0.000021 -0.000025
N -0.068779 3.598151 4.347042 0.000057 0.000141 -0.000223
N -0.019188 3.618407 -5.949534 0.000032 0.000005 -0.000124
N 0.015154 3.637210 -0.788449 -0.000061 -0.000050 -0.000020
N 3.105535 -1.893668 4.353447 0.000051 0.000080 -0.000023
N 3.149509 -1.820707 -5.835717 -0.000092 0.000035 -0.000010
N 3.189835 -1.842954 -0.761084 0.000013 0.000024 -0.000004
N -4.784677 0.931202 4.394312 0.000111 0.000037 0.000012
N -4.743313 0.851605 -5.916449 0.000049 0.000149 -0.000180
N -4.819216 0.849712 -0.790523 0.000001 0.000019 -0.000071
N -6.366423 3.573855 4.375319 0.000093 -0.000023 0.000023
N -6.330646 3.638084 -5.848392 -0.000012 -0.000072 -0.000051
N -6.365690 3.622706 -0.773048 -0.000009 0.000019 0.000033
N -3.148921 -1.841319 4.369789 0.000128 0.000093 0.000090
N -3.189961 -1.826221 -5.839594 0.000061 0.000020 -0.000101
N -3.194176 -1.865040 -0.770858 -0.000009 -0.000002 0.000011
N -1.612849 0.874750 4.370606 0.000064 -0.000080 -0.000009
N -1.648610 0.846500 -5.911942 0.000094 -0.000113 -0.000150
N -1.604721 0.831445 -0.760665 0.000019 -0.000156 -0.000034
N -3.161081 3.598315 4.409311 0.000027 0.000051 -0.000045
N -3.237532 3.593302 -5.905516 0.000035 -0.000142 -0.000045
N -3.236849 3.645564 -0.746655 -0.000040 -0.000079 -0.000023
N -0.028388 -1.820600 4.393736 -0.000065 0.000043 0.000031
N -0.019857 -1.866640 -5.892762 -0.000049 -0.000051 0.000068
N -0.060311 -1.890226 -0.796102 0.000105 -0.000104 -0.000113
N -0.021901 1.788665 1.867497 0.000345 0.000069 0.000031
N -0.028746 1.789042 6.902929 0.000017 -0.000011 -0.000017
N 0.021886 1.815747 -3.308574 0.000008 0.000056 0.000021
N 3.196224 -3.674910 1.841088 -0.000052 -0.000028 0.000022
N 3.146224 -3.741752 6.906201 0.000028 0.000034 -0.000116
N 3.197167 -3.733205 -3.309221 0.000009 0.000034 -0.000014
N 1.605845 -0.924581 1.838273 -0.000031 -0.000047 -0.000039
N 1.519682 -0.929675 6.891984 0.000033 0.000003 -0.000084
N 1.514864 -0.927880 -3.349897 -0.000112 -0.000027 0.000093
N 3.101416 1.762633 1.738393 0.000003 0.000003 0.000064
N 3.144800 1.743978 6.909433 -0.000041 -0.000000 -0.000024
N 3.152177 1.789050 -3.271940 0.000053 -0.000117 -0.000098
N 6.277147 -3.726615 1.748600 0.000070 0.000067 -0.000142
N 6.280758 -3.719809 6.943123 0.000050 0.000020 -0.000131
N 6.325170 -3.700754 -3.255940 0.000012 0.000016 -0.000025
N 4.692435 -0.974808 1.761436 -0.000041 -0.000008 0.000037
N 4.730053 -0.908071 6.943231 0.000026 -0.000008 -0.000064
N 4.786691 -0.927226 -3.346875 -0.000085 0.000110 -0.000114
N -3.153393 1.764126 1.825892 0.000013 -0.000056 0.000054
N -3.195874 1.791225 6.923135 0.000011 -0.000036 0.000003
N -3.238549 1.763773 -3.376876 0.000019 0.000030 -0.000100
N -0.020558 -3.696395 1.746779 -0.000045 0.000070 -0.000081
N 0.018688 -3.668788 6.976333 -0.000016 -0.000075 -0.000047
N -0.062075 -3.674552 -3.353654 0.000007 0.000015 0.000010
N -1.605541 -0.902470 1.748295 0.000013 -0.000057 -0.000061
N -1.567481 -0.925957 6.910579 0.000074 -0.000080 0.000219
N -1.606718 -1.005926 -3.354096 0.000179 -0.000004 0.000026
