108
Energy=-1718377.691844 Lattice="9.538062 0.000000 0.000000 -4.773320 8.258405 0.000000 -0.000154 0.000071 15.406397" Stress="-0.000029 -0.000001 -0.000000 -0.000001 -0.000031 0.000001 -0.000000 0.000001 -0.000035" Properties=species:S:1:pos:R:3:forces:R:3
Al 1.563509 0.868864 2.410793 -0.000200 0.000725 -0.000053
Al 1.556689 0.876164 7.584015 0.000274 0.000381 0.000402
Al 1.561191 0.870015 -2.742458 0.000301 -0.000455 0.000322
Al -0.038498 3.627077 2.420786 0.001348 -0.000735 -0.002904
Al -0.036184 3.622747 7.569955 -0.000597 0.000458 0.000008
Ga -0.010203 3.619835 -2.731839 -0.000140 0.000166 0.000670
Al 3.149919 -1.871339 2.418598 0.001588 -0.000237 -0.002730
Ga 3.140173 -1.896064 7.560267 0.000041 -0.000700 0.000769
Ga 3.137319 -1.873442 -2.715881 -0.000138 0.000152 0.000689
Al -4.792997 0.873933 2.424089 -0.000195 0.000004 -0.000290
Ga -4.800439 0.893763 7.556985 0.000614 0.000239 -0.000284
Ga -4.812554 0.887553 -2.706433 0.000352 -0.000146 0.000205
Ga -6.385172 3.621052 2.434973 -0.000620 -0.000130 -0.000169
Ga -6.379965 3.629249 7.562332 0.000171 0.000071 0.000098
Al -6.394352 3.629747 -2.734350 -0.000102 0.000101 0.000260
Ga -3.206019 -1.867858 2.401734 -0.000104 -0.000202 -0.000301
Ga -3.186582 -1.882521 7.555295 -0.000348 0.000117 0.000378
Ga -3.183230 -1.892655 -2.687794 -0.000346 -0.000022 0.000461
Al -1.615435 0.881580 2.438829 0.000228 0.000619 -0.000094
Ga -1.605939 0.887364 7.538455 -0.000061 0.000059 0.000057
Ga -1.596304 0.876035 -2.714141 0.000389 -0.000168 0.000205
Al -3.203276 3.629879 2.449381 0.003172 -0.000836 0.000874
Al -3.193455 3.643988 7.520552 0.000334 -0.000700 0.000783
Ga -3.209856 3.644510 -2.716500 0.000241 -0.000253 0.000132
Ga -0.010588 -1.860358 2.425130 -0.000149 0.000011 0.000047
Al -0.011043 -1.871258 7.539320 -0.000354 -0.001044 0.000226
Al -0.009977 -1.864235 -2.703144 0.000074 -0.000103 0.000496
Ga -0.031453 1.800725 4.981333 0.000063 0.000072 0.000485
Al -0.003302 1.802828 -5.302025 -0.000104 0.000341 0.000385
Ga -0.013412 1.779240 -0.127682 -0.000309 0.000894 0.000667
Al 3.151906 -3.712024 4.952773 0.000012 -0.003139 0.004960
Al 3.166801 -3.719427 -5.307503 -0.000225 0.000160 0.000398
Ga 3.168799 -3.698089 -0.107227 0.000122 0.000406 -0.001427
Ga 1.564696 -0.963176 4.993341 -0.000947 0.000562 0.000586
Al 1.561978 -0.947982 -5.293933 -0.000152 -0.000618 0.000545
Al 1.568869 -0.950781 -0.145369 0.000337 -0.000817 -0.000385
Ga 3.158884 1.791390 4.983316 0.000473 0.000020 0.000289
Al 3.126322 1.795164 -5.273462 0.000267 0.000029 0.000305
Ga 3.139204 1.788365 -0.147410 0.000181 0.000042 0.000649
Ga 6.327186 -3.709237 4.993127 0.000575 0.000196 0.000310
Al 6.327342 -3.729476 -5.288393 0.000155 -0.000031 0.000321
Al 6.340893 -3.705473 -0.144085 -0.000129 -0.000199 0.000129
Ga 4.751353 -0.953897 4.970675 0.000445 0.000659 0.000543
Ga 4.738592 -0.967932 -5.281723 -0.000203 0.000050 0.000487
Al 4.746326 -0.964487 -0.123815 -0.000439 -0.000403 -0.000067
Al -3.193254 1.813745 4.956172 -0.002846 -0.000807 0.002054
Ga -3.201042 1.813986 -5.298100 0.000079 0.000185 0.000163
Ga -3.202545 1.784781 -0.103493 0.000101 -0.000308 0.000353
Al -0.003222 -3.703946 4.999119 0.000168 -0.000336 0.000137
Ga -0.016826 -3.698455 -5.287416 0.000352 -0.000188 0.000281
Ga -0.033330 -3.692738 -0.153630 -0.000074 -0.000009 -0.000056
Al -1.605823 -0.951528 4.987688 -0.000286 -0.000261 0.000288
Ga -1.590269 -0.962495 -5.279680 -0.000357 -0.000016 0.000686
Al -1.605310 -0.960658 -0.144610 -0.000228 -0.000264 -0.000450
N 1.562070 0.873277 4.311385 0.000248 -0.000195 -0.000545
N 1.566903 0.875026 -5.899108 0.000157 0.000101 -0.000277
N 1.561916 0.827323 -0.820006 0.000039 -0.000017 -0.000141
N -0.063276 3.654337 4.316898 -0.000359 0.000353 0.003107
N -0.026841 3.629513 -5.907264 0.000150 0.000037 -0.000457
N 0.013327 3.648280 -0.750599 0.000009 -0.000147 -0.000567
N 3.153833 -1.918539 4.332103 -0.000012 0.001394 -0.000184
N 3.112737 -1.903459 -5.868782 -0.000380 0.000445 -0.000191
N 3.157465 -1.832653 -0.728425 -0.000746 0.000532 -0.000190
N -4.753603 0.902935 4.334346 0.000844 0.000376 -0.000616
N -4.840551 0.905947 -5.878779 0.000061 -0.000044 -0.000274
N -4.793434 0.832303 -0.734937 0.000110 0.000201 0.000245
N -6.340606 3.660243 4.404538 -0.000214 0.000039 -0.000519
N -6.418384 3.606029 -5.865355 -0.000356 0.000061 -0.000244
N -6.428091 3.650758 -0.809839 -0.000152 0.000181 0.000185
N -3.154471 -1.852536 4.375037 -0.000218 -0.000018 -0.000697
N -3.192782 -1.923191 -5.881822 -0.000077 0.000015 -0.000612
N -3.199848 -1.877168 -0.694125 0.000081 0.000064 0.000078
N -1.652692 0.852761 4.364538 0.000939 -0.000098 -0.001298
N -1.573361 0.902476 -5.894464 0.000486 -0.000473 -0.000416
N -1.614756 0.837495 -0.742917 0.000391 -0.000151 0.000071
N -3.206367 3.643027 4.372516 -0.000020 -0.000463 -0.000254
N -3.166006 3.662062 -5.961480 0.000001 -0.000214 -0.001360
N -3.197667 3.630850 -0.754176 -0.000023 -0.000058 0.000436
N -0.061715 -1.894606 4.402694 0.000378 -0.000123 -0.000670
N 0.020377 -1.851159 -5.955146 0.000231 0.000212 -0.000808
N -0.015050 -1.821075 -0.778422 0.000283 0.000204 0.000341
N -0.026173 1.790885 1.860079 0.000013 0.000004 0.000310
N 0.024701 1.820867 6.966909 0.000066 0.000241 -0.000828
N 0.018417 1.770309 -3.385579 0.000079 0.000257 -0.000047
N 3.154369 -3.711717 1.863499 -0.001434 0.000399 0.002496
N 3.169360 -3.762297 6.898702 0.000018 0.000856 -0.002880
N 3.162404 -3.715221 -3.396888 -0.000059 0.000233 -0.000104
N 1.609272 -0.934239 1.777476 -0.001008 0.000262 -0.000271
N 1.534232 -0.925928 6.970392 -0.000280 0.000201 -0.001012
N 1.523794 -0.939251 -3.367110 -0.000120 0.000776 -0.000494
N 3.151341 1.749037 1.834793 0.000164 -0.000058 -0.000927
N 3.103694 1.768015 6.951136 -0.000062 -0.000133 -0.000418
N 3.108720 1.817848 -3.350636 -0.000273 -0.000109 0.000381
N 6.299844 -3.740786 1.766880 -0.000439 -0.000134 0.001061
N 6.290253 -3.740509 6.959976 0.000162 -0.000163 -0.000644
N 6.374949 -3.731007 -3.377276 0.000176 -0.000057 -0.000115
N 4.702401 -0.934206 1.793712 -0.000450 -0.000107 0.000854
N 4.743400 -0.958275 6.940627 -0.000271 -0.000140 -0.000899
N 4.754147 -0.963161 -3.318871 -0.000207 -0.000104 0.000041
N -3.203155 1.799241 1.882416 0.000303 0.000292 -0.000476
N -3.207504 1.843188 6.887321 0.000295 0.000468 -0.001983
N -3.204477 1.798197 -3.335932 -0.000022 -0.000027 0.000095
N 0.020421 -3.732349 1.821773 -0.000796 0.000694 -0.001340
N 0.022344 -3.686478 6.921539 -0.000357 0.001007 -0.000134
N -0.062559 -3.676887 -3.299320 0.000010 -0.000067 0.000166
N -1.603641 -0.905861 1.765067 -0.000087 0.000092 0.000456
N -1.568354 -0.976190 6.899530 0.000183 -0.000403 -0.000390
N -1.565914 -0.984667 -3.309631 -0.000257 -0.000089 0.000066
