108
Energy=-5.282150e+05 Lattice="9.421748e+00 0.000000e+00 0.000000e+00 -4.727511e+00 8.147906e+00 0.000000e+00 2.817002e-02 7.757987e-03 1.510379e+01" Stress="4.867276e-03 9.312420e-04 8.129701e-04 9.326306e-04 3.465810e-03 -1.274690e-04 8.088233e-04 -1.311594e-04 1.184894e-03" Properties=species:S:1:pos:R:3:forces:R:3 Config_type=AlGaN_super3_2_1_7.xyz
Al 1.552885e+00 8.615881e-01 2.362312e+00 2.917202e-03 2.544455e-03 1.485266e-03
Al 1.550759e+00 8.622831e-01 7.404207e+00 2.200418e-03 1.916328e-03 9.280190e-04
Al 1.523955e+00 8.518286e-01 -2.675360e+00 2.839577e-03 1.253315e-03 2.108384e-03
Al -1.720889e-02 3.582231e+00 2.358215e+00 1.277058e-03 5.681331e-04 1.736249e-03
Al -1.722562e-02 3.578579e+00 7.403291e+00 1.690327e-03 -7.478164e-05 7.394273e-04
Al -4.625589e-02 3.573594e+00 -2.673761e+00 1.524665e-03 6.558407e-04 2.040805e-03
Al 3.117667e+00 -1.857433e+00 2.380630e+00 1.437219e-02 4.944538e-03 -3.998071e-03
Al 3.140752e+00 -1.847609e+00 7.403401e+00 1.870300e-03 -1.032724e-03 1.453075e-03
Al 3.102467e+00 -1.860520e+00 -2.679217e+00 2.738754e-03 -2.315155e-04 1.833695e-03
Al -4.719983e+00 8.655399e-01 2.380546e+00 1.640720e-03 1.070586e-02 -7.470194e-04
Al -4.728160e+00 8.684755e-01 7.406607e+00 1.272365e-03 1.122426e-03 -8.796548e-05
Al -4.757537e+00 8.677083e-01 -2.685282e+00 6.683347e-04 1.382643e-03 1.464686e-03
Al -6.309130e+00 3.574159e+00 2.375472e+00 7.985503e-03 3.382959e-03 -1.127955e-03
Al -6.297043e+00 3.587371e+00 7.405245e+00 2.991959e-04 -1.017463e-05 -2.983300e-04
Al -6.333988e+00 3.574213e+00 -2.676401e+00 1.693951e-03 5.795953e-04 1.506537e-05
Al -3.112972e+00 -1.838266e+00 2.366685e+00 -4.749680e-04 -1.787677e-03 8.175702e-04
Al -3.140069e+00 -1.839674e+00 7.403676e+00 5.592638e-04 -1.544691e-03 6.240007e-04
Al -3.162179e+00 -1.851701e+00 -2.676906e+00 -1.204211e-04 -9.861174e-04 1.783032e-03
Al -1.581743e+00 8.743737e-01 2.366935e+00 -2.034453e-03 -1.161868e-03 -2.184294e-04
Al -1.588496e+00 8.765675e-01 7.406057e+00 9.988888e-04 -2.639178e-04 3.164474e-04
Al -1.619744e+00 8.669460e-01 -2.670257e+00 6.717445e-04 -7.787268e-04 2.046194e-03
Al -3.148071e+00 3.581684e+00 2.381778e+00 3.771124e-03 -3.731417e-03 1.120150e-03
Al -3.158867e+00 3.593867e+00 7.406711e+00 -6.477310e-04 -1.658004e-03 -2.682866e-04
Al -3.180159e+00 3.580760e+00 -2.676830e+00 -1.813636e-03 -8.226165e-04 5.150430e-04
Al 1.245925e-02 -1.821270e+00 2.387015e+00 -1.715389e-03 -3.991880e-03 1.778683e-04
Al -1.222334e-03 -1.833721e+00 7.405386e+00 -3.179976e-04 -3.226411e-03 5.945567e-04
Al -3.114725e-02 -1.833053e+00 -2.678927e+00 -1.114583e-04 -4.401239e-03 1.710746e-03
Al -1.287472e-02 1.764371e+00 4.884114e+00 4.878448e-05 3.044062e-03 1.016202e-03
Al -4.338505e-02 1.755437e+00 -5.186546e+00 1.621351e-04 3.088565e-03 1.459430e-03
Al -3.806676e-02 1.757567e+00 -1.574125e-01 -2.091198e-04 2.562204e-03 -1.261594e-03
Al 3.143125e+00 -3.665195e+00 4.897954e+00 6.813058e-04 2.617618e-04 -3.124679e-04
Al 3.114481e+00 -3.671771e+00 -5.189396e+00 5.982368e-04 1.727256e-03 2.605629e-04
Al 3.111864e+00 -3.680757e+00 -1.314559e-01 2.960642e-03 3.616149e-03 -1.220436e-02
Al 1.574350e+00 -9.440954e-01 4.901263e+00 -1.356544e-03 1.655145e-03 1.947759e-04
Al 1.544742e+00 -9.532396e-01 -5.189691e+00 -5.444626e-04 4.899467e-04 5.438937e-04
Al 1.531873e+00 -9.513150e-01 -1.295903e-01 2.589930e-03 1.349175e-03 -1.249383e-02
Al 3.124372e+00 1.770665e+00 4.894396e+00 -8.875409e-04 1.292502e-03 1.488942e-04
Al 3.093667e+00 1.762647e+00 -5.192519e+00 -5.526931e-04 1.428177e-03 6.543845e-04
Al 3.092436e+00 1.752758e+00 -1.454049e-01 -4.433125e-03 6.113427e-03 -6.585901e-03
Al 6.282020e+00 -3.656932e+00 4.892905e+00 -5.618323e-04 3.790278e-04 -3.807106e-04
Al 6.252636e+00 -3.664717e+00 -5.189727e+00 -3.653155e-04 1.993699e-04 1.230606e-04
Al 6.248324e+00 -3.672168e+00 -1.306663e-01 5.656891e-04 2.346585e-03 -1.484343e-02
Al 4.712704e+00 -9.385927e-01 4.889266e+00 -2.882151e-05 -1.207173e-03 -5.049556e-04
Al 4.683833e+00 -9.475902e-01 -5.185268e+00 -1.208037e-03 -1.181448e-03 6.222576e-04
Ga 4.674480e+00 -9.375812e-01 -1.359990e-01 1.917977e-03 3.040135e-05 -1.520427e-02
Al -3.153954e+00 1.777423e+00 4.894656e+00 -9.109761e-04 1.031207e-03 7.600066e-04
Al -3.182778e+00 1.770150e+00 -5.193432e+00 -1.684322e-03 8.451036e-04 1.299444e-03
Al -3.176012e+00 1.770341e+00 -1.369599e-01 -3.042709e-03 4.314533e-04 -9.948757e-03
Al 2.400157e-03 -3.649135e+00 4.889014e+00 -1.315131e-03 -3.259559e-04 -1.835707e-03
Al -2.715601e-02 -3.656989e+00 -5.185490e+00 -1.511360e-03 -2.740320e-04 9.809255e-04
Ga -2.930130e-02 -3.659152e+00 -1.374878e-01 7.631258e-04 3.670935e-04 -2.120828e-03
Al -1.564865e+00 -9.292007e-01 4.895880e+00 -2.579039e-03 -1.383622e-03 5.424189e-04
Al -1.595804e+00 -9.384305e-01 -5.191076e+00 -2.606954e-03 -1.523952e-03 1.215534e-03
Al -1.592132e+00 -9.342924e-01 -1.272010e-01 -2.514343e-03 -1.104982e-03 -1.364453e-02
N 1.554554e+00 8.614133e-01 4.291896e+00 2.293698e-03 6.751357e-04 -2.616587e-03
N 1.521393e+00 8.544292e-01 -5.784900e+00 1.883023e-03 1.210630e-03 -8.683380e-04
N 1.524451e+00 8.500939e-01 -7.482123e-01 1.220024e-03 9.871099e-04 5.319968e-05
N -1.612350e-02 3.583477e+00 4.288860e+00 8.079092e-04 6.130609e-05 -2.164906e-03
N -4.522221e-02 3.571928e+00 -5.784719e+00 8.871643e-04 -6.403465e-04 -2.797275e-04
N -4.635908e-02 3.575832e+00 -7.440768e-01 9.021113e-04 -8.688848e-04 -8.928935e-05
N 3.133774e+00 -1.850866e+00 4.298347e+00 2.614690e-03 1.597392e-04 -2.303522e-03
N 3.112058e+00 -1.854935e+00 -5.784846e+00 1.176323e-03 -7.854208e-04 -1.482143e-05
N 3.069872e+00 -1.877026e+00 -7.595600e-01 -1.440301e-03 -2.061026e-03 4.061613e-04
N -4.727012e+00 8.736638e-01 4.298449e+00 9.584270e-04 7.959636e-05 -1.424137e-03
N -4.757391e+00 8.594252e-01 -5.782885e+00 1.568247e-03 1.335503e-03 -7.398525e-04
N -4.779151e+00 9.237897e-01 -7.705978e-01 1.184646e-02 -2.354658e-03 -2.348919e-03
N -6.301391e+00 3.583692e+00 4.295322e+00 2.914207e-04 -1.827439e-04 -8.124344e-04
N -6.325459e+00 3.579968e+00 -5.784910e+00 7.042585e-04 -2.781738e-04 -1.914913e-04
N -6.365919e+00 3.555195e+00 -7.615149e-01 -7.559299e-04 -7.500237e-04 9.996026e-04
N -3.133088e+00 -1.841224e+00 4.290662e+00 2.076408e-05 -8.992931e-04 -8.693642e-04
N -3.169398e+00 -1.848307e+00 -5.784784e+00 7.632956e-04 -6.691604e-04 -1.227037e-04
N -3.137379e+00 -1.867067e+00 -7.580693e-01 4.281416e-03 -2.156579e-03 -1.177575e-03
N -1.588585e+00 8.751825e-01 4.293466e+00 2.351497e-04 -4.635990e-04 -3.221154e-03
N -1.616655e+00 8.686687e-01 -5.783848e+00 7.479587e-04 -2.660894e-04 -1.596331e-03
N -1.617651e+00 8.673981e-01 -7.403359e-01 5.203206e-04 -5.274499e-04 -2.525980e-03
N -3.152813e+00 3.590927e+00 4.299254e+00 3.635826e-04 -2.301265e-03 -1.395325e-04
N -3.186896e+00 3.587840e+00 -5.783940e+00 -5.940283e-04 -2.015065e-03 -6.470499e-04
N -3.148497e+00 3.565213e+00 -7.632024e-01 6.214798e-04 -3.356625e-03 -7.269559e-04
N 2.389895e-03 -1.824879e+00 4.301630e+00 -3.722517e-04 -2.651537e-03 -3.478850e-04
N -3.007446e-02 -1.841436e+00 -5.783994e+00 -3.182975e-05 -2.649062e-03 -7.104194e-04
N -3.330647e-02 -1.798262e+00 -7.621799e-01 1.652693e-05 -1.210715e-03 -8.850036e-04
N -1.623485e-02 1.763815e+00 1.770873e+00 1.564846e-03 2.878519e-03 4.635609e-04
N -1.405487e-02 1.763634e+00 6.805430e+00 7.048328e-06 2.398297e-03 -1.527880e-03
N -4.311973e-02 1.755361e+00 -3.265029e+00 -1.818925e-04 2.482453e-03 -4.166061e-04
N 3.139190e+00 -3.662140e+00 1.751128e+00 2.369271e-03 1.961439e-03 1.254777e-02
N 3.142524e+00 -3.665617e+00 6.811900e+00 4.173709e-04 2.578654e-03 -1.162525e-03
N 3.113523e+00 -3.674466e+00 -3.276661e+00 1.192037e-03 2.109923e-03 -3.750957e-04
N 1.574661e+00 -9.448167e-01 1.754687e+00 5.590035e-04 1.788977e-03 1.053739e-02
N 1.573784e+00 -9.454824e-01 6.813797e+00 -2.088910e-04 2.837031e-04 -1.712791e-03
N 1.542727e+00 -9.532787e-01 -3.277261e+00 -9.369926e-05 9.053647e-04 -1.030524e-03
N 3.129228e+00 1.764318e+00 1.748946e+00 -1.798702e-03 1.210534e-03 1.164418e-02
N 3.124324e+00 1.771392e+00 6.810595e+00 -6.098830e-04 4.202435e-04 -3.955423e-04
N 3.091645e+00 1.763913e+00 -3.280570e+00 -9.220330e-04 1.791731e-05 9.869542e-06
N 6.286012e+00 -3.653748e+00 1.744732e+00 -1.133609e-03 -5.641059e-04 1.514567e-02
N 6.281174e+00 -3.656642e+00 6.809132e+00 -5.546323e-04 4.874218e-04 -5.837483e-04
N 6.252038e+00 -3.665970e+00 -3.276352e+00 -1.322003e-03 3.345893e-04 1.954477e-05
N 4.778777e+00 -8.919262e-01 1.778302e+00 -2.196195e-02 -2.024337e-02 2.297411e-02
N 4.713466e+00 -9.383962e-01 6.807373e+00 -1.824810e-03 -1.333069e-03 -1.697258e-03
N 4.683443e+00 -9.480774e-01 -3.268053e+00 -1.622756e-03 -1.062808e-03 5.769125e-04
N -3.149981e+00 1.773183e+00 1.750214e+00 -1.648228e-03 2.328824e-03 1.280982e-02
N -3.155028e+00 1.777544e+00 6.811248e+00 -1.393505e-03 5.107270e-04 -2.370556e-04
N -3.180796e+00 1.770294e+00 -3.279678e+00 -1.286880e-03 -3.219891e-04 5.163312e-04
N 5.055957e-02 -3.638268e+00 1.846714e+00 -1.995002e-02 -3.854728e-03 -7.986743e-04
N 1.085608e-03 -3.650554e+00 6.806869e+00 -9.057364e-04 5.208843e-04 -5.394002e-04
N -2.837293e-02 -3.658545e+00 -3.265952e+00 -7.907938e-04 2.130150e-04 6.977259e-04
N -1.547107e+00 -9.365837e-01 1.748932e+00 -2.436181e-03 -3.851256e-04 1.426040e-02
N -1.567063e+00 -9.312310e-01 6.811176e+00 -2.106083e-03 -1.218669e-03 -9.294317e-04
N -1.595241e+00 -9.381748e-01 -3.276748e+00 -2.618228e-03 -4.787124e-04 -6.764203e-04
