108
Energy=-2.313455e+06 Lattice="9.506398e+00 0.000000e+00 0.000000e+00 -4.758209e+00 8.220864e+00 0.000000e+00 -8.389637e-04 6.582693e-03 1.539195e+01" Stress="-6.120471e-02 5.384779e-03 3.301067e-05 5.379571e-03 -5.687690e-02 9.912053e-05 4.158979e-05 1.002186e-04 -4.854303e-02" Properties=species:S:1:pos:R:3:forces:R:3 Config_type=AlGaN_super3_41_2_2.xyz
Al 1.562504e+00 9.018020e-01 2.488504e+00 -1.466437e-03 -1.146162e-02 -8.625121e-03
Al 1.564201e+00 9.025582e-01 7.556137e+00 -3.954134e-04 -1.252622e-02 -1.868036e-03
Ga 1.566101e+00 8.983233e-01 -2.769140e+00 -1.629394e-03 -1.548386e-02 -3.211923e-03
Al -8.187398e-03 3.617465e+00 2.487764e+00 -2.136157e-03 -1.942491e-03 -7.034713e-03
Ga -5.453607e-03 3.618221e+00 7.556733e+00 -2.559156e-03 -9.115207e-04 -2.480082e-04
Al -4.578768e-03 3.615284e+00 -2.771254e+00 -2.229563e-03 -8.873165e-04 -1.123239e-03
Ga 3.177334e+00 -1.882428e+00 2.484085e+00 -2.901720e-03 9.801229e-04 -7.687581e-03
Ga 3.179406e+00 -1.880077e+00 7.556058e+00 -2.970700e-03 1.304630e-03 -1.358904e-03
Al 3.182687e+00 -1.889021e+00 -2.768376e+00 -2.740524e-03 1.571510e-03 -1.466802e-03
Ga -4.797538e+00 9.044210e-01 2.486321e+00 1.419916e-03 -1.298845e-02 -8.655847e-03
Ga -4.799064e+00 9.035924e-01 7.557853e+00 6.710616e-04 -1.373239e-02 -2.420604e-03
Ga -4.797429e+00 8.973512e-01 -2.764835e+00 3.746182e-04 -1.448680e-02 -1.931367e-03
Ga -6.370528e+00 3.621188e+00 2.485299e+00 6.824182e-04 7.086233e-04 -6.267286e-03
Ga -6.370598e+00 3.621237e+00 7.556588e+00 9.299627e-05 -1.110720e-04 3.010842e-04
Al -6.370258e+00 3.616255e+00 -2.767651e+00 -6.125806e-04 4.860089e-04 6.931547e-05
Ga -3.181652e+00 -1.879129e+00 2.484793e+00 4.648220e-04 2.112495e-03 -6.637193e-03
Ga -3.182728e+00 -1.879508e+00 7.555279e+00 1.800518e-04 2.809193e-03 -2.865752e-04
Al -3.183795e+00 -1.888315e+00 -2.767842e+00 -2.591686e-04 2.456024e-03 -9.060244e-04
Al -1.652042e+00 9.046858e-01 2.491182e+00 1.236041e-02 -6.046318e-03 -8.788125e-03
Ga -1.652926e+00 9.050564e-01 7.556096e+00 1.366533e-02 -8.015302e-03 -5.267163e-03
Ga -1.654545e+00 8.996885e-01 -2.767659e+00 1.423972e-02 -8.264662e-03 -4.766047e-03
Al -3.224264e+00 3.622989e+00 2.488700e+00 9.641204e-03 4.308570e-03 -7.678428e-03
Ga -3.227015e+00 3.623533e+00 7.556756e+00 1.283437e-02 6.592167e-03 -2.216561e-03
Ga -3.226384e+00 3.617306e+00 -2.764479e+00 1.289882e-02 7.287056e-03 -1.573560e-03
Al -4.075876e-02 -1.875385e+00 2.488599e+00 1.009022e-02 5.631654e-03 -7.993585e-03
Ga -4.111474e-02 -1.876738e+00 7.555169e+00 1.258234e-02 8.992238e-03 -3.107550e-03
Ga -4.133963e-02 -1.886611e+00 -2.765518e+00 1.273794e-02 9.364218e-03 -2.808064e-03
Ga -4.242430e-03 1.805146e+00 5.019443e+00 -1.324655e-02 -8.381999e-03 -4.510035e-03
Al -4.454518e-03 1.801481e+00 -5.304493e+00 -9.988075e-03 -7.547339e-03 -1.881033e-03
Al -5.347569e-03 1.801913e+00 -2.433443e-01 -1.042763e-02 -6.766930e-03 2.985609e-02
Ga 3.181216e+00 -3.694876e+00 5.020409e+00 -1.252463e-02 -6.761553e-03 -3.130838e-03
Ga 3.183021e+00 -3.701935e+00 -5.299175e+00 -1.267152e-02 -6.720834e-03 -1.198215e-03
Ga 3.183738e+00 -3.702323e+00 -2.289348e-01 -1.260572e-02 -6.531945e-03 3.453892e-02
Ga 1.607833e+00 -9.745576e-01 5.022009e+00 -1.392537e-02 7.362970e-03 -5.612902e-03
Ga 1.609837e+00 -9.822956e-01 -5.301287e+00 -1.420194e-02 8.605387e-03 -4.661018e-03
Ga 1.609611e+00 -9.821403e-01 -2.252800e-01 -1.384569e-02 8.217595e-03 3.140294e-02
Ga 3.135768e+00 1.807456e+00 5.022251e+00 3.162082e-04 -2.612715e-03 -4.107741e-04
Ga 3.136020e+00 1.803158e+00 -5.301806e+00 -4.611958e-04 -3.868505e-03 1.647497e-04
Ga 3.135115e+00 1.803494e+00 -2.277236e-01 1.322609e-04 -3.187705e-03 3.649814e-02
Ga 6.323907e+00 -3.692450e+00 5.021112e+00 -4.476584e-04 -1.153184e-05 -2.599352e-04
Ga 6.323945e+00 -3.701080e+00 -5.298905e+00 -4.481372e-04 -2.015778e-04 1.705699e-03
Ga 6.323209e+00 -3.701939e+00 -2.333496e-01 -3.307282e-04 2.761428e-05 3.735045e-02
Ga 4.752938e+00 -9.748894e-01 5.022779e+00 -6.672017e-04 1.373978e-02 -2.686706e-03
Ga 4.752556e+00 -9.829044e-01 -5.299005e+00 -8.636439e-04 1.445833e-02 -1.187731e-03
Ga 4.752298e+00 -9.832677e-01 -2.283666e-01 -7.910659e-04 1.444773e-02 3.412401e-02
Ga -3.225212e+00 1.808624e+00 5.019808e+00 3.178433e-03 -1.343834e-03 -2.215595e-03
Ga -3.223644e+00 1.803952e+00 -5.301381e+00 2.642317e-03 -2.209302e-03 -7.442351e-04
Ga -3.222860e+00 1.804035e+00 -2.246469e-01 2.549639e-03 -1.858200e-03 3.615726e-02
Ga -4.037930e-02 -3.690370e+00 5.019081e+00 2.710967e-03 1.303081e-03 -1.623042e-03
Ga -3.979436e-02 -3.698552e+00 -5.300303e+00 2.744982e-03 1.235325e-03 5.906578e-04
Ga -4.005349e-02 -3.698594e+00 -2.262591e-01 2.614244e-03 1.147479e-03 3.700100e-02
Al -1.611317e+00 -9.730293e-01 5.018640e+00 8.892972e-04 1.261988e-02 -3.102099e-03
Ga -1.610428e+00 -9.796834e-01 -5.300265e+00 1.415992e-03 1.576536e-02 -2.441695e-03
Ga -1.610219e+00 -9.794242e-01 -2.268819e-01 1.118811e-03 1.547693e-02 3.354865e-02
N 1.565774e+00 9.020645e-01 4.413285e+00 -2.272573e-05 -1.457395e-02 -1.660373e-02
N 1.561202e+00 8.991091e-01 -5.908496e+00 -1.662466e-02 -5.173460e-03 -1.036470e-02
N 1.561144e+00 8.989651e-01 -8.360755e-01 -1.665606e-02 -5.628448e-03 1.205013e-02
N -6.056061e-03 3.620457e+00 4.413856e+00 -1.450205e-03 2.590906e-04 -1.960007e-02
N -5.134825e-03 3.608762e+00 -5.902908e+00 -1.674036e-03 -1.812562e-02 6.563650e-03
N -5.703093e-03 3.609162e+00 -8.439881e-01 -1.847908e-03 -1.847081e-02 -1.057036e-02
N 3.179804e+00 -1.880786e+00 4.417831e+00 -2.231321e-03 2.099317e-03 -5.026152e-04
N 3.181071e+00 -1.888167e+00 -5.904725e+00 -2.326660e-03 1.174989e-03 -6.446966e-04
N 3.180534e+00 -1.888217e+00 -8.400633e-01 -2.829370e-03 1.368710e-03 -1.690738e-02
N -4.798361e+00 9.032495e-01 4.418752e+00 3.368517e-04 -1.439405e-02 3.181363e-03
N -4.797161e+00 8.971176e-01 -5.903375e+00 6.587468e-04 -1.437710e-02 3.575454e-03
N -4.797084e+00 8.978719e-01 -8.322060e-01 8.788505e-04 -1.374352e-02 6.207936e-03
N -6.370184e+00 3.621433e+00 4.418141e+00 -2.773947e-04 -6.030574e-05 3.177979e-04
N -6.369167e+00 3.615857e+00 -5.904524e+00 -2.886575e-04 8.675437e-04 -1.022146e-04
N -6.368946e+00 3.615517e+00 -8.406725e-01 2.134158e-04 6.131602e-04 -1.652656e-02
N -3.178752e+00 -1.876962e+00 4.419082e+00 1.518426e-02 1.100571e-02 6.400308e-03
N -3.182294e+00 -1.886769e+00 -5.904535e+00 -8.125176e-04 1.436310e-03 -2.516314e-04
N -3.182441e+00 -1.886836e+00 -8.406946e-01 -2.221655e-04 1.929410e-03 -1.666454e-02
N -1.654917e+00 8.984965e-01 4.416168e+00 1.366668e-02 -2.353718e-02 -7.290532e-03
N -1.649124e+00 9.014195e-01 -5.903662e+00 2.752211e-02 -3.044799e-04 1.139450e-02
N -1.649765e+00 9.018633e-01 -8.352248e-01 2.759388e-02 -3.654263e-04 1.424921e-02
N -3.226530e+00 3.623306e+00 4.413401e+00 1.237418e-02 6.694573e-03 -1.606106e-02
N -3.226118e+00 3.617250e+00 -5.903725e+00 1.296831e-02 7.281502e-03 2.938691e-03
N -3.226220e+00 3.616955e+00 -8.322882e-01 1.271059e-02 6.934485e-03 5.805957e-03
N -4.579950e-02 -1.874635e+00 4.415348e+00 -3.718026e-03 1.715821e-02 -1.001488e-02
N -4.063371e-02 -1.885035e+00 -5.904578e+00 1.256929e-02 7.943295e-03 2.459454e-03
N -4.027358e-02 -1.885308e+00 -8.329355e-01 1.250968e-02 8.146930e-03 5.454258e-03
N -5.567120e-03 1.806071e+00 1.896193e+00 -9.797024e-03 -5.864719e-03 -2.684148e-02
N 1.130164e-04 1.804072e+00 6.952789e+00 3.652149e-03 -1.731461e-02 9.515674e-03
N -4.196293e-03 1.806532e+00 -3.377672e+00 -1.242759e-02 1.075054e-02 -9.647007e-03
N 3.179890e+00 -3.702687e+00 1.886078e+00 -9.802429e-03 -2.273572e-02 -1.876553e-02
N 3.181166e+00 -3.695198e+00 6.952613e+00 -1.263204e-02 -6.773397e-03 3.232565e-03
N 3.186401e+00 -3.698432e+00 -3.367183e+00 3.109211e-03 2.308572e-03 1.677161e-02
N 1.601386e+00 -9.725744e-01 1.886025e+00 -2.675380e-02 1.561881e-02 -1.643601e-02
N 1.608727e+00 -9.696710e-01 6.954635e+00 -1.404004e-02 2.353496e-02 1.158926e-02
N 1.614598e+00 -9.854288e-01 -3.369831e+00 2.216761e-03 -1.441806e-03 1.360182e-02
N 3.131100e+00 1.804828e+00 1.882139e+00 -1.525559e-02 -1.150218e-02 -2.726742e-02
N 3.131726e+00 1.805652e+00 6.955466e+00 -1.526059e-02 -1.096110e-02 6.163349e-03
N 3.137758e+00 1.808038e+00 -3.369254e+00 1.765510e-03 1.725746e-02 6.254363e-03
N 6.317265e+00 -3.696952e+00 1.882255e+00 -1.614299e-02 -9.541336e-03 -2.733842e-02
N 6.323109e+00 -3.693645e+00 6.953087e+00 2.443537e-04 -2.636280e-04 -1.655372e-04
N 6.324337e+00 -3.699860e+00 -3.365703e+00 7.129678e-04 -3.366345e-04 2.030610e-02
N 4.751610e+00 -9.750473e-01 1.877755e+00 -1.074079e-03 1.379248e-02 -2.996963e-02
N 4.751794e+00 -9.749340e-01 6.953602e+00 -6.408526e-04 1.438598e-02 3.099441e-03
N 4.752508e+00 -9.872069e-01 -3.366688e+00 -4.050547e-04 -3.966958e-03 1.665647e-02
N -3.219133e+00 1.812914e+00 1.888577e+00 1.781997e-02 7.076156e-03 -2.096559e-02
N -3.225566e+00 1.810070e+00 6.952750e+00 2.163850e-03 -1.756187e-03 -6.670947e-04
N -3.225297e+00 1.803943e+00 -3.369932e+00 1.835704e-03 -1.364358e-03 -1.086813e-03
N -3.386960e-02 -3.688312e+00 1.887843e+00 1.724720e-02 8.955341e-03 -2.037532e-02
N -3.983108e-02 -3.691562e+00 6.951786e+00 1.594900e-03 -1.024089e-04 -4.311832e-04
N -4.398083e-02 -3.701364e+00 -3.368090e+00 -1.439466e-02 -1.017956e-02 6.129004e-03
N -1.605142e+00 -9.696504e-01 1.884799e+00 1.541197e-02 2.060772e-02 -1.819672e-02
N -1.611237e+00 -9.733721e-01 6.946471e+00 4.427726e-04 1.431298e-02 -1.728319e-02
N -1.615552e+00 -9.831020e-01 -3.368739e+00 -1.569751e-02 5.194719e-03 9.908751e-03
