108
Energy=-1260622.866297 Lattice="9.487380 0.000000 0.000000 -4.749691 8.211531 0.000000 -0.000074 0.003632 15.307050" Stress="-0.000015 -0.000002 0.000000 -0.000002 -0.000020 0.000001 0.000000 0.000001 -0.000003" Properties=species:S:1:pos:R:3:forces:R:3
Al 1.550546 0.871100 2.380035 0.002678 0.000995 0.006676
Al 1.556249 0.877779 7.496999 -0.000442 0.002734 -0.000115
Al 1.557581 0.880694 -2.692847 0.000838 -0.000378 0.000630
Al -0.004470 3.611790 2.431577 -0.001179 -0.003575 0.000886
Al -0.017723 3.606384 7.496569 -0.000240 0.000093 -0.000337
Al -0.022085 3.596822 -2.711005 -0.002204 0.002099 -0.002585
Al 3.143366 -1.862814 2.418037 0.002793 0.002238 -0.000764
Al 3.149524 -1.859547 7.507796 0.002166 -0.001187 -0.000310
Ga 3.158873 -1.868424 -2.709090 0.000132 0.000050 0.000448
Al -4.780162 0.863550 2.399427 0.000940 -0.000182 0.002228
Al -4.776005 0.873432 7.511854 0.000263 0.000177 0.000932
Al -4.767959 0.877134 -2.723029 0.000744 -0.000071 0.001260
Al -6.358847 3.591780 2.391654 0.002693 0.003342 -0.002020
Al -6.367246 3.604554 7.520678 -0.000534 -0.000569 0.000474
Ga -6.360822 3.590853 -2.699180 0.000307 0.000988 0.000264
Al -3.183806 -1.881297 2.451013 -0.001847 0.001425 -0.001225
Ga -3.186185 -1.866032 7.512606 -0.000636 -0.000349 0.000222
Al -3.186169 -1.858188 -2.741192 0.000107 0.000544 -0.000963
Ga -1.609221 0.887042 2.406576 -0.000253 -0.000133 0.000188
Al -1.608730 0.881384 7.508794 0.001178 0.000754 0.000508
Al -1.618585 0.887316 -2.710686 -0.000240 -0.001210 0.002275
Ga -3.194364 3.611782 2.419081 -0.000824 -0.001061 0.000356
Ga -3.176813 3.610497 7.502133 0.001063 -0.000603 -0.000198
Al -3.177257 3.593933 -2.712372 -0.000092 0.000052 0.000813
Al -0.014108 -1.865003 2.388635 -0.001275 -0.001014 -0.000794
Al -0.018904 -1.847581 7.522377 -0.000280 0.000345 0.000350
Ga -0.025434 -1.848019 -2.693007 -0.000328 -0.000326 0.001300
Al -0.040052 1.802270 4.972078 0.003309 0.001590 0.001455
Ga -0.029937 1.789686 -5.256752 0.000198 0.000267 0.000245
Al -0.013655 1.778096 -0.165387 -0.002118 0.000469 0.000113
Al 3.166334 -3.688352 4.952105 0.001974 -0.000175 0.001498
Al 3.161660 -3.694049 -5.258951 -0.000069 0.000084 0.001064
Ga 3.140296 -3.708818 -0.140571 -0.000559 0.000809 -0.000800
Ga 1.576553 -0.953296 4.965537 -0.000736 0.002408 -0.000486
Ga 1.576203 -0.947103 -5.273229 -0.000365 0.000511 0.001290
Al 1.564366 -0.936348 -0.127902 -0.000746 -0.001407 -0.000609
Ga 3.140287 1.794733 4.951655 -0.000503 -0.002161 0.000382
Al 3.141140 1.779703 -5.267588 -0.000107 -0.000554 -0.000347
Al 3.134712 1.776722 -0.151902 0.000717 -0.001717 0.004409
Al 6.295177 -3.697498 4.954236 -0.000525 -0.000801 -0.000640
Al 6.294990 -3.690035 -5.256249 -0.000050 0.000271 0.000414
Ga 6.302772 -3.696728 -0.138197 0.000458 0.000375 0.003456
Al 4.725752 -0.953221 4.953400 -0.000649 0.001182 0.000102
Al 4.733338 -0.945198 -5.260763 -0.000417 0.000089 0.000833
Ga 4.727580 -0.932435 -0.136724 -0.000013 -0.000829 0.001622
Al -3.185899 1.775327 4.974300 -0.003597 0.002038 0.000350
Al -3.195122 1.773824 -5.248403 -0.000399 -0.000236 -0.000058
Al -3.205554 1.794639 -0.174152 0.000702 0.000099 -0.000091
Ga -0.028335 -3.687778 4.968341 0.000171 0.000025 0.000284
Ga -0.029361 -3.693328 -5.264304 0.000409 -0.000212 0.000970
Al -0.012248 -3.696785 -0.144550 0.000379 -0.000101 0.000307
Ga -1.608056 -0.939139 4.961899 0.000006 -0.000783 0.000547
Al -1.616995 -0.939332 -5.256414 -0.000912 -0.000624 0.001363
Ga -1.602974 -0.942857 -0.136927 -0.000494 0.000259 -0.001597
N 1.504208 0.905263 4.320391 0.001522 -0.001986 -0.004302
N 1.589921 0.902327 -5.911191 0.000802 0.000044 0.000497
N 1.562168 0.869862 -0.763292 -0.000149 0.000392 0.001414
N -0.020833 3.603356 4.352652 -0.000942 0.000414 -0.000433
N -0.021812 3.652474 -5.892862 -0.000473 0.000047 -0.000751
N -0.021153 3.564539 -0.808952 0.000365 -0.000513 0.001770
N 3.185649 -1.884507 4.333308 -0.000969 -0.000308 -0.000856
N 3.193620 -1.892278 -5.880137 -0.000100 -0.000157 -0.000536
N 3.109425 -1.844225 -0.738471 -0.000792 0.000202 0.000516
N -4.728020 0.853134 4.323275 0.000578 0.000571 -0.000435
N -4.769295 0.872860 -5.868915 0.000693 0.000283 -0.000014
N -4.780232 0.919204 -0.792749 0.000985 0.000332 -0.002685
N -6.384611 3.635599 4.293321 -0.000665 -0.000098 0.003040
N -6.400289 3.584772 -5.872277 0.000065 0.000201 -0.000216
N -6.314192 3.577884 -0.717356 -0.000285 0.002163 -0.001371
N -3.220625 -1.889463 4.359835 0.000174 0.000147 0.000551
N -3.182488 -1.868852 -5.814019 -0.000190 0.000365 -0.000096
N -3.184652 -1.865742 -0.831606 0.000212 -0.000405 0.000514
N -1.611576 0.935659 4.385607 0.001176 -0.001935 -0.002872
N -1.652019 0.855596 -5.879833 -0.000062 0.000731 -0.000535
N -1.614102 0.923228 -0.777828 0.000940 0.000226 -0.001426
N -3.146303 3.591126 4.402075 -0.001048 -0.001618 -0.000802
N -3.142056 3.584328 -5.833605 -0.000016 -0.000146 -0.000034
N -3.225677 3.594162 -0.788267 -0.000168 -0.001289 -0.000390
N -0.015579 -1.858167 4.293051 0.000098 -0.000605 -0.000998
N -0.065506 -1.831904 -5.883294 0.000681 -0.000955 -0.000567
N 0.019867 -1.880001 -0.714835 0.000503 -0.000229 0.000415
N 0.017203 1.804970 1.765855 -0.001735 0.003978 -0.003227
N -0.027964 1.784765 6.900831 -0.000384 0.000603 -0.000191
N -0.023227 1.776660 -3.271115 0.000223 0.000330 0.000183
N 3.191889 -3.675046 1.835608 -0.000321 -0.000059 0.001094
N 3.194259 -3.660631 6.871058 -0.001021 0.000443 -0.000538
N 3.145064 -3.738472 -3.339310 0.001908 -0.000835 0.001099
N 1.565602 -0.949421 1.803148 0.000704 -0.001102 -0.002226
N 1.568851 -0.949616 6.952087 -0.001445 -0.001908 -0.000615
N 1.567839 -0.904255 -3.306712 -0.000657 0.000590 -0.000462
N 3.135313 1.771202 1.791855 -0.000126 -0.000500 -0.002457
N 3.140768 1.789912 6.937210 0.000130 0.000058 -0.000792
N 3.131251 1.734839 -3.347704 -0.000040 -0.000665 0.000669
N 6.304803 -3.688841 1.864896 -0.000382 -0.000146 -0.006229
N 6.307524 -3.735363 6.873816 0.000671 -0.000243 -0.001514
N 6.265526 -3.673821 -3.339792 -0.000307 -0.000351 0.000571
N 4.739200 -0.961195 1.855515 -0.002946 0.000261 -0.001892
N 4.684521 -0.921885 6.876853 -0.000411 -0.000297 -0.000922
N 4.762434 -0.921509 -3.345646 -0.000516 -0.000150 0.000168
N -3.239374 1.764035 1.743057 0.001034 0.000456 -0.000694
N -3.196707 1.736815 6.885608 0.000309 -0.000215 -0.000536
N -3.193212 1.785229 -3.324823 0.000346 -0.000465 0.000694
N -0.054391 -3.670064 1.772493 -0.001327 -0.000965 0.001095
N -0.067407 -3.660403 6.947783 0.000086 0.000203 -0.000597
N 0.014964 -3.709407 -3.297957 0.000130 -0.000103 0.000274
N -1.617505 -0.994349 1.837313 0.001782 -0.000481 0.001715
N -1.562134 -0.923843 6.932329 -0.000078 -0.000537 -0.000944
N -1.637223 -0.918491 -3.336055 -0.000153 0.000166 0.000299
