108
Energy=-6.197662e+05 Lattice="9.418516e+00 0.000000e+00 0.000000e+00 -4.710229e+00 8.155825e+00 0.000000e+00 1.442660e-03 7.392590e-03 1.511121e+01" Stress="1.170832e-04 -6.227235e-05 8.296702e-05 -6.039545e-05 -1.251096e-04 3.103249e-04 8.080248e-05 3.137002e-04 1.598772e-05" Properties=species:S:1:pos:R:3:forces:R:3 Config_type=AlGaN_super3_4_1_17.xyz
Al 1.547226e+00 8.713778e-01 2.368539e+00 6.792032e-06 3.660690e-05 -1.780738e-05
Al 1.552234e+00 8.779590e-01 7.403569e+00 -4.324082e-05 2.382326e-05 -2.986725e-05
Al 1.552808e+00 8.760548e-01 -2.667021e+00 1.884092e-05 -1.137489e-05 -4.500959e-05
Al -2.893819e-02 3.582167e+00 2.383639e+00 -1.571090e-04 -8.461074e-05 8.739612e-06
Al -2.213427e-02 3.589294e+00 7.405538e+00 -6.701385e-05 -7.918785e-05 9.902480e-06
Al -2.848154e-02 3.581987e+00 -2.683825e+00 -1.108592e-05 2.712313e-05 7.950313e-06
Al 3.120910e+00 -1.851813e+00 2.369063e+00 -1.354274e-05 9.978098e-05 -2.298096e-05
Al 3.126536e+00 -1.848073e+00 7.403822e+00 1.476586e-05 8.310915e-06 3.908360e-06
Al 3.127579e+00 -1.854403e+00 -2.667004e+00 -2.138153e-07 6.452332e-05 -1.181463e-05
Al -4.731392e+00 8.674044e-01 2.368232e+00 -2.222424e-05 3.990378e-05 9.189311e-06
Al -4.730230e+00 8.709684e-01 7.404704e+00 4.347377e-05 2.793053e-05 6.666044e-05
Al -4.733847e+00 8.661357e-01 -2.673234e+00 4.828975e-06 3.714951e-05 -5.046330e-07
Al -6.297849e+00 3.580796e+00 2.383023e+00 2.173681e-04 -1.177916e-04 6.472513e-05
Al -6.306644e+00 3.582078e+00 7.402932e+00 9.535858e-05 -5.917419e-05 1.909074e-05
Al -6.302668e+00 3.572294e+00 -2.676964e+00 6.179809e-05 8.851193e-06 4.960949e-05
Al -3.169498e+00 -1.847386e+00 2.373628e+00 3.430855e-07 1.010941e-04 -1.517675e-05
Al -3.177920e+00 -1.853806e+00 7.417349e+00 3.331948e-04 3.244304e-04 -1.145889e-04
Al -3.171923e+00 -1.847915e+00 -2.677865e+00 4.748278e-06 4.813386e-05 3.399079e-05
Al -1.593105e+00 8.768048e-01 2.358881e+00 3.210632e-05 3.824757e-05 2.326606e-07
Al -1.596296e+00 8.878557e-01 7.417464e+00 6.530318e-05 6.333684e-04 2.513962e-04
Al -1.596781e+00 8.743395e-01 -2.667489e+00 1.117417e-05 4.344992e-05 -8.775250e-05
Al -3.160460e+00 3.583835e+00 2.369252e+00 2.485227e-05 4.946660e-05 5.956374e-06
Al -3.156600e+00 3.581081e+00 7.403777e+00 -5.396642e-06 -6.732622e-05 2.619974e-05
Al -3.156905e+00 3.577541e+00 -2.666402e+00 8.834550e-06 4.721112e-05 -3.586960e-05
Al -1.783235e-02 -1.853881e+00 2.357420e+00 7.271079e-05 1.124606e-04 -5.618573e-06
Ga -1.218071e-02 -1.851507e+00 7.424158e+00 -3.070507e-05 -4.829873e-05 9.952520e-06
Ga -2.376776e-02 -1.853099e+00 -2.664857e+00 1.598994e-05 -9.679840e-06 1.016726e-04
Al -1.878648e-02 1.781893e+00 4.890280e+00 -1.261827e-05 6.466110e-05 -2.002771e-05
Al -2.186562e-02 1.769759e+00 -5.188567e+00 -6.682590e-05 -1.839411e-05 -3.590455e-05
Al -2.541779e-02 1.768423e+00 -1.528109e-01 1.069038e-05 2.497379e-05 -5.714805e-06
Al 3.116505e+00 -3.661398e+00 4.887659e+00 3.588732e-05 -2.085413e-05 2.935630e-05
Al 3.114678e+00 -3.665291e+00 -5.192629e+00 -2.618553e-05 -4.877640e-06 2.052862e-05
Al 3.110608e+00 -3.664231e+00 -1.493712e-01 -6.287936e-05 -8.133326e-06 5.996630e-05
Al 1.561029e+00 -9.400886e-01 4.874470e+00 2.459614e-05 3.390966e-05 4.425492e-06
Al 1.559915e+00 -9.406142e-01 -5.179954e+00 1.238028e-04 1.680393e-05 9.814320e-05
Al 1.556092e+00 -9.400775e-01 -1.417145e-01 -5.284166e-05 -5.312109e-05 1.607098e-04
Al 3.117649e+00 1.774053e+00 4.888352e+00 -1.723030e-05 3.373413e-05 2.820435e-06
Al 3.115626e+00 1.769847e+00 -5.192553e+00 -1.239022e-05 2.429911e-07 2.238050e-05
Al 3.121972e+00 1.766471e+00 -1.483031e-01 4.016320e-07 2.278763e-05 1.039184e-04
Al 6.252567e+00 -3.668805e+00 4.887044e+00 -5.832999e-05 -2.050808e-05 2.666069e-05
Al 6.256538e+00 -3.668014e+00 -5.186778e+00 -4.941570e-05 -4.533527e-05 7.401110e-05
Ga 6.256344e+00 -3.665875e+00 -1.474716e-01 1.595641e-05 -1.364059e-05 -3.149395e-04
Al 4.677674e+00 -9.417331e-01 4.890839e+00 -2.878478e-05 3.863501e-05 3.686797e-06
Al 4.682969e+00 -9.474671e-01 -5.187935e+00 -4.707571e-05 3.131361e-05 1.120362e-05
Al 4.682164e+00 -9.364652e-01 -1.527426e-01 5.291543e-06 -2.654663e-05 1.007400e-04
Al -3.166258e+00 1.783138e+00 4.886482e+00 4.126844e-05 4.437143e-05 4.528268e-06
Al -3.163929e+00 1.772796e+00 -5.184480e+00 8.290507e-05 2.447969e-05 -9.643761e-06
Al -3.164074e+00 1.774046e+00 -1.555654e-01 -7.367207e-05 -1.103575e-05 1.758809e-04
Al -1.602654e-02 -3.673313e+00 4.879088e+00 2.429646e-05 -3.574249e-05 5.257281e-06
Al -2.137534e-02 -3.680190e+00 -5.184648e+00 1.091789e-04 -2.432789e-04 5.835009e-05
Al -1.377576e-02 -3.673492e+00 -1.381102e-01 -4.584457e-05 7.387187e-05 -1.783313e-04
Ga -1.594681e+00 -9.385419e-01 4.884688e+00 1.781778e-06 -2.380995e-05 -5.171226e-06
Al -1.603535e+00 -9.405054e-01 -5.188243e+00 8.656201e-05 1.035120e-04 4.585999e-06
Al -1.595059e+00 -9.337272e-01 -1.376208e-01 -6.143196e-05 -1.314892e-04 2.218655e-04
N 1.546679e+00 8.738572e-01 4.286442e+00 1.641657e-05 -9.523667e-05 3.936256e-06
N 1.546222e+00 8.656901e-01 -5.791160e+00 2.333455e-05 -3.987044e-05 2.119687e-05
N 1.548698e+00 8.695625e-01 -7.476691e-01 -1.466105e-05 -6.701540e-05 4.172221e-05
N -2.645050e-02 3.586315e+00 4.298685e+00 3.488522e-05 -1.962653e-05 -3.482741e-05
N -2.364739e-02 3.582876e+00 -5.784464e+00 4.048743e-05 8.621894e-06 -2.351508e-05
N -6.570107e-02 3.562379e+00 -7.727062e-01 5.215392e-05 -4.854209e-05 -7.359225e-06
N 3.121273e+00 -1.851843e+00 4.285181e+00 -2.097966e-06 -2.853045e-06 -1.339659e-05
N 3.117145e+00 -1.854653e+00 -5.791047e+00 6.712623e-05 1.964311e-05 -8.706871e-06
N 3.118637e+00 -1.852752e+00 -7.477080e-01 2.983550e-06 -7.039703e-05 -1.463604e-05
N -4.731465e+00 8.691315e-01 4.289700e+00 1.316508e-05 -7.963841e-05 -9.066786e-07
N -4.731523e+00 8.650156e-01 -5.786245e+00 -1.707008e-05 -4.421731e-05 -3.498439e-05
N -4.732855e+00 8.681922e-01 -7.537899e-01 -1.330333e-05 -6.048716e-05 1.805075e-05
N -6.301627e+00 3.584837e+00 4.296598e+00 8.999554e-06 -1.999858e-06 -6.110646e-05
N -6.304839e+00 3.582339e+00 -5.789999e+00 2.659395e-05 -5.101164e-06 -3.649361e-05
N -6.259971e+00 3.560533e+00 -7.667749e-01 -6.592923e-05 -8.484459e-05 -5.560159e-05
N -3.206912e+00 -1.871147e+00 4.278315e+00 1.216451e-04 -3.096503e-05 -4.227530e-05
N -3.168857e+00 -1.857973e+00 -5.779942e+00 8.805251e-05 2.677681e-05 -7.925633e-05
N -3.162016e+00 -1.803352e+00 -7.660331e-01 3.438672e-06 -1.041386e-04 -2.330904e-05
N -1.591988e+00 9.227829e-01 4.267042e+00 -3.947420e-06 -6.235467e-05 4.764403e-05
N -1.594239e+00 8.722713e-01 -5.781609e+00 3.216384e-06 -3.413227e-05 7.299923e-05
N -1.592725e+00 8.682009e-01 -7.480465e-01 2.213695e-05 -7.136419e-05 6.965225e-05
N -3.158855e+00 3.586811e+00 4.285132e+00 -1.236855e-05 -2.296631e-05 -3.430971e-06
N -3.161727e+00 3.581117e+00 -5.791363e+00 7.403549e-06 -3.159466e-05 -5.709060e-06
N -3.161353e+00 3.586273e+00 -7.489075e-01 -3.865020e-06 -4.338923e-05 1.438508e-06
N 1.966672e-02 -1.873426e+00 4.271583e+00 -4.118298e-05 2.496861e-05 8.346515e-06
N -1.815888e-02 -1.855843e+00 -5.713544e+00 -2.922660e-04 2.770810e-04 -1.220880e-04
N -2.281185e-02 -1.851753e+00 -6.846254e-01 6.902003e-05 -2.593637e-05 -8.078628e-05
N -1.988413e-02 1.777310e+00 1.765663e+00 -4.343709e-05 -5.485729e-05 -4.016627e-06
N -2.205720e-02 1.776460e+00 6.809570e+00 2.841428e-05 7.558755e-05 2.004047e-05
N -2.161570e-02 1.768540e+00 -3.270675e+00 -5.190515e-05 -1.733307e-05 3.668588e-05
N 3.119075e+00 -3.664287e+00 1.772194e+00 3.063112e-05 -7.586223e-07 -5.490796e-05
N 3.118276e+00 -3.660362e+00 6.808282e+00 -3.953115e-05 1.086730e-05 -3.711794e-05
N 3.114151e+00 -3.663106e+00 -3.273772e+00 -3.318395e-05 -5.178022e-05 -1.585036e-06
N 1.554252e+00 -9.408409e-01 1.775268e+00 -1.205540e-05 2.168297e-06 -5.958525e-05
N 1.591215e+00 -9.175134e-01 6.786718e+00 -4.024374e-05 -3.009131e-05 -1.115362e-05
N 1.593755e+00 -9.200205e-01 -3.272665e+00 -3.574546e-05 1.820441e-05 -2.388433e-05
N 3.117769e+00 1.774189e+00 1.772725e+00 1.630634e-05 -2.067079e-05 -1.189402e-04
N 3.118865e+00 1.775569e+00 6.806406e+00 -3.477303e-05 1.439779e-05 -3.095168e-05
N 3.116524e+00 1.769283e+00 -3.275822e+00 -3.603849e-05 5.294112e-06 1.469518e-05
N 6.256599e+00 -3.667795e+00 1.827973e+00 -4.760611e-05 3.643450e-04 2.760234e-04
N 6.256915e+00 -3.660773e+00 6.808458e+00 6.162448e-05 1.047553e-04 -3.051751e-05
N 6.257678e+00 -3.665904e+00 -3.265090e+00 -2.240037e-05 -2.902944e-06 -4.542810e-05
N 4.685311e+00 -9.429379e-01 1.765753e+00 2.932063e-05 2.492507e-05 -6.219172e-05
N 4.687453e+00 -9.406706e-01 6.808277e+00 5.163096e-05 -1.323377e-05 -3.027913e-05
N 4.683309e+00 -9.450748e-01 -3.271915e+00 7.888194e-06 -1.428641e-05 -1.377952e-05
N -3.165886e+00 1.774903e+00 1.764121e+00 3.053886e-05 1.286392e-05 -1.587592e-04
N -3.162080e+00 1.776072e+00 6.804539e+00 -4.602295e-05 6.012519e-05 -2.724107e-05
N -3.163304e+00 1.772775e+00 -3.265540e+00 -1.017029e-05 -1.837262e-05 1.328944e-05
N -2.273827e-02 -3.671355e+00 1.777178e+00 2.996283e-06 2.023285e-05 8.223193e-05
N -2.054437e-02 -3.708311e+00 6.790576e+00 -4.252297e-05 9.919076e-05 1.637973e-05
N -1.966698e-02 -3.716861e+00 -3.280151e+00 -4.877358e-05 -6.857739e-06 -1.598241e-05
N -1.596710e+00 -9.430446e-01 1.782569e+00 -1.586966e-05 9.701848e-05 -1.408445e-04
N -1.631420e+00 -9.150848e-01 6.853713e+00 -4.876697e-04 -1.125510e-03 -1.021459e-04
N -1.635347e+00 -9.190928e-01 -3.281741e+00 2.518575e-05 -1.469346e-05 -2.810443e-05
