108
Energy=-528215.320791 Lattice="9.407480 0.000000 0.000000 -4.704045 8.147655 0.000000 -0.000149 0.000959 15.080234" Stress="0.000000 -0.000000 -0.000000 -0.000000 0.000001 0.000000 -0.000000 0.000000 0.000002" Properties=species:S:1:pos:R:3:forces:R:3
Al 1.545669 0.866570 2.366710 -0.000008 -0.000004 -0.000103
Al 1.543538 0.867888 7.390757 0.000004 -0.000017 -0.000001
Al 1.546614 0.865442 -2.669004 -0.000006 -0.000006 0.000049
Al -0.022512 3.582834 2.366708 -0.000019 -0.000007 -0.000101
Al -0.022572 3.580649 7.390832 -0.000010 -0.000002 0.000002
Al -0.022422 3.583317 -2.669046 -0.000011 -0.000004 0.000057
Al 3.106015 -1.853737 2.380838 0.000076 0.000057 -0.000064
Al 3.114821 -1.848451 7.389946 -0.000014 0.000001 0.000004
Al 3.108372 -1.852988 -2.679493 0.000003 0.000016 0.000060
Al -4.726454 0.874941 2.380649 0.000017 0.000098 -0.000015
Al -4.726453 0.865497 7.389975 0.000007 -0.000012 -0.000017
Al -4.726366 0.872438 -2.679376 0.000020 -0.000086 0.000036
Al -6.301394 3.578496 2.381115 -0.000030 -0.000064 -0.000021
Al -6.293571 3.583222 7.390052 -0.000005 -0.000002 -0.000019
Al -6.299689 3.578900 -2.679623 -0.000020 -0.000009 0.000171
Al -3.150985 -1.853577 2.380994 0.000061 -0.000013 -0.000038
Al -3.159439 -1.848368 7.389990 -0.000003 0.000004 -0.000008
Al -3.152784 -1.852901 -2.679609 -0.000025 0.000010 0.000043
Al -1.590926 0.866681 2.366521 0.000007 -0.000003 -0.000094
Al -1.588946 0.868052 7.390790 0.000029 -0.000017 -0.000021
Al -1.591763 0.865614 -2.668988 0.000039 -0.000003 0.000034
Al -3.151652 3.578546 2.380806 0.000131 -0.000104 0.000025
Al -3.159386 3.583317 7.389993 0.000015 -0.000006 -0.000022
Al -3.152993 3.579007 -2.679441 0.000046 -0.000014 0.000163
Al -0.022558 -1.840799 2.381062 0.000013 -0.000208 -0.000110
Al -0.022465 -1.849887 7.389991 0.000014 0.000002 -0.000023
Al -0.022321 -1.843430 -2.679320 0.000027 0.000031 0.000243
Al -0.022641 1.772042 4.877240 -0.000027 -0.000001 -0.000012
Al -0.022506 1.771255 -5.176763 -0.000019 0.000000 -0.000001
Al -0.022414 1.771602 -0.154256 -0.000018 0.000002 0.000146
Al 3.114853 -3.661202 4.886023 -0.000037 -0.000013 -0.000005
Al 3.114995 -3.661314 -5.185162 -0.000018 0.000006 -0.000010
Al 3.117569 -3.667320 -0.149418 0.000107 0.000038 0.000168
Al 1.545112 -0.942140 4.886013 -0.000029 0.000025 -0.000009
Al 1.545812 -0.943221 -5.185141 -0.000035 0.000023 -0.000026
Al 1.541606 -0.937452 -0.149319 0.000142 0.000150 0.000208
Al 3.111356 1.771646 4.886032 0.000008 0.000005 -0.000002
Al 3.111965 1.770511 -5.185177 0.000003 -0.000006 -0.000006
Al 3.105377 1.771810 -0.149493 -0.000009 -0.000135 0.000208
Al 6.247942 -3.661083 4.886146 0.000003 -0.000001 -0.000004
Al 6.248036 -3.661212 -5.185196 -0.000006 0.000003 -0.000006
Al 6.245511 -3.667141 -0.149581 -0.000047 -0.000023 0.000237
Al 4.681339 -0.943855 4.877807 -0.000009 0.000020 -0.000009
Al 4.681492 -0.944633 -5.178549 -0.000015 0.000018 -0.000002
Ga 4.681604 -0.945110 -0.146670 -0.000032 0.000165 0.000315
Al -3.156868 1.771707 4.885896 -0.000004 0.000006 0.000000
Al -3.157287 1.770604 -5.185175 0.000005 -0.000005 0.000004
Al -3.150526 1.771932 -0.149418 0.000043 -0.000160 0.000186
Al -0.022504 -3.659667 4.878251 0.000006 -0.000011 -0.000025
Al -0.022390 -3.660450 -5.179689 0.000004 0.000006 -0.000038
Ga -0.022209 -3.660253 -0.146916 -0.000013 0.000024 0.000435
Al -1.589934 -0.941954 4.885977 -0.000028 0.000022 -0.000003
Al -1.590342 -0.943048 -5.185165 -0.000011 0.000018 -0.000017
Al -1.586232 -0.937297 -0.149493 -0.000052 0.000094 0.000258
N 1.545843 0.866502 4.284121 -0.000023 -0.000079 -0.000022
N 1.543286 0.867208 -5.776424 -0.000020 -0.000068 0.000002
N 1.546057 0.865990 -0.748218 -0.000025 -0.000039 0.000092
N -0.022562 3.583121 4.284046 -0.000028 -0.000015 -0.000012
N -0.022467 3.579275 -5.776410 -0.000025 -0.000016 -0.000002
N -0.022425 3.582657 -0.748292 -0.000012 -0.000012 0.000108
N 3.109361 -1.851778 4.294096 -0.000032 0.000014 -0.000031
N 3.114798 -1.849487 -5.775157 -0.000029 0.000016 0.000006
N 3.070795 -1.874613 -0.766399 -0.000102 -0.000013 0.000028
N -4.726532 0.871521 4.293938 0.000019 -0.000037 0.000001
N -4.726388 0.864701 -5.775149 0.000021 -0.000039 0.000006
N -4.726140 0.915032 -0.766434 -0.000055 0.000199 0.000048
N -6.298532 3.580244 4.294116 -0.000013 -0.000015 -0.000011
N -6.293478 3.582260 -5.775363 0.000012 -0.000003 0.000017
N -6.335883 3.558102 -0.768043 -0.000049 -0.000039 -0.000109
N -3.154157 -1.851716 4.294165 0.000017 0.000019 -0.000009
N -3.159239 -1.849428 -5.775143 0.000004 0.000032 0.000006
N -3.115226 -1.874530 -0.766623 0.000121 -0.000037 0.000033
N -1.591334 0.866596 4.283946 0.000078 -0.000045 0.000005
N -1.588560 0.867331 -5.776384 0.000065 -0.000040 -0.000000
N -1.591136 0.866146 -0.748170 0.000066 -0.000037 0.000090
N -3.154596 3.580315 4.293939 0.000074 -0.000007 0.000001
N -3.159394 3.582350 -5.775376 0.000052 0.000004 0.000014
N -3.116453 3.558198 -0.767675 -0.000022 -0.000067 -0.000225
N -0.022586 -1.844445 4.294077 0.000048 0.000049 -0.000027
N -0.022448 -1.850954 -5.775367 0.000050 0.000051 0.000018
N -0.021966 -1.801105 -0.766941 -0.000146 -0.000064 -0.000430
N -0.022455 1.772147 1.768232 -0.000046 -0.000063 -0.000198
N -0.022564 1.772305 6.792250 -0.000039 -0.000055 0.000010
N -0.022436 1.771525 -3.258981 -0.000035 -0.000046 -0.000027
N 3.113118 -3.659814 1.771138 -0.000050 0.000037 -0.000132
N 3.114424 -3.660135 6.799651 -0.000039 0.000005 0.000010
N 3.116476 -3.661705 -3.272741 -0.000052 -0.000004 -0.000013
N 1.545424 -0.944368 1.771322 0.000014 -0.000020 -0.000138
N 1.545734 -0.942894 6.799658 -0.000061 0.000039 0.000011
N 1.546031 -0.941536 -3.272672 -0.000063 0.000024 -0.000003
N 3.113541 1.772464 1.771273 0.000014 -0.000036 -0.000205
N 3.112356 1.771848 6.799636 0.000002 -0.000031 0.000013
N 3.110718 1.769905 -3.272802 0.000016 -0.000020 0.000004
N 6.249821 -3.659643 1.771373 0.000030 0.000023 -0.000254
N 6.248470 -3.660035 6.799713 -0.000004 0.000006 0.000011
N 6.246683 -3.661615 -3.272845 0.000005 0.000002 0.000001
N 4.681744 -0.943917 1.832793 -0.000196 -0.000116 -0.000264
N 4.681415 -0.943726 6.794142 -0.000020 0.000040 0.000011
N 4.681487 -0.944441 -3.259902 -0.000007 0.000034 -0.000049
N -3.159077 1.772415 1.771130 0.000057 -0.000007 -0.000149
N -3.157861 1.771894 6.799542 0.000031 -0.000020 0.000022
N -3.156019 1.769985 -3.272757 0.000023 -0.000009 0.000004
N -0.022309 -3.660718 1.833441 -0.000070 0.000416 -0.000399
N -0.022518 -3.659524 6.794606 0.000029 0.000023 0.000022
N -0.022359 -3.660249 -3.261110 0.000029 0.000031 0.000071
N -1.590474 -0.944378 1.771424 0.000050 0.000013 -0.000225
N -1.590440 -0.942754 6.799615 0.000024 0.000062 0.000020
N -1.590501 -0.941420 -3.272730 0.000040 0.000048 0.000027
