108
Energy=-2816989.948259 Lattice="9.701078 0.000000 0.000000 -4.859106 8.384893 0.000000 -0.118618 -0.045137 15.773185" Stress="0.000004 0.000000 -0.000023 0.000000 0.000003 -0.000007 -0.000023 -0.000007 0.000030" Properties=species:S:1:pos:R:3:forces:R:3
Al 1.539952 0.850437 2.485660 0.001075 0.000354 0.001179
Ga 1.520258 0.871281 7.735236 0.001224 -0.001132 0.000806
Ga 1.631279 0.919133 -2.780901 0.001271 -0.000757 0.001446
Ga -0.069702 3.638087 2.490089 -0.000091 0.001679 -0.000768
Al -0.089432 3.654508 7.732690 0.000758 -0.000234 0.001053
Ga 0.016634 3.710418 -2.777349 0.000618 -0.000029 0.002397
Ga 3.161407 -1.939034 2.494398 0.000793 -0.000586 -0.000647
Ga 3.157302 -1.939392 7.735175 0.000485 -0.000385 0.000843
Ga 3.260251 -1.876844 -2.783773 0.000550 -0.000835 0.000947
Ga -4.938955 0.850955 2.490178 0.001294 -0.000385 -0.001075
Ga -4.944949 0.867286 7.739065 0.000830 -0.000649 0.000227
Ga -4.837598 0.924513 -2.777834 0.000528 -0.000952 0.000044
Ga -6.551106 3.638472 2.492876 0.000187 0.000732 -0.000524
Ga -6.567962 3.657641 7.737175 0.000485 0.000059 0.000328
Ga -6.452480 3.715857 -2.780238 -0.000053 -0.000334 0.000609
Ga -3.302278 -1.943281 2.496361 0.000504 -0.000005 -0.000886
Ga -3.319877 -1.936081 7.739455 0.000760 -0.000511 0.000565
Ga -3.208189 -1.874079 -2.786485 0.000186 -0.000961 0.000390
Ga -1.685457 0.861312 2.480533 0.001718 -0.000640 0.000963
Ga -1.708043 0.879173 7.738177 0.001990 -0.001353 -0.000349
Ga -1.605159 0.927496 -2.783536 0.001514 -0.001158 -0.000633
Ga -3.315694 3.649276 2.497132 0.001388 0.000349 -0.001380
Ga -3.320290 3.662178 7.740929 0.000887 -0.000067 -0.000099
Ga -3.219654 3.720963 -2.784072 0.000863 -0.000512 -0.000086
Ga -0.069016 -1.931755 2.490600 0.001560 -0.000477 -0.001038
Ga -0.084176 -1.924861 7.737370 0.001193 -0.000892 0.000578
Ga 0.024246 -1.868029 -2.779361 0.000963 -0.001106 0.000500
Ga -0.075035 1.787885 5.107408 -0.000712 -0.000189 0.001535
Ga 0.026588 1.847996 -5.420596 -0.000964 0.001191 0.001182
Ga 0.004695 1.837233 -0.141919 0.000400 0.002784 0.001867
Ga 3.167513 -3.807387 5.127129 -0.001255 0.000482 -0.000051
Ga 3.276500 -3.750959 -5.420179 -0.000477 0.000195 0.000702
Ga 3.251670 -3.731412 -0.147966 -0.001689 -0.002240 0.002542
Ga 1.546614 -1.005040 5.106361 -0.001482 0.001760 -0.000043
Ga 1.654440 -0.954397 -5.407816 -0.001365 0.000997 0.000020
Ga 1.641402 -0.936997 -0.134995 -0.003187 -0.001314 0.001070
Ga 3.142687 1.784135 5.101873 -0.000327 0.000345 0.001222
Ga 3.255359 1.843752 -5.409212 -0.000222 0.000617 0.000951
Ga 3.236478 1.858197 -0.136716 -0.002719 -0.002121 0.001509
Ga 6.385981 -3.803769 5.126596 0.000677 0.000370 0.000423
Ga 6.492793 -3.749073 -5.420568 -0.000283 -0.000050 0.001041
Ga 6.484583 -3.729341 -0.145547 -0.002765 -0.002691 0.001408
Ga 4.776635 -1.007684 5.117822 -0.000537 0.000791 0.000196
Ga 4.883413 -0.950646 -5.406950 -0.000643 0.000666 0.000083
Ga 4.870151 -0.936535 -0.149848 -0.002564 -0.002023 0.001884
Ga -3.319520 1.791438 5.111657 -0.000405 0.000070 0.000996
Ga -3.213113 1.847838 -5.411065 -0.000720 0.000445 0.000979
Ga -3.227647 1.864354 -0.157092 -0.003182 -0.001446 0.003512
Ga -0.077153 -3.796832 5.115203 -0.000527 0.000029 0.000633
Ga 0.030378 -3.739743 -5.409604 -0.000613 -0.000132 0.000692
Ga 0.017219 -3.725056 -0.150016 -0.002768 -0.002569 0.001915
Ga -1.691440 -1.002866 5.115440 -0.001075 0.000978 0.000177
Ga -1.583012 -0.947237 -5.410196 -0.001263 0.000618 0.000421
Ga -1.601722 -0.933506 -0.154496 -0.002977 -0.003011 0.002667
N 1.530780 0.858556 4.423565 0.000752 -0.001042 -0.002533
N 1.638975 0.913393 -6.051309 0.001023 -0.000781 -0.000490
N 1.624519 0.923089 -0.790074 0.000167 -0.000446 -0.001682
N -0.081896 3.651607 4.473039 0.000341 0.000137 -0.000707
N 0.024941 3.706205 -6.105439 0.000197 -0.000334 -0.002127
N 0.007730 3.714862 -0.779687 -0.000166 -0.001304 -0.002482
N 3.160058 -1.941100 4.479787 0.000772 -0.000569 -0.000063
N 3.267456 -1.881504 -6.051451 0.000462 -0.000510 -0.000370
N 3.252132 -1.865689 -0.795434 -0.000477 -0.001421 0.001048
N -4.936676 0.858503 4.473707 0.000990 -0.000333 -0.000456
N -4.830149 0.916281 -6.048701 0.000684 -0.000459 -0.000635
N -4.846213 0.932447 -0.791423 -0.000280 -0.001015 0.000753
N -6.554239 3.654784 4.480379 0.000221 0.000347 -0.000699
N -6.444170 3.709125 -6.049380 0.000212 0.000019 -0.000678
N -6.458860 3.722889 -0.789687 -0.000414 -0.000755 0.000079
N -3.309012 -1.937659 4.481569 0.000591 -0.000442 -0.000336
N -3.201949 -1.878709 -6.048203 0.000455 -0.000376 -0.000367
N -3.216176 -1.865478 -0.800838 -0.000525 -0.001206 0.000778
N -1.703302 0.865421 4.472211 0.001639 -0.000768 -0.000603
N -1.598646 0.921122 -6.050493 0.001360 -0.000957 -0.000378
N -1.615408 0.931418 -0.798313 0.000301 -0.001236 0.001203
N -3.319339 3.658413 4.481554 0.001136 0.000082 -0.000345
N -3.213441 3.713982 -6.048209 0.000685 -0.000266 -0.000400
N -3.227159 3.730069 -0.799370 -0.000192 -0.001079 0.000801
N -0.079134 -1.931369 4.474127 0.001261 -0.000711 -0.000334
N 0.029692 -1.874580 -6.050156 0.001039 -0.000734 -0.000531
N 0.017744 -1.858059 -0.792176 0.000372 -0.001478 0.000973
N -0.021868 1.766887 1.859565 -0.000819 -0.001780 -0.000573
N -0.082884 1.833996 7.106515 -0.001566 0.002267 -0.000160
N 0.021523 1.848313 -3.427414 -0.001308 0.000601 -0.001170
N 3.168037 -3.811695 1.853010 0.001477 0.002861 -0.002797
N 3.196301 -3.823212 7.118354 0.000117 -0.000323 -0.000064
N 3.267543 -3.745295 -3.428449 -0.000984 0.000610 -0.000788
N 1.554916 -0.968145 1.868287 0.000528 0.003067 -0.001317
N 1.542347 -1.003248 7.093547 -0.001320 0.001104 -0.000468
N 1.649379 -0.949860 -3.423314 -0.001599 0.001118 -0.000409
N 3.115928 1.754582 1.866188 0.002054 0.003126 -0.001925
N 3.141408 1.791113 7.091842 -0.000300 0.000457 -0.001029
N 3.250799 1.849514 -3.421314 -0.000642 0.000366 -0.000627
N 6.398630 -3.807046 1.847986 0.003229 0.002718 -0.001734
N 6.346480 -3.818872 7.119036 -0.001474 -0.000503 -0.000339
N 6.490832 -3.743263 -3.427188 -0.000373 0.000246 -0.000967
N 4.783448 -1.019613 1.846411 0.001961 0.003626 -0.001825
N 4.772052 -1.001447 7.100427 -0.000822 0.000557 -0.000591
N 4.878550 -0.945161 -3.421468 -0.000850 0.000916 -0.000379
N -3.313382 1.782581 1.845502 0.002498 0.002753 -0.002451
N -3.324711 1.796023 7.097950 -0.000905 0.000446 -0.000596
N -3.217581 1.852778 -3.423782 -0.000956 0.000352 0.000011
N -0.071154 -3.807427 1.847481 0.002118 0.002885 -0.001365
N -0.082356 -3.794153 7.100670 -0.000499 0.000014 -0.000173
N 0.025323 -3.735825 -3.421737 -0.000873 0.000267 -0.000386
N -1.685625 -1.014330 1.843130 0.001699 0.004247 -0.001996
N -1.697223 -0.998562 7.100551 -0.001457 0.001031 -0.000280
N -1.587536 -0.942973 -3.424267 -0.001374 0.000847 0.000055
