108
Energy=-1.123296e+06 Lattice="9.479375e+00 0.000000e+00 0.000000e+00 -4.749375e+00 8.201355e+00 0.000000e+00 3.034308e-03 -1.574187e-03 1.527841e+01" Stress="-3.090320e-04 7.726037e-05 5.001249e-05 8.248714e-05 -1.221166e-03 -2.874291e-05 5.339992e-05 -3.084579e-05 1.795225e-03" Properties=species:S:1:pos:R:3:forces:R:3 Config_type=AlGaN_super3_15_0_9.xyz
Al 1.555197e+00 8.714855e-01 2.390498e+00 9.479978e-04 -1.278003e-03 5.891694e-05
Al 1.566977e+00 8.759318e-01 7.448948e+00 7.271976e-05 3.829476e-04 4.813613e-03
Al 1.546061e+00 8.712073e-01 -2.660619e+00 4.972399e-03 -2.305430e-03 -1.518425e-03
Al -2.693438e-02 3.603712e+00 2.401958e+00 2.177336e-03 -1.476349e-03 2.533946e-03
Al -1.165568e-02 3.601730e+00 7.488591e+00 3.580730e-05 1.719850e-04 1.894782e-03
Al -3.524507e-02 3.600739e+00 -2.697698e+00 6.523866e-04 -7.332198e-04 -3.873564e-03
Al 3.149069e+00 -1.860456e+00 2.398629e+00 -3.019571e-03 -1.455370e-04 7.837867e-05
Al 3.151959e+00 -1.862413e+00 7.472667e+00 2.615393e-03 -8.114413e-04 2.547525e-03
Al 3.120817e+00 -1.872388e+00 -2.678650e+00 5.387469e-03 -1.333270e-04 -1.347733e-03
Al -4.787603e+00 8.671759e-01 2.414479e+00 7.926264e-04 3.034589e-03 -1.006321e-03
Al -4.772662e+00 8.751219e-01 7.460535e+00 -1.399240e-03 -2.304977e-03 4.155280e-03
Al -4.775385e+00 8.784014e-01 -2.682893e+00 -3.512417e-04 -8.571620e-04 -1.503998e-03
Al -6.366932e+00 3.602626e+00 2.404040e+00 7.454514e-03 -1.031020e-03 -8.209714e-04
Al -6.355983e+00 3.602531e+00 7.483374e+00 3.952119e-04 1.790893e-05 8.597190e-04
Ga -6.346904e+00 3.597376e+00 -2.685290e+00 1.679594e-04 1.409305e-04 -7.107661e-04
Al -3.175869e+00 -1.856822e+00 2.422148e+00 8.246260e-04 1.757309e-04 -6.829103e-04
Al -3.187548e+00 -1.872504e+00 7.448663e+00 5.486396e-04 5.955345e-04 2.815835e-03
Ga -3.187444e+00 -1.869088e+00 -2.675839e+00 -7.684316e-04 2.292174e-04 -1.296690e-03
Al -1.600336e+00 8.703598e-01 2.382974e+00 -4.001802e-03 2.166285e-03 -3.438761e-04
Ga -1.604037e+00 8.884199e-01 7.491766e+00 2.138266e-03 -1.040716e-03 1.687930e-03
Ga -1.599331e+00 8.915178e-01 -2.684975e+00 6.503429e-04 -7.683133e-04 -2.133379e-04
Ga -3.193925e+00 3.621637e+00 2.377814e+00 -1.279147e-03 -1.511026e-03 -1.623212e-03
Al -3.185687e+00 3.607782e+00 7.518931e+00 4.924534e-04 3.576156e-05 7.777157e-04
Al -3.189149e+00 3.614455e+00 -2.696799e+00 7.608502e-04 1.061651e-04 5.560892e-04
Al -2.362814e-02 -1.846112e+00 2.393242e+00 2.028760e-03 2.247468e-03 -1.070436e-04
Ga -5.629972e-03 -1.861766e+00 7.477057e+00 7.019827e-04 5.244725e-04 1.235642e-03
Al -1.526495e-03 -1.867275e+00 -2.669723e+00 -1.466535e-05 -8.108275e-05 -4.169205e-05
Al -6.926629e-03 1.777645e+00 4.923125e+00 -1.476926e-03 6.693016e-05 6.631242e-04
Al -1.716704e-02 1.799678e+00 -5.220671e+00 5.646766e-04 -1.024194e-03 -1.229799e-02
Al -1.484132e-02 1.784770e+00 -1.219636e-01 -1.793323e-03 -2.048615e-03 -3.338544e-03
Ga 3.164672e+00 -3.679776e+00 4.957084e+00 -6.630954e-04 -2.485319e-04 1.652715e-03
Al 3.148779e+00 -3.702081e+00 -5.246808e+00 -1.221827e-04 1.096424e-03 -4.693035e-04
Al 3.138083e+00 -3.698316e+00 -1.627759e-01 -2.029143e-03 8.420226e-04 3.206948e-03
Al 1.571907e+00 -9.379124e-01 4.913144e+00 -6.862995e-04 8.216986e-04 4.847891e-03
Ga 1.568927e+00 -9.539545e-01 -5.225231e+00 -6.674266e-04 1.579271e-03 -2.470047e-04
Al 1.556949e+00 -9.597179e-01 -1.495432e-01 -1.597345e-03 1.257644e-03 2.251456e-03
Al 3.118785e+00 1.779020e+00 4.937006e+00 -9.312910e-05 3.968935e-04 8.790370e-04
Ga 3.126667e+00 1.790234e+00 -5.257931e+00 -4.524730e-05 -1.325246e-03 1.013626e-03
Al 3.138599e+00 1.769517e+00 -1.312511e-01 -3.530755e-03 2.881389e-03 1.117347e-03
Al 6.303012e+00 -3.687552e+00 4.930649e+00 -2.843284e-04 -4.334142e-04 1.442216e-03
Al 6.297305e+00 -3.693870e+00 -5.264325e+00 -7.393459e-04 6.796605e-04 -1.693566e-05
Ga 6.290550e+00 -3.698818e+00 -1.058867e-01 2.087901e-03 -2.768403e-05 -2.452709e-03
Al 4.720435e+00 -9.511247e-01 4.931909e+00 -4.204313e-04 8.693882e-04 1.579200e-03
Ga 4.724084e+00 -9.588802e-01 -5.252326e+00 -6.027146e-04 8.607103e-04 6.275388e-04
Ga 4.708580e+00 -9.395561e-01 -1.180256e-01 -8.168408e-04 -2.459248e-04 -3.111012e-03
Ga -3.191023e+00 1.772205e+00 4.942549e+00 5.447103e-04 2.394889e-05 2.527130e-04
Al -3.189853e+00 1.805294e+00 -5.236428e+00 -1.254067e-03 -1.737002e-03 -2.158793e-03
Al -3.191427e+00 1.778115e+00 -1.536568e-01 -1.103871e-03 2.847590e-03 4.413396e-03
Ga -3.534699e-02 -3.676282e+00 4.943154e+00 -4.387458e-04 3.900304e-05 1.178564e-03
Al -1.262140e-02 -3.691854e+00 -5.239802e+00 -3.626615e-04 -6.852300e-04 2.367454e-04
Al -1.615272e-02 -3.680738e+00 -1.463910e-01 -4.072281e-04 2.391348e-04 3.138540e-03
Al -1.596992e+00 -9.436811e-01 4.913796e+00 -4.397460e-04 8.104585e-04 2.746844e-03
Ga -1.598750e+00 -9.552868e-01 -5.237417e+00 -1.115434e-03 7.336154e-04 -7.567517e-04
Al -1.584147e+00 -9.493494e-01 -1.258172e-01 9.918977e-04 6.179365e-04 1.573256e-03
N 1.556502e+00 8.747058e-01 4.313889e+00 4.535595e-04 -1.222353e-03 6.587104e-04
N 1.512277e+00 8.893041e-01 -5.904021e+00 -1.536627e-03 3.469191e-04 -1.739324e-03
N 1.554326e+00 8.727676e-01 -7.373089e-01 -9.447486e-04 -5.299229e-04 1.277510e-04
N 1.052192e-02 3.581462e+00 4.316129e+00 1.023142e-03 -4.379939e-05 -1.195785e-03
N -2.155894e-02 3.600521e+00 -5.857269e+00 -1.013779e-03 -1.612438e-04 -1.085251e-03
N -6.235277e-02 3.578110e+00 -7.778412e-01 -1.107635e-03 -1.186589e-03 -6.015304e-04
N 3.145511e+00 -1.825106e+00 4.314673e+00 -1.522872e-04 1.194838e-03 -1.123666e-03
N 3.139638e+00 -1.907950e+00 -5.890346e+00 3.475819e-04 -1.963584e-03 1.455377e-04
N 3.104057e+00 -1.889342e+00 -7.642094e-01 -6.184712e-04 -1.430362e-03 4.217506e-04
N -4.811731e+00 8.557375e-01 4.323069e+00 -7.742366e-04 -1.846689e-03 5.946787e-04
N -4.731928e+00 8.923954e-01 -5.895632e+00 2.510714e-03 1.583588e-03 -2.214450e-03
N -4.782242e+00 9.179804e-01 -7.704661e-01 6.108241e-03 -1.082743e-03 -3.384435e-06
N -6.385174e+00 3.580485e+00 4.315951e+00 -1.107813e-03 -4.963155e-04 -1.810833e-04
N -6.346726e+00 3.651456e+00 -5.870319e+00 4.004140e-04 1.127560e-03 -1.133225e-03
N -6.321828e+00 3.578177e+00 -7.122494e-01 3.008424e-03 7.080009e-04 5.985247e-04
N -3.177156e+00 -1.860234e+00 4.341697e+00 -2.993922e-04 -1.464759e-04 -7.834395e-04
N -3.176556e+00 -1.905822e+00 -5.904021e+00 9.799178e-05 -1.175789e-03 -2.238793e-03
N -3.145273e+00 -1.845438e+00 -7.151756e-01 1.126801e-03 1.264931e-03 1.180294e-03
N -1.570611e+00 8.631631e-01 4.303999e+00 2.494863e-03 -1.574832e-03 -3.730378e-04
N -1.604719e+00 9.248708e-01 -5.809782e+00 6.210209e-04 1.039561e-03 2.142468e-03
N -1.595992e+00 8.764324e-01 -7.033534e-01 -1.429696e-03 9.167584e-05 3.156603e-03
N -3.186792e+00 3.615018e+00 4.324782e+00 9.632064e-04 -2.558781e-04 1.104483e-03
N -3.187937e+00 3.611367e+00 -5.836823e+00 6.067332e-04 -4.707927e-04 -3.770239e-04
N -3.193577e+00 3.603897e+00 -7.596939e-01 7.027363e-04 -5.237182e-04 5.939606e-04
N -1.600405e-02 -1.813503e+00 4.311449e+00 9.625816e-04 1.485369e-03 9.187482e-05
N -1.476421e-02 -1.904854e+00 -5.839417e+00 7.124615e-04 -1.908295e-04 1.788313e-04
N -2.186395e-02 -1.863518e+00 -7.442266e-01 2.576496e-04 -1.803479e-04 -9.506183e-04
N -1.847462e-02 1.786527e+00 1.787258e+00 -1.482730e-03 4.136749e-04 1.998154e-03
N 1.756224e-02 1.803821e+00 6.844182e+00 3.737206e-05 9.390755e-04 -2.620708e-03
N 3.268066e-02 1.791629e+00 -3.343762e+00 -3.231329e-03 5.140396e-03 1.313983e-02
N 3.188696e+00 -3.669104e+00 1.776243e+00 1.469015e-03 3.251057e-03 -6.674047e-03
N 3.149091e+00 -3.693841e+00 6.937290e+00 -3.782817e-04 -1.972394e-04 -8.668895e-05
N 3.142248e+00 -3.688800e+00 -3.307134e+00 -1.834106e-04 -5.623026e-04 3.134777e-05
N 1.569274e+00 -9.556397e-01 1.786063e+00 -1.091231e-03 1.365203e-03 -7.292237e-04
N 1.621246e+00 -9.332988e-01 6.858719e+00 -3.759923e-03 1.530462e-03 -9.212993e-03
N 1.570513e+00 -9.493313e-01 -3.239664e+00 -4.518508e-03 1.043324e-03 1.500114e-03
N 3.128398e+00 1.782376e+00 1.793828e+00 -7.258156e-05 -2.933246e-04 -6.863869e-04
N 3.135898e+00 1.789957e+00 6.865509e+00 -1.780938e-04 -1.704476e-04 -1.469017e-03
N 3.124890e+00 1.731896e+00 -3.280197e+00 -3.435575e-04 -3.873775e-04 1.421923e-03
N 6.306570e+00 -3.686333e+00 1.856809e+00 -6.454057e-03 2.837300e-03 2.330206e-03
N 6.302491e+00 -3.690026e+00 6.861921e+00 1.376195e-04 -2.244878e-04 -1.403967e-03
N 6.263132e+00 -3.707894e+00 -3.346643e+00 -1.386201e-03 -1.151512e-03 8.201593e-04
N 4.719577e+00 -9.453409e-01 1.848335e+00 1.067834e-03 -2.238625e-03 2.967959e-03
N 4.722043e+00 -9.505389e-01 6.861438e+00 9.015417e-05 2.743642e-04 -1.629188e-03
N 4.678463e+00 -9.298237e-01 -3.271326e+00 -1.986093e-03 -1.527970e-04 2.023617e-03
N -3.221736e+00 1.749771e+00 1.784468e+00 8.333097e-03 -5.301820e-03 -5.248411e-03
N -3.224785e+00 1.808502e+00 6.912103e+00 5.600239e-04 1.970221e-03 -1.538211e-03
N -3.227801e+00 1.808723e+00 -3.314823e+00 -1.436498e-03 1.511886e-04 9.517019e-04
N -6.435642e-02 -3.633697e+00 1.784146e+00 -3.041190e-03 -6.724974e-03 -4.258884e-03
N -1.465182e-02 -3.731607e+00 6.912822e+00 -3.899058e-04 -1.258010e-03 -8.273101e-04
N 1.587791e-02 -3.661879e+00 -3.314959e+00 1.242244e-03 5.535438e-04 1.517119e-04
N -1.600211e+00 -9.509913e-01 1.803586e+00 -1.341518e-03 1.475074e-03 -1.850896e-03
N -1.626458e+00 -9.650037e-01 6.837948e+00 -2.581293e-03 -3.318839e-04 -3.840715e-03
N -1.559069e+00 -9.724961e-01 -3.273333e+00 1.023064e-03 -5.495295e-04 8.481146e-04
