108
Energy=-1.397949e+06 Lattice="9.505031e+00 0.000000e+00 0.000000e+00 -4.756374e+00 8.227901e+00 0.000000e+00 -3.757751e-03 2.187963e-03 1.534045e+01" Stress="-2.329846e-03 -2.400161e-04 -3.818230e-05 -2.501507e-04 -2.874415e-03 4.658209e-05 -4.015839e-05 3.755556e-05 -2.600916e-03" Properties=species:S:1:pos:R:3:forces:R:3 Config_type=AlGaN_super3_21_2_20.xyz
Al 1.571980e+00 8.687399e-01 2.404442e+00 1.330581e-04 -1.317884e-04 1.241424e-04
Al 1.571689e+00 8.782953e-01 7.523788e+00 3.255579e-05 -3.221814e-04 6.907634e-05
Al 1.564580e+00 8.647404e-01 -2.712142e+00 5.882972e-04 1.032194e-04 3.617500e-04
Al -9.934418e-03 3.625338e+00 2.427704e+00 -1.029825e-04 -7.941854e-05 -7.706666e-05
Al -1.801138e-02 3.620233e+00 7.511164e+00 -5.673922e-04 -9.726182e-05 -2.866236e-04
Al -2.383669e-02 3.607946e+00 -2.707307e+00 -1.659497e-04 4.358638e-05 3.327013e-04
Al 3.148309e+00 -1.854921e+00 2.403856e+00 -1.494511e-03 -3.761714e-04 -1.117108e-03
Al 3.140778e+00 -1.869320e+00 7.546017e+00 1.161657e-04 1.918451e-04 -6.539490e-04
Ga 3.134536e+00 -1.863099e+00 -2.715612e+00 -2.073736e-04 2.351333e-05 3.847253e-04
Al -4.793494e+00 8.712629e-01 2.404853e+00 7.038007e-04 2.686107e-04 -7.406341e-04
Al -4.795509e+00 8.840561e-01 7.534606e+00 2.918545e-04 -3.812975e-04 1.291154e-04
Al -4.778794e+00 8.864388e-01 -2.710931e+00 7.785211e-05 2.240024e-04 2.124936e-05
Ga -6.377322e+00 3.613560e+00 2.400946e+00 3.569591e-04 -2.706887e-05 1.214131e-04
Al -6.365169e+00 3.608777e+00 7.518448e+00 4.320023e-04 3.873468e-04 2.396930e-04
Ga -6.360718e+00 3.603917e+00 -2.698137e+00 -1.527628e-04 -2.099765e-05 5.109105e-04
Al -3.193960e+00 -1.875800e+00 2.395455e+00 1.687105e-04 3.801581e-04 -7.721433e-04
Al -3.193701e+00 -1.879682e+00 7.513342e+00 -1.893107e-04 1.108729e-04 4.148750e-04
Ga -3.179196e+00 -1.865584e+00 -2.681269e+00 -3.108333e-04 -3.580368e-05 3.167835e-04
Ga -1.606706e+00 8.699573e-01 2.401266e+00 -1.522348e-04 4.975463e-05 -1.930077e-04
Ga -1.605326e+00 8.831965e-01 7.525293e+00 4.401383e-04 -3.746307e-04 1.117467e-04
Al -1.610066e+00 8.763197e-01 -2.697351e+00 9.822359e-06 3.774349e-04 3.030970e-04
Ga -3.199875e+00 3.623631e+00 2.393105e+00 3.825960e-04 -2.347339e-05 -2.958426e-04
Al -3.199710e+00 3.626121e+00 7.561565e+00 -8.781334e-05 4.147071e-04 -6.830645e-04
Ga -3.192319e+00 3.610556e+00 -2.718765e+00 2.745747e-04 -2.025315e-04 2.674367e-04
Al -1.716088e-02 -1.855382e+00 2.377850e+00 3.440669e-04 -9.786961e-04 -4.560764e-05
Al -1.325106e-02 -1.872948e+00 7.548807e+00 1.603454e-05 -3.927217e-04 -6.667812e-04
Al -1.154372e-02 -1.853875e+00 -2.700876e+00 3.093978e-04 4.603619e-05 -1.104246e-04
Al 1.666675e-03 1.801780e+00 4.964461e+00 3.899912e-05 -6.393092e-04 3.178232e-04
Ga -1.345224e-02 1.788792e+00 -5.244902e+00 -1.518038e-04 1.152062e-04 5.395399e-04
Ga -9.340459e-03 1.784531e+00 -1.613936e-01 -2.643674e-04 3.068937e-06 -4.703586e-04
Ga 3.161571e+00 -3.701597e+00 4.983067e+00 -4.929552e-04 5.320092e-04 -1.113490e-04
Al 3.138395e+00 -3.705945e+00 -5.282224e+00 4.811455e-04 6.694812e-04 1.440256e-04
Ga 3.153685e+00 -3.700636e+00 -1.336933e-01 -4.469443e-04 3.420676e-04 -8.029254e-05
Ga 1.559321e+00 -9.387022e-01 4.972265e+00 -3.716929e-04 3.380667e-04 2.443450e-04
Al 1.564029e+00 -9.588663e-01 -5.274620e+00 -1.685842e-04 1.485063e-04 5.913786e-04
Al 1.549932e+00 -9.477944e-01 -1.428904e-01 5.179839e-04 2.311249e-05 -4.010676e-05
Al 3.127649e+00 1.788874e+00 4.978591e+00 -2.530094e-05 5.251077e-04 -6.383028e-04
Al 3.150708e+00 1.783391e+00 -5.274561e+00 2.835217e-04 2.676680e-04 6.257433e-04
Al 3.150219e+00 1.785216e+00 -1.552669e-01 -1.099818e-04 -3.075032e-04 5.827434e-04
Al 6.311750e+00 -3.707792e+00 4.979886e+00 -4.362152e-04 1.818247e-04 -4.509492e-04
Ga 6.319433e+00 -3.711385e+00 -5.281921e+00 2.168480e-04 1.327715e-04 4.979994e-04
Al 6.320768e+00 -3.701161e+00 -1.345424e-01 6.345444e-04 -1.641328e-04 -6.267633e-04
Ga 4.729901e+00 -9.499236e-01 4.967121e+00 -5.205178e-04 -1.898550e-04 2.524510e-04
Ga 4.723672e+00 -9.421075e-01 -5.274491e+00 -1.413224e-04 -6.396976e-05 4.280358e-04
Ga 4.736953e+00 -9.335742e-01 -1.277037e-01 -5.193370e-04 6.140236e-06 -1.501908e-03
Ga -3.210974e+00 1.792421e+00 4.985975e+00 1.598773e-04 8.105070e-05 2.806668e-05
Al -3.209497e+00 1.801593e+00 -5.261681e+00 2.005959e-04 -3.030923e-04 3.876545e-04
Al -3.208808e+00 1.782927e+00 -1.631791e-01 2.354749e-04 -1.285209e-04 6.355555e-04
Ga -3.973999e-02 -3.691333e+00 4.992542e+00 5.161390e-04 -9.895862e-05 5.070597e-04
Al -1.202216e-02 -3.698932e+00 -5.281798e+00 -2.485367e-04 -1.202227e-05 5.518147e-04
Al -3.154199e-02 -3.683599e+00 -1.559482e-01 1.157313e-04 -8.760251e-05 -1.152996e-05
Ga -1.604661e+00 -9.652911e-01 4.967365e+00 -5.741982e-05 9.134547e-05 2.445152e-04
Ga -1.588929e+00 -9.585608e-01 -5.252718e+00 -2.839177e-04 1.843752e-05 5.997061e-04
Al -1.593981e+00 -9.608583e-01 -1.518600e-01 -5.370371e-05 4.773278e-04 -1.897735e-04
N 1.564036e+00 9.201132e-01 4.329052e+00 1.681309e-04 1.618590e-04 -3.868468e-04
N 1.601307e+00 8.525868e-01 -5.895147e+00 4.273424e-04 -1.072603e-04 -4.590673e-04
N 1.609656e+00 8.462591e-01 -7.920129e-01 3.957431e-05 -2.280237e-04 4.191801e-05
N 1.698284e-02 3.597977e+00 4.346824e+00 8.220853e-04 1.799129e-05 -1.138873e-04
N -6.087709e-02 3.628821e+00 -5.923936e+00 -7.858432e-04 3.767002e-04 -1.655805e-04
N 1.718823e-02 3.643881e+00 -8.033105e-01 1.862370e-04 2.980557e-05 4.142427e-05
N 3.140382e+00 -1.867475e+00 4.309373e+00 3.229981e-04 3.874567e-04 -5.070123e-04
N 3.107685e+00 -1.893156e+00 -5.881622e+00 -4.031758e-04 -4.332936e-04 -5.585238e-05
N 3.106698e+00 -1.843583e+00 -7.429168e-01 -4.680736e-04 3.359954e-04 9.372386e-05
N -4.825383e+00 9.040068e-01 4.318202e+00 -4.889806e-04 2.358670e-04 2.472093e-04
N -4.779413e+00 9.245568e-01 -5.896775e+00 1.620441e-04 3.556372e-04 -3.664123e-04
N -4.780614e+00 9.244572e-01 -7.967185e-01 2.627426e-04 1.824576e-04 7.855347e-05
N -6.405077e+00 3.595026e+00 4.389331e+00 -2.167128e-04 -9.115671e-04 7.702865e-05
N -6.319567e+00 3.586543e+00 -5.899770e+00 2.924787e-04 -2.211432e-04 -2.780497e-04
N -6.361197e+00 3.613687e+00 -7.090854e-01 -4.966215e-04 3.227856e-04 2.769556e-05
N -3.191978e+00 -1.919353e+00 4.315788e+00 2.111655e-04 -4.515136e-04 2.789772e-04
N -3.183979e+00 -1.869729e+00 -5.925482e+00 -4.722237e-05 8.557963e-05 -6.193038e-04
N -3.149559e+00 -1.892737e+00 -7.107921e-01 5.639767e-05 1.140093e-04 -3.771335e-05
N -1.572971e+00 9.032314e-01 4.382124e+00 8.684935e-04 1.008796e-04 -2.364795e-04
N -1.645805e+00 9.022252e-01 -5.849309e+00 6.236014e-05 -1.039709e-05 2.198488e-04
N -1.650956e+00 8.538532e-01 -7.717730e-01 -5.739296e-05 -2.584746e-04 -4.489863e-04
N -3.201546e+00 3.625249e+00 4.354825e+00 1.189040e-04 -4.408951e-04 -4.265987e-04
N -3.194182e+00 3.615406e+00 -5.859880e+00 8.957180e-05 -2.025281e-04 -9.271609e-05
N -3.233472e+00 3.599320e+00 -7.353092e-01 -7.444975e-05 -4.037559e-04 -4.311500e-05
N -1.865291e-02 -1.867402e+00 4.287359e+00 9.350572e-05 1.505276e-05 -6.871941e-04
N 2.154404e-02 -1.889584e+00 -5.887511e+00 3.317575e-04 -3.581539e-04 -2.896392e-04
N -1.475627e-02 -1.863029e+00 -7.716702e-01 9.999144e-05 -9.398043e-05 -3.307384e-05
N 2.171229e-02 1.815950e+00 1.819800e+00 3.011279e-04 7.471947e-05 2.506244e-04
N 2.579267e-02 1.809392e+00 6.888146e+00 -1.565620e-04 8.061886e-04 -6.042499e-04
N -1.910820e-02 1.785499e+00 -3.256631e+00 -3.702771e-04 -1.733627e-04 2.399507e-04
N 3.195262e+00 -3.675448e+00 1.837472e+00 6.712034e-04 2.343671e-04 2.955881e-04
N 3.143001e+00 -3.694819e+00 6.966009e+00 8.664081e-05 -5.295359e-04 1.005039e-03
N 3.191506e+00 -3.723456e+00 -3.364791e+00 7.762300e-06 9.595229e-05 -6.431337e-04
N 1.563885e+00 -9.490016e-01 1.784001e+00 -6.665840e-04 7.168954e-04 4.100872e-04
N 1.561183e+00 -9.533149e-01 6.957357e+00 -1.127143e-05 1.076260e-04 5.947296e-04
N 1.520408e+00 -9.294833e-01 -3.354575e+00 -5.565925e-04 -1.237603e-04 -4.643750e-04
N 3.142908e+00 1.740320e+00 1.763702e+00 -3.029941e-04 -5.815163e-04 -3.066332e-04
N 3.141179e+00 1.785249e+00 6.902891e+00 1.039744e-05 7.022872e-08 -3.651987e-04
N 3.143392e+00 1.741756e+00 -3.349969e+00 -1.922040e-04 -3.941393e-04 -6.504473e-04
N 6.270183e+00 -3.676447e+00 1.773623e+00 -5.814555e-04 -1.635151e-04 7.751044e-04
N 6.315527e+00 -3.697945e+00 6.906258e+00 9.731653e-05 -6.861120e-07 -4.242180e-04
N 6.279317e+00 -3.720434e+00 -3.314325e+00 1.731996e-04 -1.264992e-04 -3.523777e-04
N 4.730583e+00 -9.475915e-01 1.846316e+00 8.335303e-04 8.810375e-05 2.304073e-03
N 4.726616e+00 -9.507592e-01 6.960308e+00 -4.112588e-04 1.903413e-04 4.172712e-04
N 4.736694e+00 -9.074685e-01 -3.302837e+00 -1.456413e-04 1.023111e-06 -1.056144e-04
N -3.237112e+00 1.761611e+00 1.751917e+00 -7.838785e-04 -5.271418e-04 -1.707914e-04
N -3.241450e+00 1.818384e+00 6.955018e+00 -2.581464e-04 1.085695e-04 2.993140e-04
N -3.194393e+00 1.741162e+00 -3.341555e+00 9.145881e-05 -4.452516e-04 -3.389833e-04
N -3.010864e-02 -3.648728e+00 1.750926e+00 -8.371258e-05 1.108650e-03 -7.467265e-05
N -2.182254e-02 -3.692814e+00 6.974729e+00 3.544078e-05 -5.598752e-05 7.640865e-04
N -2.591276e-02 -3.645884e+00 -3.358620e+00 1.861587e-05 4.647085e-04 -4.790970e-04
N -1.606467e+00 -9.972059e-01 1.767876e+00 -4.562734e-05 -2.937946e-04 3.375547e-04
N -1.600354e+00 -1.003805e+00 6.943327e+00 -2.718802e-05 -1.794337e-04 5.102289e-05
N -1.561970e+00 -9.309500e-01 -3.278421e+00 3.344099e-04 -1.389527e-04 2.529099e-04
