108
Energy=-1.672602e+06 Lattice="9.545712e+00 0.000000e+00 0.000000e+00 -4.774931e+00 8.266108e+00 0.000000e+00 -1.742912e-03 3.805403e-03 1.542500e+01" Stress="2.427438e-04 -2.150806e-04 -6.499751e-05 -2.006269e-04 2.423968e-04 1.732338e-04 -5.492337e-05 1.750154e-04 -6.482295e-04" Properties=species:S:1:pos:R:3:forces:R:3 Config_type=AlGaN_super3_27_0_25.xyz
Al 1.574982e+00 8.947311e-01 2.392805e+00 1.830686e-04 -5.689847e-04 -4.911148e-05
Al 1.570218e+00 9.032935e-01 7.577965e+00 -4.677625e-04 -7.580195e-05 2.155872e-04
Al 1.559498e+00 8.891260e-01 -2.714307e+00 -5.333029e-05 1.604921e-04 9.913270e-05
Al -1.319107e-02 3.618865e+00 2.409833e+00 1.110549e-05 2.580174e-05 4.783677e-05
Al -9.781407e-03 3.613251e+00 7.570075e+00 2.994684e-06 -1.355207e-06 -5.582249e-05
Al -2.578909e-02 3.613411e+00 -2.711560e+00 1.127833e-05 -6.856141e-05 -3.720958e-05
Al 3.168028e+00 -1.857760e+00 2.401140e+00 -1.652440e-04 3.313185e-04 -1.212583e-04
Ga 3.168991e+00 -1.858184e+00 7.580636e+00 -2.755028e-05 8.886486e-06 -5.037010e-06
Ga 3.165662e+00 -1.870085e+00 -2.711252e+00 2.371027e-05 -1.408579e-06 2.646952e-05
Al -4.809430e+00 8.779545e-01 2.394855e+00 7.841490e-05 -1.977600e-04 -2.613716e-05
Al -4.811503e+00 8.820380e-01 7.565826e+00 5.356334e-05 -6.004810e-06 1.537972e-05
Ga -4.798745e+00 8.764210e-01 -2.699108e+00 4.069342e-05 -3.703185e-05 -5.318415e-05
Al -6.392214e+00 3.613205e+00 2.389776e+00 2.391667e-05 2.754609e-05 4.163099e-05
Al -6.400074e+00 3.612280e+00 7.581885e+00 2.105166e-05 2.042944e-05 9.688582e-05
Ga -6.394807e+00 3.616862e+00 -2.702284e+00 -1.471562e-06 3.291681e-05 1.030375e-05
Ga -3.232231e+00 -1.881202e+00 2.424493e+00 2.024657e-05 5.233298e-05 -3.345385e-06
Ga -3.224058e+00 -1.877381e+00 7.561094e+00 -6.216991e-06 1.298077e-05 2.027826e-05
Al -3.218670e+00 -1.871622e+00 -2.708708e+00 -7.163923e-06 4.162454e-06 2.595981e-05
Ga -1.606568e+00 9.069325e-01 2.416053e+00 -6.305750e-05 -4.562956e-05 -5.027348e-05
Ga -1.603600e+00 9.031442e-01 7.562662e+00 4.491497e-05 -3.810560e-05 1.515194e-05
Al -1.599873e+00 8.994414e-01 -2.704515e+00 9.277890e-05 8.589347e-06 6.967838e-05
Ga -3.211125e+00 3.623945e+00 2.412150e+00 -5.444747e-05 -4.730591e-05 -8.655011e-06
Ga -3.209143e+00 3.621049e+00 7.550047e+00 2.011829e-05 -1.822353e-05 1.392499e-05
Al -3.194521e+00 3.622689e+00 -2.684317e+00 2.719111e-05 4.607111e-06 1.071621e-05
Ga -5.598181e-03 -1.879750e+00 2.390776e+00 6.938193e-05 7.859595e-05 1.831708e-05
Ga -1.808481e-02 -1.871423e+00 7.587818e+00 -8.510316e-06 2.396512e-05 3.859491e-05
Ga -1.089347e-02 -1.867261e+00 -2.697075e+00 -3.708738e-05 -1.757369e-05 1.004317e-05
Al -1.767461e-02 1.803843e+00 4.986131e+00 -4.281794e-05 4.363238e-05 6.391283e-05
Al -6.731627e-04 1.790403e+00 -5.270332e+00 7.297007e-05 -4.310141e-04 1.511298e-04
Al -1.165652e-02 1.792360e+00 -1.647995e-01 -1.089922e-04 -3.402262e-04 -3.587855e-04
Ga 3.177764e+00 -3.715228e+00 4.971238e+00 2.908174e-06 1.860572e-05 5.639207e-05
Ga 3.170777e+00 -3.718241e+00 -5.266759e+00 -4.934496e-05 5.865034e-05 2.128990e-05
Ga 3.157842e+00 -3.716557e+00 -1.466795e-01 -2.306708e-05 2.941748e-05 -2.103327e-05
Ga 1.580678e+00 -9.364236e-01 4.979710e+00 -2.407112e-05 -8.569177e-06 -2.862839e-05
Al 1.578408e+00 -9.269562e-01 -5.278210e+00 -2.619834e-05 6.088414e-05 -4.159558e-05
Al 1.580532e+00 -9.366936e-01 -1.414826e-01 1.863917e-04 3.221260e-04 -2.766184e-05
Ga 3.163058e+00 1.786586e+00 4.982078e+00 1.905204e-05 1.287328e-05 -4.795344e-05
Al 3.145139e+00 1.773021e+00 -5.305274e+00 -1.522172e-05 1.878191e-04 -3.505150e-04
Al 3.156428e+00 1.781496e+00 -1.306602e-01 -2.225183e-04 2.130977e-05 3.035069e-06
Ga 6.334641e+00 -3.731632e+00 4.991581e+00 -1.222824e-05 -1.950673e-05 2.172694e-05
Ga 6.333000e+00 -3.727681e+00 -5.278905e+00 3.835572e-05 2.555020e-05 5.504948e-06
Ga 6.338100e+00 -3.722561e+00 -1.493322e-01 1.921802e-05 4.079393e-05 -5.836237e-06
Al 4.743444e+00 -9.359744e-01 4.976151e+00 -9.102105e-06 -1.455689e-05 -1.308755e-05
Al 4.740419e+00 -9.441664e-01 -5.278602e+00 -6.119377e-06 3.012844e-06 -4.631239e-06
Al 4.740085e+00 -9.416887e-01 -1.363213e-01 1.054812e-04 1.269921e-04 -2.747477e-04
Al -3.214921e+00 1.779476e+00 4.986908e+00 2.521609e-05 1.053307e-05 -1.922794e-05
Ga -3.213014e+00 1.784533e+00 -5.266638e+00 -2.698945e-06 -2.030110e-05 -2.295435e-05
Al -3.213070e+00 1.795928e+00 -1.635396e-01 3.173319e-04 9.454444e-05 3.205578e-04
Ga -3.268332e-02 -3.725074e+00 4.992922e+00 -6.929351e-08 2.064102e-06 1.392675e-05
Ga -2.223003e-02 -3.723753e+00 -5.273188e+00 -1.930599e-05 -2.336342e-05 -6.367012e-06
Al -1.481191e-02 -3.729498e+00 -1.499894e-01 -2.736747e-05 -9.124435e-06 2.694087e-05
Ga -1.620604e+00 -9.391847e-01 4.989149e+00 3.526144e-06 -2.608290e-05 2.835970e-05
Ga -1.615829e+00 -9.481986e-01 -5.254069e+00 7.317419e-06 2.821105e-05 3.386505e-05
Ga -1.617942e+00 -9.420558e-01 -1.673056e-01 -1.799944e-05 6.805245e-05 5.685583e-06
N 1.525915e+00 9.104926e-01 4.312716e+00 3.317861e-05 2.658821e-05 -8.697775e-05
N 1.560818e+00 8.820457e-01 -5.916594e+00 7.498888e-05 -2.927230e-05 7.693647e-05
N 1.572187e+00 8.816120e-01 -7.781222e-01 2.830399e-05 5.981122e-05 5.691002e-06
N -2.068118e-02 3.579993e+00 4.320948e+00 1.027895e-05 2.337165e-06 -2.957040e-05
N -2.470618e-02 3.574457e+00 -5.935580e+00 -4.504238e-05 3.332397e-04 -1.518282e-04
N -2.429262e-02 3.582545e+00 -8.048750e-01 -3.157177e-06 1.532587e-04 7.261148e-05
N 3.200868e+00 -1.846204e+00 4.323291e+00 -1.148570e-05 -2.815341e-05 -1.233897e-05
N 3.159722e+00 -1.830727e+00 -5.857370e+00 2.084771e-05 -2.318365e-05 1.051243e-05
N 3.159487e+00 -1.824614e+00 -7.327117e-01 1.649100e-04 -9.386823e-05 -1.458347e-04
N -4.757021e+00 8.584521e-01 4.324676e+00 -2.004294e-05 4.732883e-06 -4.100062e-05
N -4.835125e+00 8.526672e-01 -5.928172e+00 3.726630e-06 -2.789433e-05 5.078709e-05
N -4.804416e+00 8.796175e-01 -7.161796e-01 3.023648e-05 -4.718689e-04 3.381114e-05
N -6.388830e+00 3.626754e+00 4.301810e+00 2.038955e-05 -2.691993e-05 5.895271e-06
N -6.389405e+00 3.581197e+00 -5.925822e+00 -4.319647e-06 -1.139010e-04 5.688458e-05
N -6.348575e+00 3.598002e+00 -7.260020e-01 1.820179e-05 6.667126e-05 -3.133005e-05
N -3.251830e+00 -1.857312e+00 4.398356e+00 2.379829e-05 -6.857937e-06 -1.809786e-05
N -3.249253e+00 -1.853466e+00 -5.885875e+00 1.500266e-05 -2.287668e-05 -4.088612e-05
N -3.257708e+00 -1.852340e+00 -7.945624e-01 -1.279146e-04 4.563745e-05 3.936150e-05
N -1.610761e+00 9.389156e-01 4.401952e+00 2.612325e-05 -3.962384e-05 -1.562345e-06
N -1.567938e+00 9.082634e-01 -5.882255e+00 -5.475496e-05 2.014941e-05 -3.923975e-05
N -1.608424e+00 9.374697e-01 -7.861152e-01 -1.691809e-05 4.835456e-05 8.056789e-06
N -3.207898e+00 3.583560e+00 4.390470e+00 2.983388e-05 -2.789341e-05 4.917200e-06
N -3.201059e+00 3.626453e+00 -5.910966e+00 3.216382e-05 -2.835591e-06 -2.255837e-05
N -3.243553e+00 3.609805e+00 -7.704210e-01 4.204068e-05 1.060467e-05 4.676796e-08
N -1.775570e-02 -1.876634e+00 4.361343e+00 -1.179822e-05 -3.557802e-05 -1.544523e-05
N 1.992262e-02 -1.851563e+00 -5.861034e+00 6.673913e-06 -1.653670e-05 -3.086256e-05
N 2.917875e-02 -1.898379e+00 -7.165974e-01 -2.410187e-04 -1.612941e-04 -1.126567e-04
N 2.068687e-02 1.820345e+00 1.753585e+00 -8.174407e-05 2.306103e-04 1.546611e-04
N 2.692200e-02 1.822578e+00 6.911440e+00 3.854902e-05 1.159441e-05 5.353670e-06
N -1.506007e-02 1.795289e+00 -3.338681e+00 7.139442e-06 2.062627e-05 -1.514456e-06
N 3.203702e+00 -3.690247e+00 1.838274e+00 3.040756e-05 -1.158546e-04 -3.291684e-05
N 3.210680e+00 -3.730090e+00 6.957873e+00 -7.223568e-06 -3.157488e-06 -1.404839e-05
N 3.161772e+00 -3.763031e+00 -3.282032e+00 -2.203207e-05 4.515886e-05 -7.662903e-06
N 1.615026e+00 -9.238620e-01 1.776296e+00 -2.245310e-05 2.069251e-04 5.219714e-04
N 1.570904e+00 -8.994797e-01 6.960818e+00 4.684813e-05 -1.328941e-05 -5.320771e-05
N 1.571328e+00 -9.006164e-01 -3.363283e+00 3.751153e-05 -6.413844e-05 -5.126529e-05
N 3.157280e+00 1.791181e+00 1.793465e+00 3.737961e-06 -3.681933e-05 7.487735e-05
N 3.156009e+00 1.795280e+00 6.985112e+00 2.565068e-04 9.668612e-05 -1.349068e-04
N 3.117095e+00 1.766643e+00 -3.382575e+00 -5.001555e-05 -7.584654e-05 2.425231e-04
N 6.338927e+00 -3.759070e+00 1.827190e+00 -5.180281e-05 -3.251512e-05 -1.996128e-05
N 6.342859e+00 -3.766154e+00 6.980964e+00 -4.369827e-05 -2.896210e-06 -1.992564e-05
N 6.300210e+00 -3.693232e+00 -3.292632e+00 -8.850037e-06 1.110616e-05 2.854735e-06
N 4.710427e+00 -9.321907e-01 1.774052e+00 1.206274e-04 2.815450e-04 1.809124e-04
N 4.741996e+00 -9.012092e-01 6.894435e+00 -1.940546e-05 1.052606e-06 -2.211478e-05
N 4.790471e+00 -9.729290e-01 -3.370831e+00 -3.451656e-05 2.922250e-06 1.366849e-05
N -3.245185e+00 1.771115e+00 1.750503e+00 -1.146154e-04 -6.195299e-05 -1.848026e-04
N -3.254744e+00 1.764284e+00 6.905743e+00 -3.101686e-05 -1.435424e-06 -6.172897e-06
N -3.167765e+00 1.817843e+00 -3.286589e+00 -5.002278e-05 -9.092213e-06 2.854924e-05
N -6.060168e-02 -3.742612e+00 1.758369e+00 2.604575e-05 -1.360897e-05 -4.507784e-05
N -7.510670e-02 -3.735757e+00 6.968768e+00 2.454205e-07 -2.545707e-05 -3.086548e-05
N 2.038049e-02 -3.742035e+00 -3.301482e+00 -1.727844e-05 1.593636e-05 -1.551617e-05
N -1.622076e+00 -9.510121e-01 1.800553e+00 -5.389444e-05 -3.005575e-05 1.870948e-05
N -1.614398e+00 -9.531424e-01 6.955544e+00 -2.335566e-05 -7.772603e-06 -3.895979e-05
N -1.654104e+00 -9.304694e-01 -3.267972e+00 -3.173559e-06 -4.304124e-06 -4.564353e-05
