108
Energy=-2221908.260261 Lattice="9.614601 0.000000 0.000000 -4.806015 8.325352 0.000000 -0.000412 0.000412 15.585541" Stress="0.000000 -0.000000 0.000000 0.000000 -0.000000 -0.000000 -0.000000 0.000000 0.000000" Properties=species:S:1:pos:R:3:forces:R:3
Al 1.569256 0.897547 2.469743 -0.000009 0.000002 0.000007
Al 1.569352 0.898060 7.622523 -0.000006 0.000001 0.000005
Ga 1.589457 0.887693 -2.744996 -0.000002 0.000003 0.000002
Al -0.014510 3.648509 2.454673 -0.000006 -0.000007 -0.000001
Al -0.026376 3.642128 7.640097 -0.000003 0.000003 0.000003
Ga -0.028915 3.672437 -2.746284 -0.000001 -0.000001 -0.000002
Ga 3.177061 -1.894577 2.464995 0.000001 -0.000004 0.000006
Ga 3.189791 -1.882169 7.632964 -0.000003 0.000005 0.000003
Al 3.179888 -1.904802 -2.745439 0.000002 -0.000003 0.000002
Ga -4.838475 0.889610 2.480155 0.000002 0.000004 0.000000
Al -4.826775 0.881307 7.615009 -0.000002 -0.000001 0.000005
Ga -4.842247 0.889257 -2.745624 -0.000002 0.000005 0.000002
Al -6.442257 3.658322 2.463563 -0.000006 0.000003 0.000014
Ga -6.442378 3.645819 7.633102 -0.000004 0.000000 0.000003
Al -6.433709 3.655786 -2.743517 -0.000001 -0.000001 -0.000005
Ga -3.225448 -1.904928 2.469945 -0.000003 -0.000005 -0.000011
Ga -3.239804 -1.881730 7.628009 -0.000001 0.000005 0.000005
Ga -3.229855 -1.898038 -2.744914 0.000005 0.000001 0.000002
Ga -1.604359 0.895522 2.491955 -0.000012 -0.000007 0.000001
Al -1.619065 0.902781 7.602376 -0.000004 -0.000001 0.000005
Ga -1.621941 0.886488 -2.743315 -0.000000 0.000007 -0.000007
Ga -3.224993 3.666455 2.459345 0.000001 -0.000005 -0.000002
Ga -3.215208 3.645034 7.640012 0.000000 0.000001 0.000004
Ga -3.217234 3.674798 -2.744316 0.000001 0.000004 -0.000006
Al -0.020894 -1.890619 2.455705 0.000000 0.000002 -0.000001
Ga -0.020643 -1.875228 7.645570 -0.000011 0.000005 0.000001
Ga -0.018170 -1.893770 -2.741704 -0.000002 -0.000002 -0.000001
Al -0.023706 1.820200 5.055213 -0.000001 0.000005 0.000010
Ga -0.028965 1.818012 -5.382557 -0.000001 0.000001 0.000001
Ga -0.024054 1.821156 -0.119455 0.000002 -0.000011 0.000009
Ga 3.196374 -3.756385 5.048613 0.000001 -0.000002 -0.000002
Al 3.189137 -3.737626 -5.356813 -0.000000 0.000002 0.000004
Al 3.186039 -3.734804 -0.134037 0.000007 -0.000008 0.000001
Ga 1.576993 -0.950118 5.039430 0.000001 0.000000 0.000004
Ga 1.592408 -0.965901 -5.347306 0.000005 -0.000006 -0.000004
Ga 1.588894 -0.974009 -0.128113 0.000003 -0.000009 0.000007
Ga 3.179715 1.799383 5.048389 0.000003 -0.000003 0.000002
Ga 3.182522 1.805811 -5.366335 0.000003 0.000004 0.000006
Ga 3.178118 1.818117 -0.117274 0.000001 -0.000002 -0.000002
Ga 6.367679 -3.752616 5.039294 -0.000007 0.000040 -0.000005
Ga 6.373303 -3.747257 -5.348254 0.000002 -0.000003 -0.000001
Ga 6.381791 -3.750895 -0.128782 0.000013 -0.000000 -0.000006
Al 4.787225 -0.952866 5.061859 -0.000005 0.000003 0.000003
Ga 4.772674 -0.966708 -5.345342 -0.000002 -0.000003 0.000005
Ga 4.771161 -0.976876 -0.152023 0.000007 0.000004 0.000006
Al -3.224179 1.799759 5.070148 -0.000002 -0.000004 0.000004
Ga -3.222082 1.809457 -5.373840 0.000001 0.000001 0.000003
Ga -3.222088 1.817900 -0.136085 0.000009 -0.000001 0.000003
Ga -0.022908 -3.744360 5.030341 0.000007 -0.000004 0.000000
Ga -0.016947 -3.745267 -5.331007 0.000003 0.000004 0.000007
Ga -0.025038 -3.744371 -0.132497 0.000014 0.000006 0.000006
Ga -1.627026 -0.951679 5.049084 -0.000003 -0.000007 -0.000000
Ga -1.626932 -0.951941 -5.366627 0.000003 -0.000001 0.000002
Ga -1.623077 -0.963075 -0.116082 0.000002 0.000001 0.000008
N 1.532030 0.915265 4.390360 0.000003 -0.000006 -0.000010
N 1.577441 0.884410 -6.042290 -0.000002 -0.000001 -0.000001
N 1.579557 0.885519 -0.766119 0.000001 0.000002 -0.000004
N -0.026261 3.607490 4.372405 0.000000 0.000004 -0.000011
N -0.064921 3.685070 -6.021029 0.000002 -0.000001 0.000000
N -0.067277 3.685122 -0.760410 -0.000017 0.000004 0.000007
N 3.224665 -1.869212 4.445692 -0.000006 0.000001 0.000003
N 3.183652 -1.936806 -5.975085 -0.000003 -0.000001 -0.000003
N 3.176232 -1.945517 -0.811555 -0.000005 0.000001 -0.000007
N -4.785886 0.863042 4.464226 -0.000002 -0.000002 0.000000
N -4.828877 0.880649 -6.045704 -0.000000 0.000000 -0.000006
N -4.834421 0.889392 -0.768587 -0.000003 -0.000002 0.000004
N -6.436226 3.655851 4.375402 0.000003 0.000004 -0.000010
N -6.431302 3.663358 -5.984608 -0.000001 -0.000001 -0.000002
N -6.433804 3.656812 -0.821037 0.000003 -0.000005 -0.000005
N -3.271619 -1.867622 4.449444 0.000002 -0.000031 0.000011
N -3.234295 -1.890094 -5.980837 -0.000003 -0.000001 -0.000002
N -3.223456 -1.893745 -0.765053 -0.000015 -0.000001 0.000003
N -1.621748 0.940894 4.476338 0.000002 0.000003 -0.000001
N -1.624195 0.890309 -6.063806 0.000000 0.000002 -0.000002
N -1.620318 0.885433 -0.767774 -0.000008 -0.000004 0.000006
N -3.222467 3.607027 4.441189 -0.000003 0.000007 -0.000006
N -3.184207 3.686060 -5.961568 -0.000002 -0.000002 -0.000004
N -3.181810 3.689831 -0.751890 -0.000007 0.000007 0.000001
N -0.022546 -1.888580 4.367943 -0.000001 0.000000 -0.000002
N -0.018498 -1.891798 -5.968834 -0.000002 0.000001 -0.000004
N -0.022653 -1.888972 -0.765429 -0.000003 0.000000 -0.000005
N 0.018306 1.833357 1.861264 0.000006 0.000008 -0.000009
N -0.017467 1.818806 6.998669 0.000004 -0.000003 -0.000002
N -0.020966 1.813227 -3.398844 0.000005 0.000002 -0.000001
N 3.225949 -3.762028 1.795075 -0.000002 0.000008 0.000002
N 3.227143 -3.765517 7.022172 -0.000000 -0.000002 -0.000000
N 3.184915 -3.692177 -3.429159 0.000002 0.000001 -0.000004
N 1.542256 -0.938254 1.867547 -0.000002 0.000005 -0.000006
N 1.578475 -0.913342 7.018820 0.000008 -0.000005 0.000001
N 1.625215 -0.986233 -3.359932 0.000003 -0.000004 -0.000002
N 3.140113 1.833525 1.874735 0.000001 -0.000002 -0.000003
N 3.179370 1.759710 7.034196 0.000005 -0.000003 -0.000004
N 3.181283 1.857104 -3.380119 0.000001 0.000006 -0.000001
N 6.386344 -3.791959 1.862707 0.000012 0.000004 0.000004
N 6.338107 -3.768697 7.020924 0.000008 -0.000001 -0.000002
N 6.424877 -3.768471 -3.363242 0.000001 0.000004 -0.000004
N 4.781827 -0.965094 1.821425 0.000003 0.000003 0.000001
N 4.781518 -0.917271 6.974276 0.000006 -0.000001 -0.000006
N 4.739117 -0.987291 -3.356495 0.000000 -0.000000 -0.000007
N -3.224474 1.805848 1.834844 0.000008 -0.000003 -0.000007
N -3.230739 1.765314 6.995149 0.000002 -0.000001 -0.000003
N -3.227649 1.810809 -3.389454 -0.000004 -0.000004 0.000002
N -0.069049 -3.719691 1.862564 -0.000014 0.000002 -0.000001
N -0.023152 -3.738376 7.004567 0.000003 0.000001 0.000001
N -0.063962 -3.766838 -3.349633 -0.000000 -0.000004 0.000004
N -1.586561 -0.981849 1.865489 0.000007 0.000000 -0.000002
N -1.623496 -0.918545 7.024398 0.000008 -0.000002 -0.000007
N -1.625271 -0.961680 -3.388878 -0.000002 -0.000008 -0.000001
