108
Energy=-528215.320898 Lattice="9.407479 0.000000 0.000000 -4.704026 8.147621 0.000000 -0.000133 0.000935 15.080111" Stress="0.000001 -0.000000 -0.000000 -0.000000 0.000001 0.000000 -0.000000 0.000000 0.000002" Properties=species:S:1:pos:R:3:forces:R:3
Al 1.545620 0.866442 2.366244 0.000001 0.000023 0.000004
Al 1.543502 0.867784 7.390725 0.000006 0.000015 0.000033
Al 1.546571 0.865385 -2.668781 0.000013 0.000006 0.000063
Al -0.022547 3.582760 2.366217 0.000006 -0.000000 -0.000011
Al -0.022628 3.580584 7.390798 -0.000001 -0.000010 0.000020
Al -0.022484 3.583277 -2.668816 -0.000004 0.000009 0.000077
Al 3.105985 -1.853686 2.380543 0.000039 0.000014 0.000007
Al 3.114714 -1.848403 7.389915 -0.000007 0.000003 0.000029
Al 3.108266 -1.852895 -2.679320 -0.000011 0.000003 0.000074
Al -4.726354 0.875063 2.380425 -0.000009 -0.000029 0.000018
Al -4.726402 0.865432 7.389925 0.000011 0.000013 0.000026
Al -4.726318 0.872333 -2.679177 0.000027 -0.000014 0.000055
Al -6.301204 3.578518 2.380686 -0.000054 -0.000015 -0.000005
Al -6.293537 3.583182 7.389995 0.000003 -0.000001 0.000020
Al -6.299693 3.578869 -2.679340 0.000020 0.000005 0.000183
Al -3.150828 -1.853568 2.380580 -0.000030 -0.000009 0.000001
Al -3.159435 -1.848298 7.389947 0.000004 0.000002 0.000021
Al -3.152776 -1.852814 -2.679416 0.000017 0.000008 0.000098
Al -1.590790 0.866566 2.366096 0.000011 0.000002 0.000027
Al -1.588837 0.867970 7.390733 0.000008 -0.000000 0.000034
Al -1.591642 0.865561 -2.668777 -0.000003 -0.000013 0.000066
Al -3.151532 3.578521 2.380580 0.000024 -0.000004 -0.000004
Al -3.159302 3.583274 7.389939 -0.000009 -0.000018 0.000031
Al -3.152883 3.578965 -2.679146 -0.000027 -0.000019 0.000079
Al -0.022457 -1.841124 2.380557 -0.000002 0.000096 0.000070
Al -0.022417 -1.849813 7.389922 -0.000008 -0.000016 0.000031
Al -0.022267 -1.843282 -2.678872 -0.000022 -0.000026 -0.000091
Al -0.022677 1.771927 4.877141 0.000011 0.000019 0.000013
Al -0.022548 1.771182 -5.176710 0.000004 0.000014 0.000036
Al -0.022459 1.771504 -0.153801 0.000001 0.000037 -0.000095
Al 3.114776 -3.661203 4.885958 0.000025 0.000021 0.000016
Al 3.114915 -3.661276 -5.185105 0.000003 0.000021 0.000043
Al 3.117611 -3.667213 -0.148948 -0.000011 -0.000012 -0.000130
Al 1.545027 -0.942112 4.885906 -0.000006 0.000012 0.000024
Al 1.545694 -0.943149 -5.185091 -0.000008 0.000002 0.000057
Al 1.541635 -0.937271 -0.148850 -0.000052 -0.000020 -0.000147
Al 3.111382 1.771548 4.885972 -0.000024 -0.000008 0.000011
Al 3.111982 1.770441 -5.185109 -0.000006 -0.000002 0.000037
Al 3.105323 1.771454 -0.148916 -0.000031 0.000042 -0.000094
Al 6.247935 -3.661082 4.886066 -0.000018 -0.000001 0.000002
Al 6.248006 -3.661175 -5.185126 -0.000004 0.000004 0.000035
Al 6.245389 -3.667191 -0.149003 -0.000001 0.000011 -0.000092
Al 4.681315 -0.943811 4.877724 -0.000014 -0.000023 0.000017
Al 4.681443 -0.944565 -5.178503 -0.000015 -0.000012 0.000032
Ga 4.681476 -0.944691 -0.146106 0.000002 0.000025 -0.000023
Al -3.156751 1.771632 4.885870 0.000013 -0.000018 0.000022
Al -3.157188 1.770553 -5.185087 0.000005 -0.000003 0.000049
Al -3.150363 1.771557 -0.148894 0.000025 0.000019 -0.000126
Al -0.022415 -3.659661 4.878139 -0.000009 0.000012 0.000041
Al -0.022326 -3.660372 -5.179595 -0.000001 0.000008 0.000057
Ga -0.022323 -3.659975 -0.146577 -0.000000 -0.000018 -0.000073
Al -1.589882 -0.941908 4.885897 -0.000013 -0.000011 0.000023
Al -1.590291 -0.942962 -5.185087 -0.000012 -0.000013 0.000064
Al -1.586183 -0.937148 -0.148878 -0.000022 -0.000024 -0.000141
N 1.545779 0.866310 4.283938 0.000015 -0.000003 -0.000094
N 1.543214 0.867061 -5.776356 0.000010 0.000008 -0.000028
N 1.545977 0.865863 -0.747720 -0.000014 0.000006 0.000037
N -0.022621 3.583041 4.283891 -0.000005 -0.000006 -0.000082
N -0.022544 3.579231 -5.776343 -0.000000 -0.000008 -0.000021
N -0.022502 3.582596 -0.747761 -0.000009 -0.000015 0.000044
N 3.109246 -1.851740 4.293959 0.000003 0.000006 -0.000074
N 3.114671 -1.849407 -5.775082 0.000000 0.000005 -0.000020
N 3.070572 -1.874503 -0.766074 -0.000025 -0.000008 0.000013
N -4.726455 0.871457 4.293867 0.000024 -0.000001 -0.000079
N -4.726334 0.864615 -5.775073 0.000019 0.000008 -0.000028
N -4.726233 0.915396 -0.765999 -0.000003 0.000071 -0.000006
N -6.298491 3.580171 4.293972 0.000034 -0.000002 -0.000114
N -6.293438 3.582248 -5.775269 0.000008 -0.000005 -0.000018
N -6.336120 3.557904 -0.767733 -0.000003 -0.000045 -0.000059
N -3.154102 -1.851664 4.294031 0.000007 0.000012 -0.000091
N -3.159247 -1.849319 -5.775065 0.000004 0.000007 -0.000020
N -3.115082 -1.874477 -0.766160 0.000001 0.000001 0.000016
N -1.591145 0.866463 4.283827 0.000006 -0.000012 -0.000091
N -1.588409 0.867243 -5.776328 0.000014 -0.000003 -0.000040
N -1.590940 0.866012 -0.747679 0.000010 0.000003 0.000036
N -3.154406 3.580253 4.293857 -0.000026 -0.000016 -0.000106
N -3.159264 3.582355 -5.775289 0.000007 -0.000022 -0.000028
N -3.116510 3.557922 -0.768012 0.000021 -0.000010 0.000089
N -0.022475 -1.844368 4.293898 0.000001 -0.000027 -0.000111
N -0.022357 -1.850798 -5.775285 0.000004 -0.000005 -0.000035
N -0.022435 -1.801062 -0.768570 0.000059 0.000024 0.000324
N -0.022548 1.771948 1.767701 0.000004 -0.000005 0.000047
N -0.022631 1.772137 6.792216 0.000002 0.000007 -0.000041
N -0.022499 1.771406 -3.258895 0.000005 0.000012 0.000002
N 3.113002 -3.659740 1.770784 -0.000033 0.000005 0.000063
N 3.114319 -3.660130 6.799625 -0.000002 0.000019 -0.000044
N 3.116348 -3.661690 -3.272631 0.000017 0.000021 -0.000019
N 1.545443 -0.944434 1.770910 -0.000032 -0.000018 0.000020
N 1.545594 -0.942812 6.799619 -0.000011 0.000007 -0.000051
N 1.545884 -0.941438 -3.272551 0.000009 0.000025 -0.000042
N 3.113650 1.772387 1.770794 0.000015 -0.000001 0.000076
N 3.112378 1.771735 6.799622 -0.000005 -0.000007 -0.000036
N 3.110768 1.769822 -3.272664 -0.000009 -0.000019 0.000002
N 6.249899 -3.659623 1.770760 0.000007 -0.000005 0.000075
N 6.248454 -3.660020 6.799690 -0.000005 0.000003 -0.000038
N 6.246668 -3.661586 -3.272699 -0.000022 -0.000002 -0.000008
N 4.681296 -0.944181 1.832113 0.000001 0.000027 0.000079
N 4.681370 -0.943638 6.794119 -0.000017 -0.000008 -0.000043
N 4.681456 -0.944359 -3.259851 -0.000012 -0.000006 -0.000018
N -3.158907 1.772371 1.770789 -0.000002 0.000019 0.000068
N -3.157733 1.771803 6.799546 0.000006 -0.000002 -0.000031
N -3.155909 1.769919 -3.272609 0.000011 -0.000025 -0.000008
N -0.022454 -3.659420 1.832195 0.000045 -0.000125 0.000040
N -0.022431 -3.659477 6.794580 0.000007 0.000006 -0.000033
N -0.022279 -3.660164 -3.260805 0.000001 -0.000001 -0.000029
N -1.590317 -0.944345 1.770880 0.000041 -0.000010 0.000028
N -1.590359 -0.942626 6.799597 -0.000006 -0.000005 -0.000040
N -1.590397 -0.941278 -3.272551 -0.000021 0.000017 -0.000048
