108
Energy=-1.993031e+06 Lattice="9.587117e+00 0.000000e+00 0.000000e+00 -4.799001e+00 8.300176e+00 0.000000e+00 2.624451e-02 -1.895497e-03 1.550780e+01" Stress="-1.635554e-04 2.252476e-05 9.854240e-04 2.390096e-05 -2.899977e-04 -4.059964e-05 1.003226e-03 -3.916146e-05 -9.698892e-04" Properties=species:S:1:pos:R:3:forces:R:3 Config_type=AlGaN_super3_34_2_8.xyz
Al 1.581806e+00 8.942825e-01 2.424899e+00 -9.502533e-05 -1.067521e-04 7.076030e-04
Al 1.576391e+00 8.964481e-01 7.600566e+00 3.979159e-04 -3.350800e-04 7.811920e-04
Al 1.577797e+00 9.000058e-01 -2.725949e+00 4.304253e-04 -1.514213e-04 7.435729e-04
Al -7.449406e-03 3.639833e+00 2.448761e+00 1.169980e-04 -1.379004e-04 3.727758e-04
Al -7.904896e-03 3.636031e+00 7.574107e+00 5.242434e-05 2.459589e-04 5.919269e-04
Ga -1.713542e-02 3.642651e+00 -2.718894e+00 2.216706e-05 2.576355e-04 9.667703e-04
Al 3.206780e+00 -1.888715e+00 2.459450e+00 -1.588324e-04 7.010886e-05 5.021054e-04
Ga 3.210115e+00 -1.889326e+00 7.576892e+00 1.316543e-04 -6.563746e-05 8.710665e-04
Ga 3.172556e+00 -1.870644e+00 -2.726739e+00 2.147828e-04 -5.559299e-05 3.911976e-04
Ga -4.826962e+00 8.642435e-01 2.435776e+00 2.189656e-04 2.983824e-04 1.222593e-03
Ga -4.808416e+00 8.663682e-01 7.604538e+00 5.652767e-04 -1.847069e-04 6.789989e-04
Al -4.851137e+00 8.868858e-01 -2.737934e+00 3.284895e-04 6.745665e-05 7.515516e-05
Ga -6.420731e+00 3.641091e+00 2.439737e+00 2.455542e-04 -5.740847e-05 6.750908e-04
Ga -6.412236e+00 3.645984e+00 7.615036e+00 2.993259e-04 2.415547e-04 8.462178e-04
Al -6.432812e+00 3.635007e+00 -2.752735e+00 1.894049e-04 3.668946e-05 6.743029e-04
Al -3.220113e+00 -1.892788e+00 2.450454e+00 7.782083e-05 1.111641e-04 5.385553e-04
Al -3.210514e+00 -1.882882e+00 7.588702e+00 2.438154e-04 8.521095e-05 5.191544e-04
Al -3.228864e+00 -1.884931e+00 -2.732586e+00 1.208028e-04 5.600060e-05 4.671510e-04
Ga -1.589856e+00 8.892821e-01 2.445015e+00 3.566689e-04 -3.821154e-04 1.610213e-04
Al -1.589913e+00 8.864257e-01 7.590535e+00 1.100123e-04 -3.241315e-04 -4.221949e-07
Ga -1.632840e+00 8.804513e-01 -2.718241e+00 6.192306e-04 -1.087395e-04 5.530841e-04
Ga -3.198878e+00 3.661184e+00 2.468007e+00 9.047082e-06 -3.463272e-04 3.524941e-04
Ga -3.197263e+00 3.652194e+00 7.594924e+00 2.969228e-04 -9.389525e-05 4.916410e-04
Ga -3.248149e+00 3.647550e+00 -2.740358e+00 4.019818e-04 -7.660049e-05 4.789737e-04
Ga -5.035640e-03 -1.880238e+00 2.454615e+00 8.617319e-05 -2.715553e-04 4.550786e-04
Ga -1.407999e-02 -1.879564e+00 7.606167e+00 4.702077e-04 -2.853147e-04 2.469318e-04
Ga -4.314670e-02 -1.882567e+00 -2.741346e+00 7.474397e-04 -3.133494e-04 3.106814e-04
Al -3.738009e-03 1.812096e+00 5.027194e+00 -4.454762e-04 3.021844e-04 6.808601e-04
Ga -2.038399e-02 1.803602e+00 -5.340664e+00 -7.254397e-04 3.968649e-04 1.436013e-03
Al -8.961527e-03 1.805524e+00 -1.364508e-01 -8.817135e-04 -3.916697e-05 2.795131e-04
Al 3.203241e+00 -3.733495e+00 5.006062e+00 -3.277894e-04 5.050243e-04 4.155821e-04
Ga 3.166255e+00 -3.733573e+00 -5.332792e+00 -1.600222e-04 2.441438e-04 3.875162e-04
Ga 3.172590e+00 -3.735767e+00 -1.092455e-01 7.716478e-04 1.984025e-04 -1.447143e-03
Ga 1.603625e+00 -9.577702e-01 5.008889e+00 -4.312443e-04 2.184286e-04 5.297967e-04
Ga 1.570720e+00 -9.477704e-01 -5.322358e+00 -7.077708e-04 3.842225e-04 2.228707e-04
Ga 1.571575e+00 -9.352548e-01 -1.249470e-01 1.636566e-04 1.749679e-04 -1.597410e-03
Ga 3.171225e+00 1.799237e+00 5.019301e+00 1.789141e-04 -9.904768e-06 1.184131e-03
Al 3.153781e+00 1.808141e+00 -5.306435e+00 -7.512318e-05 -1.681117e-05 6.313407e-04
Al 3.148497e+00 1.805427e+00 -1.739131e-01 -2.628559e-04 3.747516e-04 5.802706e-04
Ga 6.368771e+00 -3.727806e+00 5.018661e+00 -2.766379e-05 2.252283e-04 8.091456e-04
Ga 6.367495e+00 -3.729370e+00 -5.325743e+00 -2.831717e-04 2.084067e-04 7.033280e-04
Ga 6.362930e+00 -3.738246e+00 -1.379941e-01 8.840427e-04 9.845299e-05 -1.443133e-03
Al 4.788451e+00 -9.787513e-01 5.008885e+00 -3.666295e-04 4.537189e-05 6.516600e-04
Ga 4.768212e+00 -9.562715e-01 -5.304600e+00 -2.617153e-04 6.052619e-05 6.708364e-04
Ga 4.762290e+00 -9.552464e-01 -1.434202e-01 5.883739e-04 -1.722566e-04 -1.300365e-03
Ga -3.201566e+00 1.808938e+00 5.034496e+00 -5.165612e-04 2.930212e-04 1.852151e-04
Ga -3.243972e+00 1.807944e+00 -5.322663e+00 4.013715e-05 -1.636703e-06 4.256420e-04
Ga -3.243086e+00 1.804611e+00 -1.495287e-01 1.099935e-03 -1.006904e-04 -9.491323e-04
Al -6.260125e-04 -3.730285e+00 5.028064e+00 1.211065e-04 1.213688e-04 3.115505e-04
Al -4.201502e-02 -3.738225e+00 -5.306642e+00 -7.458202e-06 2.369912e-04 2.948827e-04
Ga -4.476553e-02 -3.738789e+00 -1.560146e-01 5.350761e-04 1.052273e-04 -8.190528e-04
Ga -1.614471e+00 -9.630887e-01 5.034317e+00 -5.239496e-04 1.848171e-05 3.753792e-04
Ga -1.637828e+00 -9.645819e-01 -5.332482e+00 -4.904749e-04 3.346637e-04 7.194404e-04
Ga -1.638172e+00 -9.596597e-01 -1.334492e-01 2.557108e-04 2.905729e-04 -1.547423e-03
N 1.540347e+00 9.128217e-01 4.347532e+00 3.007449e-04 -1.501041e-04 -7.123324e-04
N 1.605518e+00 9.124839e-01 -5.987481e+00 6.572259e-04 -1.970581e-04 -6.662884e-04
N 1.561921e+00 9.330065e-01 -7.937695e-01 6.408530e-04 -1.552637e-04 -5.104592e-04
N -4.912303e-02 3.614836e+00 4.379851e+00 1.159205e-04 -3.936604e-04 -5.938635e-04
N -3.481253e-02 3.648950e+00 -6.012578e+00 4.634116e-04 -2.388830e-04 -6.435470e-04
N -3.644295e-02 3.603163e+00 -7.403262e-01 1.128973e-04 -3.705382e-04 -9.332470e-04
N 3.232809e+00 -1.910022e+00 4.387908e+00 1.524207e-04 -1.678348e-04 -6.576388e-04
N 3.170055e+00 -1.881033e+00 -5.953394e+00 2.251125e-04 -8.161812e-05 -5.891917e-04
N 3.159232e+00 -1.886593e+00 -7.567508e-01 4.137324e-04 -3.431237e-04 -5.183121e-04
N -4.809357e+00 8.348604e-01 4.417659e+00 1.607053e-04 1.133167e-04 -7.103147e-04
N -4.879378e+00 9.034393e-01 -5.923294e+00 1.350991e-04 1.865251e-04 -6.320955e-04
N -4.878871e+00 9.066411e-01 -8.102569e-01 6.365582e-04 -2.023721e-04 9.707139e-05
N -6.364787e+00 3.670709e+00 4.418373e+00 -2.728180e-04 -1.342838e-04 -7.964898e-04
N -6.387609e+00 3.622761e+00 -5.902906e+00 -1.158324e-04 -1.719165e-04 -7.087230e-04
N -6.432590e+00 3.602126e+00 -8.203266e-01 5.493722e-05 -1.467531e-04 -5.322299e-04
N -3.241388e+00 -1.863334e+00 4.364252e+00 2.018973e-04 -2.074659e-04 -6.423955e-04
N -3.236513e+00 -1.882616e+00 -6.006028e+00 1.677066e-04 -3.462621e-04 -3.966634e-04
N -3.230578e+00 -1.886554e+00 -8.199151e-01 5.898935e-04 -2.793558e-04 -2.571316e-04
N -1.562944e+00 9.090470e-01 4.422253e+00 6.697960e-04 -2.549540e-04 -3.394313e-04
N -1.633617e+00 8.892752e-01 -5.998914e+00 7.778990e-04 -2.295898e-04 -4.956208e-04
N -1.588836e+00 9.117052e-01 -7.356311e-01 1.018896e-03 3.227933e-05 -6.598580e-04
N -3.207365e+00 3.698216e+00 4.447257e+00 1.191841e-04 -3.309372e-04 -3.807182e-04
N -3.277416e+00 3.678924e+00 -5.930887e+00 -4.834736e-06 -3.086097e-04 -5.984043e-04
N -3.229741e+00 3.656540e+00 -7.707068e-01 4.130655e-04 -3.624269e-04 -4.773626e-04
N -9.851407e-03 -1.927976e+00 4.429368e+00 3.110287e-04 -1.512836e-04 -4.369792e-04
N -3.196783e-02 -1.933021e+00 -5.918506e+00 5.054423e-04 -3.449136e-04 -3.863239e-04
N -3.105392e-02 -1.877005e+00 -7.646723e-01 7.186103e-04 -3.183926e-04 -3.264709e-04
N 3.214986e-02 1.828193e+00 1.791726e+00 1.134265e-04 1.488650e-04 -6.038475e-04
N -1.350833e-03 1.802085e+00 6.968616e+00 -2.532890e-04 5.693243e-05 -7.495530e-04
N 8.484862e-03 1.779132e+00 -3.354894e+00 -2.226115e-04 1.126152e-04 -1.092354e-03
N 3.235379e+00 -3.709590e+00 1.870742e+00 -1.147800e-03 5.758242e-04 1.209535e-03
N 3.237058e+00 -3.756658e+00 6.928844e+00 -7.393038e-05 3.248602e-05 -5.190517e-04
N 3.172955e+00 -3.731748e+00 -3.360701e+00 -7.293290e-06 1.097133e-04 -5.554142e-04
N 1.640260e+00 -9.388401e-01 1.865014e+00 -1.235807e-03 5.154476e-04 1.446434e-03
N 1.596785e+00 -9.121697e-01 6.992944e+00 -5.938056e-04 4.195323e-04 -4.960773e-04
N 1.568901e+00 -9.057138e-01 -3.338953e+00 -5.984712e-04 2.884136e-04 -3.921115e-04
N 3.138413e+00 1.781777e+00 1.760464e+00 8.736046e-05 -1.424150e-04 -2.558263e-04
N 3.142871e+00 1.779997e+00 6.992700e+00 -3.153102e-04 7.219483e-05 -9.307823e-04
N 3.153728e+00 1.802524e+00 -3.364817e+00 -2.302253e-04 -8.462780e-05 -6.731954e-04
N 6.342934e+00 -3.707458e+00 1.851178e+00 -1.111282e-03 2.203360e-04 1.458280e-03
N 6.346798e+00 -3.705858e+00 7.008835e+00 -8.184512e-05 -2.804081e-04 -8.631951e-04
N 6.398288e+00 -3.702350e+00 -3.330526e+00 9.968859e-05 -1.719297e-04 -8.726438e-04
N 4.788730e+00 -1.013857e+00 1.836282e+00 -1.209471e-03 2.500735e-04 1.343787e-03
N 4.832618e+00 -9.868900e-01 6.926405e+00 -2.191455e-04 1.915938e-04 -7.366538e-04
N 4.807117e+00 -9.364715e-01 -3.319828e+00 -2.818542e-04 6.519809e-06 -4.564834e-04
N -3.211869e+00 1.804752e+00 1.826531e+00 -1.538247e-03 7.302128e-05 8.004130e-04
N -3.166050e+00 1.778305e+00 7.008333e+00 -3.104886e-04 1.050994e-05 -2.384017e-04
N -3.272094e+00 1.776228e+00 -3.338132e+00 -3.464891e-04 -5.393029e-05 -4.557718e-04
N -9.229531e-03 -3.733291e+00 1.811093e+00 -1.117679e-03 1.982974e-04 9.363628e-04
N -9.152414e-03 -3.730981e+00 6.933965e+00 -5.248227e-04 -7.879846e-05 -2.523722e-04
N -7.622980e-02 -3.751086e+00 -3.389342e+00 -3.415070e-04 4.722394e-05 -1.539437e-04
N -1.650288e+00 -9.893519e-01 1.842802e+00 -1.449050e-03 1.995900e-05 1.462532e-03
N -1.646478e+00 -9.400471e-01 7.017328e+00 -3.499067e-04 2.514091e-04 -2.911499e-04
N -1.676024e+00 -9.798942e-01 -3.351121e+00 -5.528876e-04 9.615052e-05 -6.297242e-04
