108
Energy=-1.077521e+06 Lattice="9.471036e+00 0.000000e+00 0.000000e+00 -4.733898e+00 8.201459e+00 0.000000e+00 4.297915e-04 -3.329279e-03 1.525727e+01" Stress="-5.511133e-04 1.037696e-04 7.975638e-05 9.682025e-05 -6.372803e-05 9.962689e-05 8.149101e-05 9.927828e-05 6.117159e-04" Properties=species:S:1:pos:R:3:forces:R:3 Config_type=AlGaN_super3_14_2_26.xyz
Al 1.550176e+00 8.690996e-01 2.373464e+00 1.710509e-03 -8.108887e-04 1.910793e-04
Al 1.552455e+00 8.538659e-01 7.482984e+00 3.078273e-04 2.796329e-04 5.771956e-04
Al 1.560535e+00 8.602078e-01 -2.682199e+00 -8.059838e-04 1.066905e-05 3.879255e-04
Al -6.726822e-03 3.599147e+00 2.383444e+00 -2.326956e-03 1.308163e-04 -3.320892e-04
Al -2.541849e-02 3.602882e+00 7.490455e+00 6.846354e-04 2.401163e-04 -4.315161e-04
Al -3.663697e-02 3.605332e+00 -2.687418e+00 9.846150e-05 6.674632e-04 1.261893e-04
Al 3.130324e+00 -1.842263e+00 2.380970e+00 -3.305541e-04 -2.605092e-03 -4.486582e-04
Al 3.132801e+00 -1.856916e+00 7.494432e+00 4.417414e-05 2.206411e-04 2.150947e-04
Al 3.126036e+00 -1.860359e+00 -2.702739e+00 -1.002488e-03 1.042189e-04 7.413479e-04
Al -4.785541e+00 8.767566e-01 2.397137e+00 4.724823e-04 -5.091145e-03 -5.011207e-03
Al -4.759558e+00 8.532993e-01 7.497940e+00 -2.478156e-04 -8.802365e-05 -3.433831e-05
Al -4.762289e+00 8.699406e-01 -2.718398e+00 -5.244886e-03 -2.604515e-03 8.217588e-03
Al -6.360175e+00 3.609724e+00 2.364216e+00 7.111129e-03 -2.275418e-03 2.059087e-03
Ga -6.339953e+00 3.604020e+00 7.516670e+00 -1.659020e-04 5.997871e-05 -1.322446e-05
Ga -6.332316e+00 3.596912e+00 -2.698396e+00 2.872751e-05 -1.807805e-04 2.632191e-04
Ga -3.193132e+00 -1.872803e+00 2.406713e+00 -8.126509e-04 1.488542e-03 -3.896535e-04
Al -3.182515e+00 -1.858848e+00 7.477965e+00 1.912938e-05 6.821351e-04 5.460799e-04
Ga -3.193926e+00 -1.854459e+00 -2.699966e+00 -5.019599e-05 -1.058870e-04 2.066334e-04
Ga -1.581372e+00 8.758136e-01 2.414159e+00 -3.479476e-04 2.584122e-04 -7.086724e-05
Al -1.592520e+00 8.618731e-01 7.476877e+00 -2.402911e-04 3.760580e-05 -5.751799e-04
Al -1.591660e+00 8.687667e-01 -2.697530e+00 -4.110370e-04 2.315102e-03 9.398603e-04
Ga -3.181829e+00 3.621201e+00 2.374839e+00 -9.328993e-06 4.212054e-04 -5.776023e-04
Al -3.165288e+00 3.615190e+00 7.515432e+00 -1.770834e-03 -2.561662e-03 -1.149147e-03
Al -3.169774e+00 3.624063e+00 -2.697269e+00 3.821217e-04 -6.239735e-04 1.747572e-03
Al -3.191857e-03 -1.859351e+00 2.395633e+00 -1.122108e-04 -8.792982e-04 5.993342e-04
Al -1.316979e-02 -1.847717e+00 7.497616e+00 -2.873169e-04 4.889455e-04 1.581923e-04
Al -3.658665e-03 -1.849712e+00 -2.710984e+00 -8.218364e-05 -1.547566e-03 -1.089852e-03
Al -7.153257e-03 1.779378e+00 4.953793e+00 -1.352204e-04 -3.733663e-04 7.546623e-04
Ga -8.341160e-03 1.783981e+00 -5.226955e+00 -8.580381e-05 3.333664e-04 1.450347e-04
Al -4.874483e-03 1.795635e+00 -1.694904e-01 -9.202298e-04 -9.945263e-04 -9.764170e-04
Ga 3.157623e+00 -3.673536e+00 4.955885e+00 -5.101817e-04 -1.087752e-04 -4.580035e-04
Al 3.140768e+00 -3.665438e+00 -5.234000e+00 -1.113019e-03 -7.079323e-04 -1.932735e-04
Al 3.146455e+00 -3.668359e+00 -1.661741e-01 -8.291676e-04 -4.348098e-04 2.155522e-04
Al 1.554010e+00 -9.458372e-01 4.935810e+00 -6.462633e-05 1.452160e-03 3.200592e-04
Al 1.563051e+00 -9.543371e-01 -5.232415e+00 -4.572266e-05 -6.295102e-04 6.900494e-04
Al 1.566332e+00 -9.521803e-01 -1.633796e-01 -1.562090e-04 -9.061847e-05 -3.541296e-04
Ga 3.119116e+00 1.773619e+00 4.926018e+00 -4.559294e-04 3.855731e-04 6.518904e-05
Al 3.129194e+00 1.763126e+00 -5.232056e+00 8.856386e-04 2.106651e-03 1.433180e-03
Al 3.125783e+00 1.775274e+00 -1.409828e-01 1.119624e-04 7.931952e-04 -8.433585e-04
Al 6.282621e+00 -3.681910e+00 4.941441e+00 6.267871e-04 -1.474921e-03 2.284520e-03
Al 6.285040e+00 -3.673213e+00 -5.237194e+00 5.849381e-04 -8.956849e-04 -1.103939e-03
Al 6.279478e+00 -3.697604e+00 -1.468504e-01 3.265069e-04 -5.877567e-04 -3.500388e-04
Al 4.708191e+00 -9.617887e-01 4.953072e+00 5.882857e-04 1.892963e-03 4.127660e-04
Al 4.704904e+00 -9.563712e-01 -5.247260e+00 -4.923877e-05 -1.282132e-03 6.655971e-04
Al 4.688916e+00 -9.554021e-01 -1.565284e-01 -6.497438e-04 1.043059e-03 4.188234e-04
Ga -3.181397e+00 1.764185e+00 4.971744e+00 2.576604e-04 3.393858e-04 4.210053e-04
Ga -3.189622e+00 1.781452e+00 -5.227519e+00 4.964089e-04 5.229984e-04 -8.177773e-04
Ga -3.193511e+00 1.783167e+00 -1.739073e-01 -5.655774e-04 -3.961744e-04 -2.225098e-04
Ga -3.635413e-02 -3.662274e+00 4.955096e+00 -1.359436e-04 -3.284254e-04 -4.203848e-04
Al -1.548375e-02 -3.667015e+00 -5.230553e+00 -4.618131e-04 -4.290917e-04 -7.559514e-04
Al -1.779572e-02 -3.671622e+00 -1.636275e-01 -2.495668e-03 1.300216e-04 2.597258e-03
Al -1.591447e+00 -9.603240e-01 4.959051e+00 3.711187e-05 3.955173e-04 7.294567e-04
Al -1.596198e+00 -9.630778e-01 -5.245721e+00 -3.645590e-04 -1.921486e-04 -4.773673e-05
Ga -1.587129e+00 -9.620273e-01 -1.548774e-01 3.764716e-06 2.947359e-04 1.457173e-04
N 1.507840e+00 8.486451e-01 4.296029e+00 5.532345e-04 -1.995307e-03 1.911183e-04
N 1.596124e+00 8.418573e-01 -5.856777e+00 -1.114699e-03 1.794678e-05 -2.636918e-03
N 1.561366e+00 8.689043e-01 -7.589735e-01 -6.333399e-04 7.617515e-05 1.970062e-05
N 2.042360e-02 3.573305e+00 4.311975e+00 -8.816987e-06 1.350566e-03 -1.472761e-03
N -2.201144e-02 3.650227e+00 -5.860616e+00 3.625599e-04 1.963693e-04 9.819832e-04
N -2.266286e-02 3.610987e+00 -7.704227e-01 -8.741658e-05 -1.059330e-04 2.055026e-04
N 3.135903e+00 -1.813787e+00 4.310306e+00 -8.564873e-04 2.598337e-06 -1.040849e-03
N 3.131959e+00 -1.857535e+00 -5.842934e+00 -1.782162e-04 -2.705708e-04 -1.234105e-04
N 3.132731e+00 -1.859943e+00 -7.789798e-01 -5.518365e-04 -6.686466e-04 -1.138797e-04
N -4.758460e+00 8.206781e-01 4.293661e+00 -2.376331e-04 -1.114903e-03 2.797499e-03
N -4.799393e+00 8.431599e-01 -5.854869e+00 -1.455472e-04 3.142828e-04 1.118740e-03
N -4.815631e+00 8.426176e-01 -7.815416e-01 1.912731e-03 4.086748e-04 -4.414119e-03
N -6.376122e+00 3.632532e+00 4.289253e+00 -7.686733e-04 2.542256e-04 -2.770750e-04
N -6.330364e+00 3.602430e+00 -5.762927e+00 -1.846430e-03 2.954558e-04 -6.081161e-04
N -6.334893e+00 3.607040e+00 -7.115678e-01 -2.163041e-04 -9.546163e-04 3.082446e-04
N -3.180143e+00 -1.862559e+00 4.395557e+00 -5.612259e-04 3.822377e-04 -5.433841e-04
N -3.179219e+00 -1.859242e+00 -5.848456e+00 4.896975e-05 2.067748e-04 3.831532e-04
N -3.225091e+00 -1.888499e+00 -7.240114e-01 9.140521e-05 5.119084e-04 -2.594085e-04
N -1.555926e+00 8.487591e-01 4.391636e+00 -2.094576e-05 -3.399735e-05 -1.742943e-04
N -1.596534e+00 8.268718e-01 -5.873020e+00 1.529615e-04 -5.719487e-05 4.645230e-04
N -1.561178e+00 8.902407e-01 -7.945712e-01 1.381303e-03 5.617565e-04 2.507505e-04
N -3.176696e+00 3.607166e+00 4.337925e+00 2.067474e-04 -1.190404e-05 1.755735e-04
N -3.177357e+00 3.653202e+00 -5.840390e+00 2.007064e-03 7.946092e-04 1.976797e-03
N -3.181790e+00 3.660696e+00 -7.711784e-01 3.094060e-03 1.412468e-04 -2.485109e-03
N -1.734099e-02 -1.811962e+00 4.316052e+00 2.419473e-04 -1.170162e-04 -1.280190e-03
N -1.644898e-02 -1.853991e+00 -5.840396e+00 1.231408e-04 1.199688e-04 2.659395e-04
N 2.348739e-02 -1.881666e+00 -8.023949e-01 6.321188e-04 3.189123e-04 9.503165e-04
N 1.892332e-02 1.804535e+00 1.747575e+00 -1.022890e-03 1.610401e-03 2.966385e-04
N -1.404904e-02 1.783623e+00 6.880491e+00 8.029933e-06 9.871141e-05 2.572773e-04
N -1.948498e-02 1.787581e+00 -3.248084e+00 1.177954e-03 -1.498747e-03 -1.749902e-04
N 3.182076e+00 -3.656553e+00 1.757110e+00 1.082934e-03 8.722926e-04 1.185424e-03
N 3.134684e+00 -3.682720e+00 6.935070e+00 1.459883e-03 6.454388e-04 -7.676135e-04
N 3.137901e+00 -3.680618e+00 -3.307714e+00 -3.182802e-04 -1.711251e-04 9.772718e-05
N 1.555629e+00 -9.506529e-01 1.764742e+00 -1.426353e-04 -1.460719e-04 3.050395e-04
N 1.558866e+00 -9.561955e-01 6.865067e+00 1.222861e-05 3.890322e-04 1.478013e-04
N 1.561103e+00 -9.452606e-01 -3.310481e+00 -7.485859e-04 -1.308233e-04 -6.084663e-05
N 3.125659e+00 1.784863e+00 1.785641e+00 1.840137e-04 -4.280171e-04 -9.060632e-05
N 3.135828e+00 1.736120e+00 6.902281e+00 -5.328236e-04 -5.173939e-04 2.569992e-04
N 3.125876e+00 1.730764e+00 -3.317927e+00 1.218138e-03 3.684910e-04 -1.631958e-03
N 6.288895e+00 -3.730665e+00 1.764275e+00 -4.130399e-03 1.811048e-03 -1.262441e-03
N 6.251509e+00 -3.665016e+00 6.868452e+00 -3.052188e-04 -1.002596e-03 -2.540128e-03
N 6.244610e+00 -3.707296e+00 -3.336816e+00 -3.555390e-04 -1.166309e-04 9.082279e-04
N 4.669276e+00 -9.325251e-01 1.757517e+00 6.107359e-04 3.827748e-03 1.251207e-03
N 4.709098e+00 -9.546911e-01 6.877949e+00 -2.123071e-04 2.456421e-05 -1.312186e-04
N 4.662244e+00 -9.305742e-01 -3.329823e+00 2.195845e-03 1.075827e-03 -2.474964e-03
N -3.219776e+00 1.753450e+00 1.796140e+00 1.223648e-04 4.137877e-04 4.137897e-04
N -3.187075e+00 1.780769e+00 6.952900e+00 1.175150e-03 1.251418e-03 -1.476148e-04
N -3.185627e+00 1.783898e+00 -3.240429e+00 2.952489e-03 1.356044e-03 -1.139186e-03
N -6.811930e-02 -3.653662e+00 1.761741e+00 -3.933800e-04 7.738430e-04 -1.616725e-03
N 1.547397e-02 -3.657743e+00 6.928337e+00 1.887736e-04 -4.880615e-04 -4.302584e-04
N 1.926146e-02 -3.661430e+00 -3.324439e+00 -9.655577e-05 2.261891e-03 1.573345e-03
N -1.560102e+00 -9.756167e-01 1.808548e+00 -9.323310e-05 -1.767685e-04 1.571551e-04
N -1.594877e+00 -9.610028e-01 6.881331e+00 -9.401946e-05 1.064312e-04 2.215029e-04
N -1.565100e+00 -9.261541e-01 -3.324498e+00 9.856290e-04 -1.629343e-03 -8.723270e-04
