108
Energy=-619764.686790 Lattice="9.458749 0.000000 0.000000 -4.739330 8.179276 0.000000 0.007325 0.021966 15.208043" Stress="0.000049 0.000015 0.000004 0.000015 0.000069 0.000006 0.000004 0.000006 0.000098" Properties=species:S:1:pos:R:3:forces:R:3
Al 1.560827 0.897283 2.423844 0.000506 -0.010565 -0.004214
Al 1.559463 0.905356 7.457896 -0.000140 -0.009986 -0.003637
Al 1.555022 0.881938 -2.714645 -0.000051 -0.010030 -0.002270
Al -0.004777 3.607065 2.413741 0.000074 -0.001308 -0.001927
Al -0.006769 3.611813 7.459136 -0.001594 -0.000434 -0.009076
Al -0.014616 3.583973 -2.704686 -0.001414 -0.000672 0.000865
Al 3.166497 -1.865766 2.425310 -0.001585 0.002178 -0.003678
Al 3.165851 -1.855229 7.454763 -0.001592 -0.000069 -0.003045
Al 3.163300 -1.883584 -2.713019 -0.001322 0.000993 -0.000985
Al -4.767350 0.903230 2.415585 0.000702 -0.008980 -0.003073
Al -4.767635 0.906306 7.457110 0.001216 -0.009504 -0.002712
Al -4.774235 0.880999 -2.709095 0.001317 -0.009709 -0.000965
Al -6.327693 3.614695 2.416283 -0.026051 -0.015736 0.010727
Al -6.332051 3.612856 7.455763 -0.001073 0.000425 -0.002565
Al -6.344122 3.584323 -2.709800 0.000057 0.000512 -0.000921
Al -3.164167 -1.858365 2.418301 0.000561 0.000986 -0.003020
Al -3.162163 -1.852512 7.455472 -0.000400 0.000570 -0.002448
Al -3.172100 -1.880210 -2.709814 -0.000659 0.001576 0.000252
Al -1.637147 0.904395 2.420554 0.010787 -0.007204 -0.005112
Al -1.637969 0.910335 7.459203 0.010806 -0.005609 -0.004369
Al -1.646071 0.884061 -2.711664 0.010447 -0.005659 -0.002462
Al -3.199765 3.612604 2.420714 0.006028 0.001460 0.002714
Al -3.206782 3.614759 7.456428 0.009979 0.004191 -0.003542
Al -3.208191 3.587424 -2.709951 0.008528 0.004226 -0.003244
Al -0.042589 -1.864439 2.460125 0.008684 0.005871 -0.006528
Al -0.032141 -1.852804 7.459143 0.009044 0.005208 -0.003803
Ga -0.043519 -1.875083 -2.714074 0.011308 0.005755 -0.006220
Al -0.004461 1.805864 4.940674 -0.008781 -0.005476 -0.002246
Al -0.011994 1.778175 -5.228127 -0.009139 -0.004198 -0.005291
Al -0.010497 1.776150 -0.181298 -0.009078 -0.004294 0.013163
Al 3.169306 -3.666641 4.942126 -0.009839 -0.004827 -0.001235
Ga 3.160176 -3.690476 -5.236648 -0.010978 -0.004752 -0.002018
Al 3.161787 -3.692139 -0.178480 -0.006868 -0.001670 0.012856
Al 1.602036 -0.954581 4.945125 -0.010756 0.005910 -0.004538
Al 1.595972 -0.976284 -5.234869 -0.011524 0.005465 -0.004211
Al 1.591460 -0.978902 -0.213733 -0.007608 0.007073 0.023320
Al 3.126599 1.807601 4.938638 -0.000121 0.000553 -0.001689
Al 3.120509 1.781764 -5.233780 -0.000071 -0.001959 -0.001145
Al 3.117458 1.778240 -0.181641 0.001602 -0.002106 0.015756
Al 6.297720 -3.663263 4.939334 0.001994 -0.001584 -0.000573
Ga 6.291048 -3.688370 -5.236623 0.000115 0.000688 0.000642
Al 6.289331 -3.691563 -0.182202 -0.000502 0.002266 0.016450
Al 4.731513 -0.955866 4.940083 -0.001231 0.009822 -0.002047
Al 4.724433 -0.973501 -5.233561 -0.001304 0.009221 -0.001531
Al 4.726748 -0.981085 -0.178123 -0.000780 0.010232 0.012870
Al -3.202153 1.809763 4.938340 0.001583 0.000170 -0.002036
Al -3.211378 1.784453 -5.233461 0.002044 -0.001120 -0.001681
Al -3.203843 1.779351 -0.184848 0.001457 -0.002277 0.014942
Al -0.029714 -3.657282 4.945273 0.000857 -0.001071 -0.005591
Al -0.037239 -3.687383 -5.234600 0.001686 0.002428 -0.001328
Ga -0.037700 -3.683836 -0.188043 -0.000115 -0.001257 0.029742
Al -1.599075 -0.948844 4.946718 -0.000284 0.010175 -0.003031
Al -1.605680 -0.971405 -5.236343 0.000995 0.009832 -0.003466
Al -1.589124 -0.987129 -0.192697 -0.010030 0.016895 0.020608
N 1.560343 0.906395 4.344007 0.000018 -0.010388 0.001703
N 1.552896 0.882320 -5.831455 0.000008 -0.009494 0.003344
N 1.553710 0.879837 -0.793472 -0.000408 -0.010442 0.002720
N -0.005891 3.610882 4.338573 -0.001801 0.000304 -0.001147
N -0.014150 3.582603 -5.866707 -0.001266 -0.019103 0.000342
N -0.014471 3.584356 -0.782591 -0.001455 -0.000282 0.000267
N 3.167580 -1.861423 4.345155 -0.001536 0.001309 -0.000305
N 3.158914 -1.870407 -5.837048 -0.001203 0.017474 -0.004550
N 3.160019 -1.884525 -0.791481 -0.002867 0.000683 0.001186
N -4.767949 0.905320 4.338011 0.001358 -0.010533 0.001608
N -4.775199 0.882506 -5.831467 0.001135 -0.009665 0.003117
N -4.773365 0.879238 -0.785747 0.001060 -0.008901 0.002246
N -6.332497 3.615739 4.339460 -0.004098 -0.001909 0.005094
N -6.332322 3.585145 -5.836830 0.014184 -0.008763 -0.004381
N -6.350284 3.581261 -0.790571 -0.013019 -0.006803 -0.003655
N -3.163151 -1.856441 4.340869 -0.000680 0.001755 -0.000166
N -3.169935 -1.868378 -5.837500 -0.000987 0.017756 -0.004298
N -3.165702 -1.883282 -0.786873 0.000027 0.001105 0.000395
N -1.637918 0.909588 4.341766 0.010500 -0.006057 0.003472
N -1.645728 0.887409 -5.831591 0.010629 -0.005486 0.005511
N -1.640087 0.877961 -0.790338 0.010527 -0.005489 0.004580
N -3.202997 3.617728 4.342016 0.012082 0.003272 0.004398
N -3.221659 3.587472 -5.836450 -0.003171 -0.003272 -0.001542
N -3.201267 3.585261 -0.791718 0.021362 -0.002025 0.000902
N -0.036348 -1.845368 4.360846 0.009872 0.005468 0.005517
N -0.039423 -1.876064 -5.830686 0.008786 0.004715 0.003241
N -0.049698 -1.860026 -0.783497 0.016540 0.014802 0.015358
N -0.002530 1.797613 1.810116 -0.009222 -0.005272 -0.011404
N -0.004885 1.805869 6.859937 -0.008905 -0.005876 0.001637
N -0.011987 1.778799 -3.309733 -0.008734 -0.004167 0.001596
N 3.170092 -3.669664 1.809964 -0.011946 -0.004984 -0.011785
N 3.167343 -3.665618 6.860772 -0.009492 -0.003589 0.002156
N 3.163052 -3.692879 -3.302934 -0.009579 -0.004094 0.020324
N 1.596874 -0.974466 1.856169 -0.012786 0.005323 -0.020653
N 1.601581 -0.954984 6.861119 -0.010648 0.005994 0.005256
N 1.604811 -0.975396 -3.316195 0.001518 0.012279 0.000879
N 3.127881 1.804101 1.809959 -0.001842 -0.003727 -0.014032
N 3.126595 1.807274 6.857848 0.000610 -0.001984 0.001425
N 3.119306 1.782208 -3.312510 0.000853 -0.001299 0.000376
N 6.301378 -3.665044 1.810905 -0.002563 -0.001732 -0.013955
N 6.298418 -3.662652 6.859386 0.000436 0.000432 0.000643
N 6.287756 -3.690103 -3.302179 0.000454 -0.000146 0.018517
N 4.729702 -0.958878 1.809650 -0.001530 0.008558 -0.010421
N 4.731754 -0.953177 6.857334 -0.001115 0.010130 0.002759
N 4.725192 -0.979467 -3.311231 -0.001189 0.009989 0.002047
N -3.200459 1.805509 1.811813 0.002126 -0.001051 -0.015088
N -3.202713 1.809330 6.857768 0.001545 -0.001534 0.000727
N -3.208529 1.784202 -3.311363 0.001272 -0.000845 0.000286
N -0.091888 -3.706911 1.972276 0.037721 0.022285 -0.040177
N -0.029944 -3.661204 6.860024 0.001521 0.000709 0.001545
N -0.037694 -3.696904 -3.313600 0.001698 -0.016164 -0.004712
N -1.596089 -0.961732 1.823890 0.000928 0.009869 -0.014642
N -1.597162 -0.949825 6.861831 0.000033 0.010179 0.003227
N -1.615403 -0.970793 -3.319029 -0.014245 0.018060 -0.002927
