108
Energy=-8.944176e+05 Lattice="9.465010e+00 0.000000e+00 0.000000e+00 -4.737183e+00 8.194174e+00 0.000000e+00 -9.103112e-03 7.503690e-03 1.527783e+01" Stress="3.251289e-03 3.665055e-03 -1.675328e-03 3.655603e-03 9.161758e-03 1.382990e-03 -1.688192e-03 1.382092e-03 9.396585e-03" Properties=species:S:1:pos:R:3:forces:R:3 Config_type=AlGaN_super3_10_2_3.xyz
Al 1.547203e+00 8.897451e-01 2.415555e+00 2.229244e-03 -1.026607e-02 -8.283299e-03
Al 1.550677e+00 8.890813e-01 7.493584e+00 3.040944e-03 -6.795903e-03 -1.288129e-02
Al 1.562521e+00 8.560381e-01 -2.708597e+00 5.883206e-03 8.745276e-03 1.608958e-02
Al -4.687022e-02 3.608174e+00 2.395274e+00 7.838766e-03 4.278669e-03 4.638646e-03
Al -2.362063e-02 3.618177e+00 7.480277e+00 -2.311391e-04 3.436105e-04 8.648079e-04
Al -3.228073e-02 3.588663e+00 -2.712008e+00 4.284426e-03 7.597409e-03 1.086071e-02
Al 3.133148e+00 -1.851017e+00 2.404892e+00 4.257001e-03 -5.988106e-04 -1.471233e-03
Al 3.137373e+00 -1.848843e+00 7.494588e+00 9.213080e-03 -8.673202e-03 2.315285e-04
Al 3.137345e+00 -1.868894e+00 -2.722811e+00 7.357352e-03 -3.374471e-03 1.273716e-02
Al -4.778187e+00 8.968405e-01 2.389522e+00 3.241758e-03 -3.441680e-03 -4.226407e-04
Al -4.775491e+00 8.815575e-01 7.498384e+00 8.182818e-04 -7.329902e-04 9.686443e-04
Al -4.778135e+00 8.840772e-01 -2.714554e+00 2.762195e-03 -3.903468e-03 8.426111e-03
Al -6.345433e+00 3.619174e+00 2.399873e+00 2.196916e-02 -1.635617e-02 6.490957e-03
Al -6.343432e+00 3.612509e+00 7.496503e+00 -1.187747e-02 -6.129924e-03 3.898946e-03
Al -6.331647e+00 3.587091e+00 -2.710903e+00 -1.221518e-03 1.857981e-03 8.507174e-03
Al -3.158973e+00 -1.844218e+00 2.435526e+00 -1.244124e-02 -6.339088e-03 -4.865196e-04
Al -3.188451e+00 -1.850506e+00 7.495625e+00 5.496576e-04 -2.588235e-03 6.845969e-04
Ga -3.175436e+00 -1.869751e+00 -2.710103e+00 -3.199615e-03 -2.876455e-03 5.850018e-03
Al -1.622237e+00 9.048838e-01 2.420373e+00 -1.270587e-03 -1.456161e-02 -1.112588e-02
Al -1.633184e+00 8.953530e-01 7.480365e+00 5.337290e-03 1.618564e-04 1.331318e-03
Ga -1.610208e+00 9.018632e-01 -2.660447e+00 2.250029e-03 -2.505065e-03 2.008127e-03
Al -3.210623e+00 3.631507e+00 2.395129e+00 3.313178e-02 -2.215368e-02 9.232537e-03
Ga -3.209188e+00 3.605893e+00 7.491312e+00 8.264511e-03 1.266383e-03 3.138912e-03
Al -3.195032e+00 3.614916e+00 -2.707553e+00 4.351108e-03 3.982621e-04 9.600059e-03
Ga -4.138162e-03 -1.943378e+00 2.322858e+00 2.518419e-03 1.191931e-02 8.132571e-03
Ga -2.721810e-02 -1.860015e+00 7.464289e+00 4.690430e-03 2.548594e-03 2.012949e-03
Al -1.394493e-02 -1.868547e+00 -2.695777e+00 2.093797e-03 -3.225627e-03 6.310531e-03
Al -2.785378e-02 1.795733e+00 4.962602e+00 -1.998386e-03 3.661493e-03 -1.480974e-03
Ga -7.978893e-03 1.795414e+00 -5.255611e+00 -6.486143e-03 -1.621970e-03 4.225707e-03
Al -4.276788e-02 1.755734e+00 -1.110205e-01 9.902748e-03 4.430751e-03 -1.487924e-02
Al 3.134410e+00 -3.677214e+00 4.952609e+00 -3.385781e-03 1.445315e-03 -1.256342e-03
Al 3.152228e+00 -3.687179e+00 -5.251499e+00 -4.341117e-03 -1.220582e-03 3.883096e-03
Al 3.136798e+00 -3.699247e+00 -1.169607e-01 -5.068264e-03 4.637917e-03 -2.095793e-02
Al 1.563086e+00 -9.309372e-01 4.988817e+00 -1.300413e-03 -6.542363e-03 -3.476316e-02
Ga 1.600083e+00 -9.632737e-01 -5.232595e+00 -6.048354e-03 2.373895e-03 3.959387e-03
Al 1.576786e+00 -9.665054e-01 -1.980744e-01 -4.562177e-04 3.921359e-03 8.394413e-04
Al 3.114149e+00 1.801398e+00 4.958551e+00 2.125256e-03 1.279183e-03 6.014810e-04
Al 3.136016e+00 1.786799e+00 -5.257952e+00 3.610351e-03 2.101702e-03 4.340978e-03
Al 3.134486e+00 1.768208e+00 -1.138399e-01 -2.994881e-03 5.304646e-04 -1.984474e-02
Al 6.292436e+00 -3.672561e+00 4.959881e+00 -5.236075e-04 -3.620321e-04 -3.672304e-03
Al 6.289783e+00 -3.686588e+00 -5.259607e+00 2.084236e-03 5.837294e-04 5.099468e-03
Ga 6.289024e+00 -3.701442e+00 -1.091882e-01 2.262769e-03 6.195354e-04 -3.389948e-03
Ga 4.711850e+00 -9.439829e-01 4.963771e+00 -2.981027e-03 2.405726e-03 -3.095544e-03
Al 4.720977e+00 -9.547486e-01 -5.261563e+00 3.927598e-04 4.785324e-03 3.721653e-03
Al 4.720244e+00 -9.506157e-01 -1.566900e-01 -5.455848e-03 1.300307e-03 5.344569e-03
Al -3.194102e+00 1.798768e+00 4.946884e+00 -4.006515e-03 1.899369e-03 -1.848804e-04
Al -3.189740e+00 1.789059e+00 -5.244524e+00 -5.635372e-03 1.807439e-03 3.769110e-03
Al -3.171884e+00 1.779754e+00 -1.244814e-01 -1.441387e-02 8.707624e-03 -8.808208e-03
Al -2.722903e-02 -3.712807e+00 4.995316e+00 -1.688314e-03 1.412235e-02 -2.282162e-02
Al -2.303473e-02 -3.685327e+00 -5.239030e+00 -1.121568e-03 -4.441010e-03 5.579375e-03
Al -1.256056e-02 -3.686915e+00 -1.145436e-01 8.941387e-04 -5.763442e-03 -4.280992e-02
Al -1.601062e+00 -9.209814e-01 4.969014e+00 8.449147e-03 -7.995155e-03 -1.146761e-02
Ga -1.595257e+00 -9.522879e-01 -5.253178e+00 -2.618708e-03 4.667698e-03 2.859412e-03
Al -1.598041e+00 -9.589952e-01 -1.655445e-01 -1.320888e-03 -1.150233e-03 3.094280e-03
N 1.542568e+00 8.969224e-01 4.365045e+00 2.071010e-04 -4.455126e-03 -6.552068e-03
N 1.587388e+00 8.867099e-01 -5.900303e+00 4.309828e-03 -2.812417e-03 2.023700e-03
N 1.547259e+00 8.664016e-01 -7.610507e-01 -1.394378e-04 6.755211e-04 -7.359798e-04
N -2.972398e-02 3.616497e+00 4.348230e+00 -8.836186e-04 -2.395086e-03 -2.918349e-03
N -1.849120e-02 3.637115e+00 -5.872951e+00 -3.122563e-05 4.880032e-03 -5.409732e-03
N -5.574339e-02 3.570295e+00 -7.617710e-01 -3.786236e-03 -2.862536e-03 3.149044e-04
N 3.104621e+00 -1.870616e+00 4.348068e+00 -2.782234e-03 -1.375190e-03 -1.053588e-02
N 3.176089e+00 -1.885119e+00 -5.860425e+00 3.734574e-03 -2.639082e-03 -6.071597e-03
N 3.146286e+00 -1.875233e+00 -7.742682e-01 4.417160e-03 -2.247844e-03 -3.214373e-03
N -4.778022e+00 9.234290e-01 4.336075e+00 1.468259e-03 3.922657e-03 -5.872766e-03
N -4.762789e+00 8.778679e-01 -5.854724e+00 1.462404e-03 -1.869662e-03 -8.397086e-04
N -4.760279e+00 8.714563e-01 -7.581172e-01 2.408784e-03 -1.697189e-03 -2.030249e-03
N -6.344054e+00 3.611278e+00 4.351649e+00 3.933140e-03 -6.755929e-04 -4.714084e-03
N -6.333461e+00 3.605588e+00 -5.854041e+00 6.890793e-04 1.480403e-04 -1.727950e-03
N -6.307232e+00 3.576438e+00 -7.605426e-01 4.530338e-03 -1.050890e-03 -5.673401e-03
N -3.144672e+00 -1.859996e+00 4.358755e+00 6.522022e-03 -1.328618e-03 -2.570198e-03
N -3.195591e+00 -1.878219e+00 -5.860511e+00 -4.050252e-03 -3.494782e-03 -4.759101e-03
N -3.174283e+00 -1.842637e+00 -7.387061e-01 -1.729282e-03 4.074837e-03 8.845572e-04
N -1.625274e+00 9.059510e-01 4.361013e+00 5.906089e-03 -5.739032e-03 -6.500945e-03
N -1.654292e+00 9.094193e-01 -5.881735e+00 5.355563e-03 -2.090162e-03 -3.907209e-03
N -1.626829e+00 8.860320e-01 -6.694919e-01 7.526252e-03 -9.412464e-03 -6.607565e-03
N -3.195364e+00 3.615097e+00 4.349659e+00 3.303620e-03 -1.268253e-03 -4.192710e-03
N -3.188278e+00 3.610431e+00 -5.817127e+00 2.977829e-03 5.463397e-04 4.134943e-03
N -3.184412e+00 3.604863e+00 -7.546016e-01 4.411080e-03 -2.009539e-03 -8.048836e-03
N 1.858074e-02 -1.859337e+00 4.307904e+00 -1.297521e-02 -2.370560e-03 2.167813e-02
N -8.334669e-03 -1.896789e+00 -5.845759e+00 3.597828e-03 -1.729291e-03 -2.525366e-03
N -2.537515e-02 -1.867563e+00 -7.658152e-01 8.020504e-04 -8.926327e-04 8.357235e-04
N -2.837508e-02 1.790375e+00 1.770198e+00 -2.341109e-03 -2.708483e-03 1.943294e-02
N -2.859373e-02 1.793640e+00 6.892283e+00 -1.662362e-03 -3.715045e-03 -1.595457e-03
N 3.419044e-02 1.797645e+00 -3.273312e+00 -6.067752e-03 -2.699564e-03 -5.326241e-03
N 3.121444e+00 -3.665889e+00 1.753037e+00 6.238504e-03 -4.085569e-03 2.225842e-02
N 3.157872e+00 -3.659248e+00 6.875478e+00 1.475421e-03 6.379626e-04 -1.710916e-03
N 3.143849e+00 -3.688647e+00 -3.321547e+00 -3.254708e-03 -4.801636e-04 -2.873623e-03
N 1.610384e+00 -9.665256e-01 1.712055e+00 -5.212581e-03 1.468190e-02 1.317743e-02
N 1.636427e+00 -9.902161e-01 6.803669e+00 -1.588670e-02 2.335841e-02 3.355143e-02
N 1.577126e+00 -9.437849e-01 -3.248567e+00 -6.407601e-03 -5.656965e-03 -4.719882e-03
N 3.116366e+00 1.804095e+00 1.753851e+00 -2.832586e-03 -4.318518e-03 2.249421e-02
N 3.125673e+00 1.799401e+00 6.893182e+00 -1.864548e-03 -2.470622e-03 -2.411795e-03
N 3.128739e+00 1.779924e+00 -3.320982e+00 -2.218868e-03 -1.447573e-03 -5.454998e-03
N 6.361297e+00 -3.678601e+00 1.896028e+00 -3.406563e-02 4.067432e-03 -8.906040e-03
N 6.289111e+00 -3.669783e+00 6.889211e+00 -4.622693e-04 3.670473e-04 -1.256132e-03
N 6.289395e+00 -3.722895e+00 -3.327371e+00 -7.597346e-05 -5.650225e-03 -5.018170e-03
N 4.720674e+00 -9.463175e-01 1.818639e+00 -5.909827e-04 8.860948e-04 -3.945529e-03
N 4.710314e+00 -9.416010e-01 6.931500e+00 -1.733703e-04 2.677139e-03 5.941080e-03
N 4.692854e+00 -9.367354e-01 -3.334011e+00 -7.081845e-03 5.520283e-03 -5.007630e-03
N -3.199839e+00 1.808323e+00 1.757347e+00 6.356071e-03 -7.017702e-03 2.200727e-02
N -3.200145e+00 1.762929e+00 6.874313e+00 -1.662848e-03 -6.319990e-03 -6.363581e-03
N -3.214953e+00 1.805083e+00 -3.317020e+00 -3.099338e-03 1.284941e-03 -3.887811e-03
N 7.051138e-02 -3.829698e+00 1.678468e+00 -4.526884e-02 2.513309e-02 3.499161e-02
N -9.364204e-02 -3.713686e+00 6.857335e+00 6.717382e-03 4.287770e-03 2.034546e-03
N -2.406018e-02 -3.680645e+00 -3.311448e+00 -1.314322e-03 2.049579e-03 -2.717651e-03
N -1.652454e+00 -1.046253e+00 1.738308e+00 1.457756e-02 3.442686e-02 8.763188e-03
N -1.629678e+00 -9.198598e-01 6.884280e+00 -3.992183e-03 4.125225e-03 -4.070893e-03
N -1.561471e+00 -9.598903e-01 -3.291183e+00 5.268969e-03 2.455909e-03 9.197954e-04
