108
Energy=-1626826.698133 Lattice="9.518585 0.000000 0.000000 -4.765285 8.240971 0.000000 -0.000905 -0.000279 15.370962" Stress="-0.000045 -0.000000 -0.000000 -0.000000 -0.000046 0.000001 -0.000000 0.000001 -0.000051" Properties=species:S:1:pos:R:3:forces:R:3
Al 1.565495 0.871611 2.422978 0.000014 -0.001197 -0.001045
Al 1.573202 0.884088 7.528865 0.000217 -0.001193 0.000757
Al 1.567680 0.869726 -2.713053 0.000156 0.000372 0.000584
Al -0.025683 3.620636 2.442593 -0.001724 0.000361 -0.001750
Al -0.021353 3.638494 7.491370 0.004247 -0.001623 0.007649
Al -0.006158 3.619228 -2.707085 0.000106 0.000073 -0.000099
Al 3.151921 -1.863142 2.431947 -0.000120 -0.001566 -0.003576
Al 3.156726 -1.883177 7.516224 0.002072 0.002530 -0.001925
Ga 3.145421 -1.865275 -2.697090 -0.000208 0.000166 0.000395
Al -4.787429 0.878428 2.439465 0.000522 -0.000507 -0.000366
Ga -4.813685 0.867035 7.516165 0.000201 0.000522 0.000322
Al -4.798404 0.883055 -2.707883 0.000164 0.000304 0.000518
Ga -6.371760 3.617971 2.430079 0.000168 -0.000081 0.000078
Al -6.398472 3.622800 7.520267 0.002761 0.000475 -0.001464
Ga -6.387185 3.616579 -2.712034 -0.000342 0.000171 0.000413
Ga -3.209011 -1.876848 2.438082 -0.000393 0.000258 -0.000623
Al -3.204715 -1.890306 7.521956 0.004503 -0.000246 0.002315
Ga -3.185667 -1.884655 -2.720206 -0.000135 -0.000144 -0.000049
Al -1.617146 0.896464 2.408043 0.000302 0.000360 -0.000244
Ga -1.597953 0.867932 7.549583 0.000215 -0.000762 0.000934
Ga -1.609630 0.876636 -2.706743 0.000505 -0.000319 0.000051
Al -3.196651 3.626299 2.414428 -0.000547 -0.001621 0.001548
Ga -3.192001 3.651328 7.512818 -0.001417 -0.000613 0.000245
Ga -3.203236 3.623846 -2.683994 -0.000022 -0.000428 0.000355
Ga 0.000735 -1.869021 2.420957 0.000418 -0.000015 -0.000022
Al -0.024257 -1.871820 7.523728 -0.000049 -0.000285 0.000393
Al -0.014209 -1.857923 -2.700083 -0.000264 -0.000298 0.000745
Ga -0.011821 1.804112 4.970328 -0.000271 -0.000213 -0.000186
Ga -0.002087 1.801333 -5.273786 -0.000265 0.001059 -0.000144
Ga -0.014859 1.794787 -0.133694 0.000085 0.000369 0.000801
Al 3.170842 -3.686930 4.953641 -0.003809 -0.001795 -0.001907
Ga 3.177789 -3.703866 -5.277041 0.000505 -0.000407 0.000412
Ga 3.155266 -3.711544 -0.114638 0.000242 0.000267 0.000450
Ga 1.588188 -0.960924 4.988117 -0.000709 0.000346 0.000585
Ga 1.562574 -0.949642 -5.294805 -0.000818 0.000396 0.000492
Al 1.562039 -0.958251 -0.137181 -0.000408 0.000119 0.000039
Al 3.144883 1.796722 4.969634 -0.000056 0.000339 -0.001095
Al 3.136024 1.799598 -5.276940 -0.000056 -0.000184 0.000846
Ga 3.150469 1.790286 -0.134639 0.000209 -0.000075 -0.000516
Al 6.326322 -3.703862 4.997689 0.000056 -0.001100 0.000288
Al 6.332618 -3.707657 -5.311373 -0.001197 -0.000140 -0.000263
Al 6.326105 -3.710239 -0.133548 0.000139 -0.000119 -0.000120
Al 4.728264 -0.970158 4.975209 0.000763 0.002173 -0.000047
Ga 4.750699 -0.958033 -5.286432 0.000290 -0.000179 0.000444
Ga 4.737872 -0.945093 -0.131722 0.000114 0.000177 0.001238
Ga -3.214499 1.803382 4.951020 0.000212 0.000455 0.000069
Ga -3.213148 1.788357 -5.270704 0.000278 -0.000087 0.000460
Al -3.217082 1.797939 -0.114369 0.000094 -0.000286 -0.000039
Al -0.026430 -3.707706 4.991879 0.000648 -0.000905 -0.000869
Ga -0.047214 -3.690923 -5.287050 0.000254 0.000006 0.000601
Al -0.019679 -3.696007 -0.142469 0.000001 0.000122 -0.000886
Ga -1.617436 -0.965241 4.985892 -0.000092 0.000464 0.000247
Al -1.604524 -0.973364 -5.284344 -0.000584 -0.000445 0.000212
Ga -1.596920 -0.964155 -0.136276 -0.000180 -0.000192 -0.000278
N 1.600139 0.889786 4.327201 0.001154 0.000797 -0.000068
N 1.606985 0.901784 -5.932445 0.000478 -0.000166 -0.001034
N 1.563586 0.826283 -0.796619 0.000441 0.000182 0.000224
N -0.014692 3.672639 4.350697 0.000503 0.000415 0.000743
N 0.015899 3.645709 -5.949717 -0.000290 0.000151 -0.004128
N 0.019052 3.646293 -0.794868 -0.000114 0.000221 0.000263
N 3.191581 -1.888228 4.335153 0.000236 -0.000585 0.002883
N 3.158647 -1.874667 -5.953842 -0.000545 -0.000136 0.000668
N 3.113249 -1.853877 -0.731150 0.000019 0.000018 0.000447
N -4.830251 0.850549 4.353624 -0.000458 -0.001314 0.000660
N -4.836311 0.899719 -5.889584 0.000243 0.000138 -0.000595
N -4.746278 0.903430 -0.795475 0.000063 0.000181 0.000147
N -6.373362 3.630482 4.415356 -0.000265 -0.000511 -0.000040
N -6.411835 3.592216 -5.924044 -0.000062 0.000134 -0.000595
N -6.374506 3.669433 -0.728196 -0.000149 -0.000085 0.000181
N -3.236688 -1.904621 4.406882 -0.000054 0.000897 -0.000396
N -3.150826 -1.897805 -5.916278 -0.000151 0.000483 -0.001788
N -3.192322 -1.922031 -0.745716 -0.000066 0.000084 0.000228
N -1.612228 0.879644 4.311313 0.000407 -0.000636 -0.000385
N -1.609362 0.832913 -5.851385 0.000419 -0.000140 -0.000416
N -1.658208 0.905307 -0.730182 0.000349 -0.000285 0.000351
N -3.207705 3.679152 4.340875 0.002087 0.001515 0.000463
N -3.198541 3.634219 -5.894466 -0.000002 -0.000059 -0.000771
N -3.237355 3.599302 -0.707881 -0.000221 -0.000193 0.000290
N -0.014322 -1.915590 4.386318 -0.000097 -0.000369 -0.000633
N -0.058945 -1.844906 -5.941190 0.000326 -0.000357 -0.000852
N 0.023365 -1.890694 -0.775298 0.000016 -0.000227 0.000051
N -0.017984 1.794698 1.859808 0.000136 0.000671 -0.000775
N 0.017713 1.812564 6.947229 -0.000545 0.000420 -0.001083
N 0.021934 1.814729 -3.291886 0.000022 0.000075 0.000495
N 3.152495 -3.708788 1.869741 0.003022 0.002188 0.000264
N 3.204450 -3.681408 6.876310 -0.003087 0.001833 -0.003109
N 3.197924 -3.730390 -3.303430 -0.000066 0.000353 0.000190
N 1.609003 -0.931657 1.781364 0.000130 0.001183 0.001015
N 1.570715 -0.956156 6.968283 0.000122 0.000628 0.000638
N 1.526549 -0.934589 -3.312540 -0.000237 0.000113 -0.000748
N 3.149383 1.744835 1.837729 -0.000074 -0.000091 0.000331
N 3.101646 1.815361 6.878065 -0.000218 0.000843 0.000320
N 3.142709 1.746593 -3.348312 0.000094 -0.000236 -0.000216
N 6.283749 -3.730924 1.773120 -0.000604 0.000040 0.000404
N 6.321331 -3.702243 6.911799 0.000639 -0.000220 0.000026
N 6.284337 -3.729156 -3.396108 0.000258 -0.000170 0.000009
N 4.702088 -0.924519 1.846509 -0.001280 -0.000520 -0.001169
N 4.748776 -1.004648 6.896707 -0.005053 -0.000363 -0.001078
N 4.740680 -0.909927 -3.312896 -0.000348 -0.000374 -0.000154
N -3.210145 1.792609 1.816211 -0.000144 0.000689 0.000538
N -3.198706 1.792384 6.912698 0.000325 0.000119 -0.000544
N -3.244269 1.772920 -3.308124 0.000162 0.000043 -0.000225
N 0.015160 -3.722434 1.764164 -0.000019 -0.000116 0.000591
N -0.062147 -3.677718 6.901944 -0.002339 -0.001163 0.001523
N -0.026141 -3.650952 -3.310539 0.000276 0.000023 -0.000171
N -1.606544 -0.912184 1.830584 -0.000263 -0.000179 0.000196
N -1.609152 -0.998817 6.952013 -0.001885 -0.000702 -0.000235
N -1.562089 -0.981708 -3.362709 -0.000093 -0.000098 0.000091
