108
Energy=-6.197619e+05 Lattice="9.476278e+00 0.000000e+00 0.000000e+00 -4.738139e+00 8.206697e+00 0.000000e+00 9.377101e-16 1.624162e-15 1.531397e+01" Stress="1.498190e-02 4.988885e-03 2.579233e-05 4.971630e-03 2.013639e-02 1.853074e-05 2.561093e-05 1.764412e-05 2.834966e-02" Properties=species:S:1:pos:R:3:forces:R:3 Config_type=AlGaN_super3_4_0_0.xyz
Al 1.564294e+00 9.031460e-01 2.504900e+00 -1.066042e-03 -1.422211e-02 -1.177377e-02
Al 1.564294e+00 9.031460e-01 7.521855e+00 -1.263779e-03 -1.420304e-02 -6.471554e-03
Al 1.564294e+00 9.031460e-01 -2.775158e+00 -1.277789e-03 -1.399585e-02 -6.217915e-03
Al 2.938992e-08 3.612582e+00 2.504900e+00 -2.733721e-03 -1.167014e-03 -1.060694e-02
Al 2.938992e-08 3.612582e+00 7.521855e+00 -2.951603e-03 -1.113452e-03 -5.234064e-03
Al 2.938992e-08 3.612582e+00 -2.775158e+00 -2.769046e-03 -1.387801e-03 -3.542923e-03
Al 3.173845e+00 -1.884678e+00 2.504900e+00 -2.998700e-03 1.716208e-03 -1.198065e-02
Al 3.173845e+00 -1.884678e+00 7.521855e+00 -3.051758e-03 1.545472e-03 -6.085055e-03
Al 3.173845e+00 -1.884678e+00 -2.775158e+00 -2.875554e-03 1.627757e-03 -5.020616e-03
Al -4.783396e+00 9.031460e-01 2.504900e+00 1.339842e-03 -1.303613e-02 -1.052990e-02
Al -4.783396e+00 9.031460e-01 7.521855e+00 1.368711e-03 -1.297845e-02 -5.386681e-03
Al -4.783396e+00 9.031460e-01 -2.775158e+00 1.408139e-03 -1.285771e-02 -4.966652e-03
Al -6.347690e+00 3.612582e+00 2.504900e+00 -3.896778e-04 -7.817085e-05 -9.346950e-03
Al -6.347690e+00 3.612582e+00 7.521855e+00 -2.335643e-04 1.436909e-04 -3.851022e-03
Al -6.347690e+00 3.612582e+00 -2.775158e+00 -2.483453e-04 -3.530458e-05 -3.203218e-03
Al -3.173845e+00 -1.884678e+00 2.504900e+00 -3.787648e-04 2.931602e-03 -1.070193e-02
Al -3.173845e+00 -1.884678e+00 7.521855e+00 -3.194421e-04 2.982712e-03 -4.997451e-03
Al -3.173845e+00 -1.884678e+00 -2.775158e+00 -6.414255e-04 2.906223e-03 -3.968894e-03
Al -1.654808e+00 9.031460e-01 2.504900e+00 1.360058e-02 -7.874195e-03 -1.169846e-02
Al -1.654808e+00 9.031460e-01 7.521855e+00 1.359287e-02 -7.815468e-03 -7.229511e-03
Al -1.654808e+00 9.031460e-01 -2.775158e+00 1.357014e-02 -7.522174e-03 -6.950987e-03
Al -3.219102e+00 3.612582e+00 2.504900e+00 1.215822e-02 5.180407e-03 -1.042918e-02
Al -3.219102e+00 3.612582e+00 7.521855e+00 1.214828e-02 5.422467e-03 -5.489945e-03
Al -3.219102e+00 3.612582e+00 -2.775158e+00 1.204723e-02 5.229695e-03 -5.052410e-03
Al -4.525702e-02 -1.884678e+00 2.504900e+00 1.175855e-02 8.288392e-03 -1.179806e-02
Al -4.525702e-02 -1.884678e+00 7.521855e+00 1.170095e-02 8.166395e-03 -6.200888e-03
Ga -4.525702e-02 -1.884678e+00 -2.775158e+00 1.479488e-02 1.048600e-02 -7.350563e-03
Al 1.469567e-08 1.806291e+00 5.013378e+00 -1.175340e-02 -8.174254e-03 -6.518674e-03
Al 1.469567e-08 1.806291e+00 -5.283635e+00 -1.183502e-02 -8.739388e-03 -6.164162e-03
Al 1.469567e-08 1.806291e+00 -2.666800e-01 -1.177656e-02 -8.309588e-03 3.296875e-02
Al 3.173845e+00 -3.690969e+00 5.013378e+00 -1.191733e-02 -5.363198e-03 -5.122418e-03
Ga 3.173845e+00 -3.690969e+00 -5.283635e+00 -1.549183e-02 -7.895219e-03 -5.831650e-03
Al 3.173845e+00 -3.690969e+00 -2.666800e-01 -1.194586e-02 -5.211184e-03 3.423675e-02
Al 1.609551e+00 -9.815320e-01 5.013378e+00 -1.355052e-02 7.881767e-03 -7.140270e-03
Al 1.609551e+00 -9.815320e-01 -5.283635e+00 -1.408347e-02 7.835742e-03 -7.332631e-03
Al 1.609551e+00 -9.815320e-01 -2.666800e-01 -1.361489e-02 7.884892e-03 3.244653e-02
Al 3.128588e+00 1.806291e+00 5.013378e+00 3.745637e-04 -3.101744e-03 -4.794866e-03
Al 3.128588e+00 1.806291e+00 -5.283635e+00 3.640759e-04 -3.380806e-03 -4.434199e-03
Al 3.128588e+00 1.806291e+00 -2.666800e-01 4.278367e-04 -3.360737e-03 3.496601e-02
Al 6.302433e+00 -3.690969e+00 5.013378e+00 1.432042e-04 -9.204620e-05 -3.456261e-03
Ga 6.302433e+00 -3.690969e+00 -5.283635e+00 6.337460e-04 1.279444e-05 -2.428678e-03
Al 6.302433e+00 -3.690969e+00 -2.666800e-01 1.038301e-04 4.476077e-05 3.620152e-02
Al 4.738139e+00 -9.815320e-01 5.013378e+00 -1.322702e-03 1.305776e-02 -5.345954e-03
Al 4.738139e+00 -9.815320e-01 -5.283635e+00 -1.315942e-03 1.329596e-02 -5.133290e-03
Al 4.738139e+00 -9.815320e-01 -2.666800e-01 -1.401605e-03 1.311326e-02 3.397767e-02
Al -3.219102e+00 1.806291e+00 5.013378e+00 3.032972e-03 -1.793277e-03 -5.878308e-03
Al -3.219102e+00 1.806291e+00 -5.283635e+00 3.180393e-03 -1.918325e-03 -5.488259e-03
Al -3.219102e+00 1.806291e+00 -2.666800e-01 3.046008e-03 -2.002193e-03 3.392500e-02
Al -4.525703e-02 -3.690969e+00 5.013378e+00 2.834491e-03 1.196162e-03 -4.438930e-03
Al -4.525703e-02 -3.690969e+00 -5.283635e+00 2.971287e-03 1.784538e-03 -4.508910e-03
Ga -4.525703e-02 -3.690969e+00 -2.666800e-01 2.936425e-03 1.086596e-03 4.732674e-02
Al -1.609551e+00 -9.815320e-01 5.013378e+00 1.167662e-03 1.430201e-02 -6.390222e-03
Al -1.609551e+00 -9.815320e-01 -5.283635e+00 1.675370e-03 1.430838e-02 -6.638492e-03
Al -1.609551e+00 -9.815320e-01 -2.666800e-01 9.794718e-04 1.440898e-02 3.366123e-02
N 1.564294e+00 9.031460e-01 4.418497e+00 -6.453806e-04 -1.366998e-02 6.321991e-03
N 1.564294e+00 9.031460e-01 -5.878516e+00 -5.165211e-04 -1.317133e-02 5.928784e-03
N 1.564294e+00 9.031460e-01 -8.615610e-01 -6.890276e-04 -1.352215e-02 6.872266e-03
N 2.938992e-08 3.612582e+00 4.418497e+00 -2.026353e-03 -3.362360e-06 3.800601e-03
N 2.938992e-08 3.612582e+00 -5.878516e+00 -2.274601e-03 -2.201180e-02 -1.223215e-02
N 2.938992e-08 3.612582e+00 -8.615610e-01 -1.930823e-03 -3.866527e-05 4.942215e-03
N 3.173845e+00 -1.884678e+00 4.418497e+00 -2.548279e-03 1.557164e-03 3.316269e-03
N 3.173845e+00 -1.884678e+00 -5.878516e+00 -2.300434e-03 2.328164e-02 -4.728239e-03
N 3.173845e+00 -1.884678e+00 -8.615610e-01 -2.692093e-03 1.293489e-03 4.468214e-03
N -4.783396e+00 9.031460e-01 4.418497e+00 8.547267e-04 -1.345697e-02 6.609823e-03
N -4.783396e+00 9.031460e-01 -5.878516e+00 7.909007e-04 -1.327276e-02 6.416981e-03
N -4.783396e+00 9.031460e-01 -8.615610e-01 8.759178e-04 -1.317508e-02 7.381752e-03
N -6.347690e+00 3.612582e+00 4.418497e+00 -3.587402e-04 3.351302e-04 4.186857e-03
N -6.347690e+00 3.612582e+00 -5.878516e+00 1.855664e-02 -1.102638e-02 -4.124291e-03
N -6.347690e+00 3.612582e+00 -8.615610e-01 -1.937984e-02 -1.059560e-02 -1.899032e-03
N -3.173845e+00 -1.884678e+00 4.418497e+00 -1.038830e-03 1.832733e-03 3.795464e-03
N -3.173845e+00 -1.884678e+00 -5.878516e+00 -1.285203e-03 2.375932e-02 -4.368784e-03
N -3.173845e+00 -1.884678e+00 -8.615610e-01 -6.685241e-04 1.560454e-03 4.866631e-03
N -1.654808e+00 9.031460e-01 4.418497e+00 1.350489e-02 -7.888959e-03 9.258582e-03
N -1.654808e+00 9.031460e-01 -5.878516e+00 1.336777e-02 -7.495984e-03 8.769273e-03
N -1.654808e+00 9.031460e-01 -8.615610e-01 1.371268e-02 -7.864288e-03 9.374408e-03
N -3.219102e+00 3.612582e+00 4.418497e+00 1.187453e-02 6.007475e-03 6.562909e-03
N -3.219102e+00 3.612582e+00 -5.878516e+00 -3.587411e-03 -2.807974e-03 3.277473e-05
N -3.219102e+00 3.612582e+00 -8.615610e-01 3.067358e-02 -4.878759e-03 2.289141e-04
N -4.525702e-02 -1.884678e+00 4.418497e+00 1.144689e-02 7.274220e-03 6.282495e-03
N -4.525702e-02 -1.884678e+00 -5.878516e+00 1.138791e-02 7.164675e-03 5.233392e-03
N -4.525702e-02 -1.884678e+00 -8.615610e-01 1.182490e-02 2.906753e-02 2.332542e-02
N 1.469567e-08 1.806291e+00 1.910020e+00 -1.172212e-02 -7.549004e-03 -2.891249e-02
N 1.469567e-08 1.806291e+00 6.926975e+00 -1.143183e-02 -7.512737e-03 5.944752e-03
N 1.469567e-08 1.806291e+00 -3.370038e+00 -1.142935e-02 -7.266026e-03 5.778723e-03
N 3.173845e+00 -3.690969e+00 1.910020e+00 -1.230174e-02 -6.107360e-03 -2.823605e-02
N 3.173845e+00 -3.690969e+00 6.926975e+00 -1.209868e-02 -5.941248e-03 5.493609e-03
N 3.173845e+00 -3.690969e+00 -3.370038e+00 -1.216457e-02 -5.897561e-03 2.974439e-02
N 1.609551e+00 -9.815320e-01 1.910020e+00 -1.391700e-02 8.102588e-03 -2.543432e-02
N 1.609551e+00 -9.815320e-01 6.926975e+00 -1.361375e-02 7.911228e-03 8.825390e-03
N 1.609551e+00 -9.815320e-01 -3.370038e+00 2.201816e-03 1.641298e-02 2.588304e-03
N 3.128588e+00 1.806291e+00 1.910020e+00 1.052612e-03 -1.858764e-03 -3.133050e-02
N 3.128588e+00 1.806291e+00 6.926975e+00 1.004459e-03 -1.779800e-03 3.543625e-03
N 3.128588e+00 1.806291e+00 -3.370038e+00 1.046632e-03 -1.689541e-03 3.181655e-03
N 6.302433e+00 -3.690969e+00 1.910020e+00 4.817024e-04 -3.381908e-04 -3.079108e-02
N 6.302433e+00 -3.690969e+00 6.926975e+00 5.995717e-04 -3.045768e-04 3.325781e-03
N 6.302433e+00 -3.690969e+00 -3.370038e+00 4.572007e-04 -1.396522e-04 2.754953e-02
N 4.738139e+00 -9.815320e-01 1.910020e+00 -9.119885e-04 1.371348e-02 -2.812332e-02
N 4.738139e+00 -9.815320e-01 6.926975e+00 -8.640924e-04 1.354861e-02 6.225201e-03
N 4.738139e+00 -9.815320e-01 -3.370038e+00 -8.533153e-04 1.332881e-02 6.136858e-03
N -3.219102e+00 1.806291e+00 1.910020e+00 2.791147e-03 -1.494231e-03 -3.200380e-02
N -3.219102e+00 1.806291e+00 6.926975e+00 2.520071e-03 -1.493147e-03 3.143325e-03
N -3.219102e+00 1.806291e+00 -3.370038e+00 2.440752e-03 -1.455309e-03 2.775534e-03
N -4.525703e-02 -3.690969e+00 1.910020e+00 2.289372e-03 6.349063e-05 -1.978762e-02
N -4.525703e-02 -3.690969e+00 6.926975e+00 2.007045e-03 8.440888e-06 3.373458e-03
N -4.525703e-02 -3.690969e+00 -3.370038e+00 2.116712e-03 -2.198737e-02 -5.246743e-03
N -1.609551e+00 -9.815320e-01 1.910020e+00 7.992579e-04 1.401819e-02 -2.876104e-02
N -1.609551e+00 -9.815320e-01 6.926975e+00 7.321653e-04 1.369372e-02 5.931434e-03
N -1.609551e+00 -9.815320e-01 -3.370038e+00 -1.831275e-02 2.454740e-02 -2.135956e-03
