108
Energy=-1.947255e+06 Lattice="9.592809e+00 0.000000e+00 0.000000e+00 -4.817815e+00 8.304894e+00 0.000000e+00 -1.235674e-02 -2.206642e-02 1.552946e+01" Stress="3.500777e-03 -9.913356e-04 -6.363352e-04 -9.814920e-04 3.340071e-03 -7.950030e-04 -6.221091e-04 -7.978625e-04 7.052491e-03" Properties=species:S:1:pos:R:3:forces:R:3 Config_type=AlGaN_super3_33_2_5.xyz
Al 1.571199e+00 8.689748e-01 2.422028e+00 1.859910e-03 1.469319e-04 4.660008e-05
Al 1.561731e+00 8.657756e-01 7.623700e+00 7.495077e-04 1.359594e-03 1.742886e-03
Al 1.565792e+00 8.703516e-01 -2.736891e+00 1.420909e-03 9.555070e-04 1.868196e-03
Al -1.692466e-02 3.641319e+00 2.438712e+00 -1.964437e-04 3.070387e-04 -6.004865e-04
Al -2.781344e-02 3.638489e+00 7.624718e+00 6.205831e-04 -4.187245e-04 5.129800e-04
Ga -2.277242e-02 3.650017e+00 -2.731632e+00 2.645733e-04 -1.696730e-04 -3.745781e-04
Al 3.178569e+00 -1.882299e+00 2.414237e+00 4.009822e-04 -3.756666e-04 1.821166e-03
Ga 3.182620e+00 -1.889872e+00 7.631554e+00 2.273331e-05 -7.417572e-04 1.058882e-03
Al 3.186007e+00 -1.859810e+00 -2.748624e+00 5.375003e-04 -2.086833e-04 2.534197e-03
Ga -4.839182e+00 8.722319e-01 2.435552e+00 8.347609e-04 3.119415e-04 -1.848688e-04
Ga -4.828941e+00 8.635184e-01 7.638433e+00 6.589026e-04 1.312797e-03 5.071039e-04
Ga -4.825996e+00 8.699475e-01 -2.750312e+00 8.032065e-04 1.158586e-04 1.393394e-04
Al -6.433739e+00 3.649656e+00 2.435116e+00 1.177566e-03 -3.503940e-04 -1.153812e-04
Ga -6.455170e+00 3.639810e+00 7.619043e+00 4.907368e-04 3.536712e-05 -7.425706e-05
Al -6.434347e+00 3.664058e+00 -2.727211e+00 -1.735405e-04 -1.087165e-03 -1.790691e-04
Ga -3.210790e+00 -1.896912e+00 2.429676e+00 1.051214e-04 8.597548e-05 1.291420e-03
Al -3.224142e+00 -1.897338e+00 7.614008e+00 1.892699e-03 -7.641950e-04 1.320347e-03
Al -3.226449e+00 -1.875316e+00 -2.738657e+00 3.095550e-04 -6.937261e-05 1.029263e-03
Ga -1.609511e+00 8.772934e-01 2.476402e+00 8.476611e-04 -1.099621e-04 -1.029462e-03
Ga -1.637502e+00 8.750530e-01 7.605511e+00 1.396622e-03 -8.828561e-04 4.456408e-04
Al -1.624546e+00 8.864719e-01 -2.754880e+00 -3.082993e-04 4.832808e-04 1.007493e-03
Ga -3.234556e+00 3.664092e+00 2.437221e+00 5.661112e-04 -5.852232e-05 -1.209493e-04
Ga -3.229902e+00 3.633633e+00 7.620597e+00 -6.017880e-05 -3.117561e-04 6.720483e-04
Ga -3.237742e+00 3.659034e+00 -2.725197e+00 8.753180e-04 -1.117898e-03 1.979886e-04
Al -6.793333e-03 -1.882067e+00 2.417073e+00 1.179246e-03 -1.685512e-03 3.791975e-04
Ga -2.540886e-02 -1.873802e+00 7.621594e+00 1.405042e-04 -1.078401e-03 1.342076e-03
Ga -1.075643e-02 -1.865907e+00 -2.724637e+00 1.285460e-03 -2.749610e-04 5.314295e-04
Ga -2.700274e-02 1.788431e+00 5.031840e+00 -1.519189e-04 1.518027e-03 1.206562e-03
Ga -2.279327e-02 1.794607e+00 -5.326595e+00 1.940737e-04 1.855335e-03 9.023401e-04
Ga -3.151584e-02 1.782618e+00 -1.477000e-01 8.612469e-04 1.496400e-03 2.738214e-03
Ga 3.190601e+00 -3.745866e+00 5.017591e+00 -1.371227e-05 1.299265e-03 1.073578e-03
Ga 3.189296e+00 -3.714212e+00 -5.312637e+00 -4.107850e-05 1.709467e-04 8.822238e-05
Ga 3.175114e+00 -3.703134e+00 -1.470849e-01 9.200865e-04 -4.904313e-05 3.368212e-03
Ga 1.575761e+00 -9.689087e-01 4.994891e+00 -4.018948e-04 -3.898822e-04 2.602909e-03
Al 1.600526e+00 -9.450714e-01 -5.312668e+00 -5.609119e-04 -4.678002e-04 1.882451e-03
Al 1.591667e+00 -9.699267e-01 -1.521478e-01 -3.539510e-04 1.035760e-03 3.349735e-03
Ga 3.165872e+00 1.791987e+00 5.018276e+00 -2.054479e-04 7.435318e-04 1.403981e-03
Ga 3.168415e+00 1.794310e+00 -5.305260e+00 -1.472039e-04 6.389233e-04 6.229053e-04
Ga 3.158685e+00 1.801428e+00 -1.733949e-01 -5.087569e-04 7.446499e-04 6.664793e-03
Ga 6.380508e+00 -3.730598e+00 5.025838e+00 -1.112944e-04 -6.618218e-04 1.227182e-03
Ga 6.381743e+00 -3.705604e+00 -5.317859e+00 -2.779443e-04 -4.674237e-05 1.501603e-03
Ga 6.387863e+00 -3.719893e+00 -1.582776e-01 2.673428e-04 -8.354406e-04 5.278020e-03
Ga 4.792198e+00 -9.672514e-01 5.026946e+00 -1.908577e-03 -5.649824e-04 1.737871e-03
Al 4.784976e+00 -9.562062e-01 -5.317947e+00 -3.804684e-04 -1.100861e-03 1.072211e-03
Al 4.758819e+00 -9.697216e-01 -1.700024e-01 2.488771e-04 -1.091139e-03 3.656448e-03
Al -3.228938e+00 1.790322e+00 5.026775e+00 -4.104178e-04 9.265269e-04 5.536385e-04
Al -3.222237e+00 1.805123e+00 -5.307034e+00 -1.579397e-03 9.099817e-04 1.081676e-03
Ga -3.232572e+00 1.801711e+00 -1.693503e-01 1.379663e-04 2.501720e-04 5.270320e-03
Ga -1.898452e-02 -3.727099e+00 5.005523e+00 -2.838819e-04 7.340343e-05 1.716901e-03
Ga -3.289586e-03 -3.720298e+00 -5.310262e+00 -4.351251e-04 5.031918e-04 6.785096e-04
Al -2.120197e-02 -3.717771e+00 -1.445125e-01 -1.791717e-03 -3.229714e-04 3.403267e-03
Al -1.619847e+00 -9.680878e-01 5.025469e+00 1.901252e-04 -1.060923e-03 1.457180e-03
Ga -1.627227e+00 -9.434024e-01 -5.309942e+00 -7.159362e-04 -1.428771e-03 9.449096e-04
Ga -1.621090e+00 -9.582225e-01 -1.769546e-01 -4.265795e-06 -5.131483e-04 4.869382e-03
N 1.566269e+00 8.721228e-01 4.337400e+00 7.750786e-04 6.999942e-04 -1.164518e-03
N 1.574109e+00 8.378928e-01 -5.977629e+00 9.647963e-04 6.552259e-04 -1.793866e-03
N 1.560233e+00 8.271215e-01 -8.083921e-01 1.139912e-03 -5.958231e-04 -1.065788e-03
N -3.056492e-02 3.638008e+00 4.354338e+00 4.007066e-04 -6.012586e-04 -9.659264e-04
N -2.767208e-02 3.656671e+00 -5.981012e+00 -1.694591e-05 -3.931528e-04 -9.834200e-04
N -3.951683e-02 3.646773e+00 -7.634876e-01 5.770186e-05 3.503816e-05 -3.623086e-04
N 3.183692e+00 -1.889875e+00 4.343560e+00 7.865595e-04 -2.312462e-04 -1.382826e-03
N 3.183038e+00 -1.827139e+00 -5.908000e+00 9.085918e-04 1.308787e-04 -3.933027e-04
N 3.172213e+00 -1.833344e+00 -8.033585e-01 5.495745e-04 5.479143e-04 -2.193146e-03
N -4.788794e+00 8.940441e-01 4.418212e+00 7.001309e-04 6.482792e-04 -1.237038e-03
N -4.780302e+00 8.658495e-01 -5.891558e+00 6.310796e-04 7.953574e-04 -8.285252e-04
N -4.831165e+00 8.317068e-01 -7.682265e-01 5.179826e-04 6.541225e-04 -7.331264e-04
N -6.432602e+00 3.644136e+00 4.356632e+00 8.765200e-05 -1.312175e-04 -1.397282e-03
N -6.427396e+00 3.657402e+00 -5.938776e+00 1.094260e-04 -6.156187e-04 -6.436813e-04
N -6.392997e+00 3.678661e+00 -8.080614e-01 1.515129e-03 3.632195e-04 3.018818e-04
N -3.175306e+00 -1.866374e+00 4.411391e+00 5.286727e-04 -2.309373e-04 -9.343488e-04
N -3.248925e+00 -1.849395e+00 -5.982891e+00 -2.682006e-04 2.580057e-04 -1.598230e-03
N -3.265281e+00 -1.859016e+00 -8.127555e-01 -2.420365e-04 5.691108e-04 -1.010182e-04
N -1.668340e+00 8.509983e-01 4.460536e+00 5.718282e-04 4.718914e-04 -3.668758e-04
N -1.670441e+00 9.163760e-01 -5.937549e+00 6.397291e-04 -2.219449e-04 -1.537056e-03
N -1.633373e+00 8.911664e-01 -8.431949e-01 5.093488e-04 -5.915603e-04 1.326339e-04
N -3.234134e+00 3.601414e+00 4.418745e+00 -2.050772e-04 -1.162887e-03 -4.222318e-04
N -3.228039e+00 3.611421e+00 -5.920729e+00 3.737093e-04 -9.068543e-04 -1.033947e-03
N -3.279534e+00 3.682541e+00 -7.451412e-01 2.908337e-04 -6.805829e-04 -1.332233e-04
N -6.026361e-02 -1.860751e+00 4.353287e+00 -2.904247e-04 -6.002302e-04 -1.691125e-03
N 2.636097e-02 -1.840217e+00 -5.913663e+00 -3.802303e-05 -8.780391e-04 -6.982178e-04
N 2.648264e-02 -1.899527e+00 -7.336065e-01 2.389234e-04 -1.124840e-03 -1.471366e-03
N 1.620912e-02 1.815146e+00 1.850924e+00 -1.678738e-03 9.232421e-04 -2.264575e-03
N 1.461093e-02 1.813971e+00 7.028950e+00 -3.789099e-04 1.245159e-03 -1.091635e-04
N -2.295539e-02 1.756534e+00 -3.334274e+00 5.216180e-04 7.823194e-04 -1.150923e-03
N 3.236271e+00 -3.710381e+00 1.856887e+00 -1.270475e-03 3.819576e-04 -3.931257e-03
N 3.225376e+00 -3.764739e+00 7.013276e+00 1.905591e-04 9.959202e-04 -1.117219e-03
N 3.187933e+00 -3.679479e+00 -3.330849e+00 -1.938074e-04 1.030398e-03 -3.146091e-04
N 1.590355e+00 -9.677861e-01 1.803332e+00 -7.257568e-04 -2.439716e-04 -2.277383e-03
N 1.582619e+00 -9.273054e-01 6.989951e+00 -4.280517e-04 -5.827303e-04 -1.782484e-03
N 1.627967e+00 -9.313435e-01 -3.378469e+00 -8.593409e-04 -5.411260e-04 -1.687359e-03
N 3.129344e+00 1.824905e+00 1.850383e+00 -9.013124e-04 6.533951e-04 -6.762649e-03
N 3.122784e+00 1.765689e+00 7.013600e+00 3.826407e-05 -6.712581e-06 -1.309096e-03
N 3.123921e+00 1.832188e+00 -3.313622e+00 -1.009303e-03 1.035592e-03 1.274585e-04
N 6.389227e+00 -3.780411e+00 1.850908e+00 -4.677179e-04 4.126981e-04 -5.489978e-03
N 6.334009e+00 -3.717166e+00 7.022227e+00 -4.886126e-04 6.469877e-04 -1.041344e-03
N 6.422897e+00 -3.697281e+00 -3.324392e+00 3.827798e-04 2.230929e-04 -9.231493e-04
N 4.744890e+00 -9.922762e-01 1.769859e+00 -9.087684e-04 -3.851517e-04 -3.516968e-03
N 4.814509e+00 -9.948439e-01 7.010923e+00 -8.786096e-04 -5.105801e-04 -1.197580e-03
N 4.783662e+00 -1.008842e+00 -3.386391e+00 -5.764927e-04 -9.328575e-04 -1.518578e-03
N -3.212424e+00 1.797239e+00 1.820176e+00 -1.772276e-03 2.296797e-04 -3.685071e-03
N -3.237552e+00 1.794273e+00 6.939643e+00 -1.206379e-03 1.656576e-04 -3.034449e-04
N -3.185348e+00 1.791199e+00 -3.385923e+00 -3.861988e-04 4.184619e-04 -5.201928e-04
N -5.471917e-02 -3.709356e+00 1.801039e+00 -1.037903e-03 3.929738e-04 -2.139597e-03
N -1.894480e-02 -3.733548e+00 6.991272e+00 -4.766505e-04 1.818121e-05 -6.627464e-04
N -5.213087e-02 -3.741962e+00 -3.334516e+00 -1.012125e-03 2.852131e-04 -1.105643e-03
N -1.568733e+00 -9.786588e-01 1.824549e+00 -2.833112e-03 -4.526258e-04 -4.931048e-03
N -1.657508e+00 -9.973460e-01 6.960061e+00 -1.813663e-03 -5.477856e-04 -1.175109e-03
N -1.656792e+00 -9.341523e-01 -3.317172e+00 -1.303202e-03 -1.541614e-03 -6.346367e-04
