108
Energy=-9.859695e+05 Lattice="9.471104e+00 0.000000e+00 0.000000e+00 -4.745428e+00 8.195360e+00 0.000000e+00 -3.636626e-03 -6.369986e-03 1.528263e+01" Stress="3.793430e-03 -9.438230e-05 3.788126e-05 -1.031660e-04 1.791167e-03 -1.152379e-04 5.625242e-05 -1.084069e-04 1.031135e-02" Properties=species:S:1:pos:R:3:forces:R:3 Config_type=AlGaN_super3_12_1_5.xyz
Al 1.548346e+00 8.963257e-01 2.371380e+00 3.584050e-03 -8.516423e-03 -2.220338e-03
Al 1.541101e+00 8.578216e-01 7.510464e+00 1.682057e-03 2.728854e-03 1.335867e-03
Al 1.549455e+00 8.514767e-01 -2.735776e+00 7.509765e-05 3.744542e-03 6.233033e-03
Al -1.109826e-02 3.626997e+00 2.419935e+00 -1.127012e-02 -9.968927e-03 1.809454e-02
Al -1.495195e-02 3.583475e+00 7.490797e+00 1.969601e-04 3.161426e-03 -4.127228e-04
Al -3.214629e-02 3.585296e+00 -2.722089e+00 6.264870e-04 6.634483e-05 4.920674e-03
Al 3.154967e+00 -1.840393e+00 2.395328e+00 6.042945e-04 -6.449194e-03 -5.849427e-03
Al 3.140926e+00 -1.857565e+00 7.507263e+00 1.828435e-03 -1.916453e-03 1.139894e-03
Al 3.135692e+00 -1.848375e+00 -2.735481e+00 2.095987e-03 -1.626043e-03 9.991073e-03
Al -4.775230e+00 8.558853e-01 2.395556e+00 -4.711968e-03 2.779202e-03 -6.480335e-03
Al -4.771579e+00 8.562001e-01 7.512893e+00 2.521936e-03 4.243144e-03 1.085567e-03
Al -4.774381e+00 8.633968e-01 -2.728262e+00 3.040985e-03 2.175681e-03 7.236716e-03
Al -6.320447e+00 3.623354e+00 2.378810e+00 -5.938314e-03 -7.071611e-03 8.236471e-03
Al -6.353289e+00 3.604126e+00 7.509250e+00 1.556667e-03 3.711341e-04 9.098352e-04
Ga -6.330345e+00 3.590753e+00 -2.704426e+00 -1.547593e-03 7.257724e-04 1.288071e-03
Al -3.162408e+00 -1.874242e+00 2.409594e+00 -3.788809e-03 3.719555e-03 1.871360e-03
Al -3.171521e+00 -1.862731e+00 7.508122e+00 1.860182e-03 -1.970974e-03 5.633861e-04
Ga -3.176738e+00 -1.849445e+00 -2.728270e+00 8.302040e-04 -1.747575e-03 5.395295e-03
Ga -1.641685e+00 8.646935e-01 2.433078e+00 1.787064e-03 2.437134e-03 3.684534e-04
Al -1.611630e+00 8.613894e-01 7.495146e+00 6.243331e-04 5.786561e-04 1.962047e-04
Al -1.609229e+00 8.818068e-01 -2.728996e+00 1.628787e-04 -1.551929e-03 1.616527e-03
Ga -3.216619e+00 3.635457e+00 2.454582e+00 5.163747e-03 -3.746481e-03 -1.436812e-04
Ga -3.194095e+00 3.604021e+00 7.495910e+00 2.550923e-04 -8.881497e-04 -1.489496e-03
Al -3.192255e+00 3.595466e+00 -2.686670e+00 1.425598e-03 1.688490e-03 -8.975758e-03
Al -3.107158e-02 -1.865577e+00 2.393081e+00 9.355580e-03 1.847599e-02 1.738018e-03
Al -2.811165e-02 -1.846625e+00 7.502811e+00 -8.992502e-04 -4.101938e-03 1.619033e-03
Al 1.884209e-04 -1.840666e+00 -2.733295e+00 -2.042035e-03 -2.788990e-03 6.306515e-03
Al -3.521124e-02 1.775873e+00 4.969483e+00 -6.259581e-04 6.335990e-03 3.365862e-04
Al -2.355615e-02 1.765012e+00 -5.264696e+00 -9.890018e-04 2.855341e-03 3.962927e-03
Ga -3.497760e-02 1.745772e+00 -1.240355e-01 1.531831e-03 3.115032e-03 -1.187955e-02
Al 3.166363e+00 -3.676595e+00 4.988807e+00 2.016011e-03 -4.511397e-03 -7.938233e-03
Ga 3.148681e+00 -3.683196e+00 -5.236888e+00 4.255192e-04 2.029354e-04 3.289845e-03
Ga 3.124157e+00 -3.690685e+00 -1.204684e-01 3.110699e-03 4.997565e-03 -1.305256e-02
Ga 1.550213e+00 -9.698441e-01 4.947394e+00 4.332877e-04 2.281086e-03 1.346376e-03
Al 1.562610e+00 -9.429619e-01 -5.263788e+00 -1.235648e-03 -1.015397e-03 3.540850e-03
Al 1.580423e+00 -9.590984e-01 -1.883912e-01 -2.812905e-03 -9.457295e-04 2.169673e-03
Ga 3.123186e+00 1.793064e+00 4.944882e+00 -4.049049e-04 6.823883e-04 2.498389e-03
Al 3.128481e+00 1.772813e+00 -5.267642e+00 -3.991751e-04 2.933475e-03 1.503203e-03
Al 3.147671e+00 1.777144e+00 -1.401302e-01 -3.270944e-04 -1.060203e-02 -9.187978e-03
Al 6.308793e+00 -3.679103e+00 4.961172e+00 -2.482122e-03 -2.789608e-03 3.364344e-04
Al 6.309325e+00 -3.685618e+00 -5.265690e+00 -1.254239e-03 1.480337e-03 -7.762342e-04
Ga 6.307994e+00 -3.690405e+00 -7.098280e-02 -4.602074e-03 1.775114e-03 -1.374386e-02
Ga 4.735009e+00 -9.615253e-01 4.953605e+00 -2.580647e-03 1.509982e-03 2.169911e-03
Al 4.721526e+00 -9.314168e-01 -5.269112e+00 8.099539e-04 -3.755917e-03 2.576965e-03
Al 4.727117e+00 -9.236164e-01 -1.497144e-01 -4.037170e-03 -2.105760e-03 -1.523266e-03
Al -3.186462e+00 1.774544e+00 4.969235e+00 2.407654e-04 6.019972e-03 5.615364e-03
Al -3.190578e+00 1.773138e+00 -5.253661e+00 -8.667019e-04 -8.918401e-04 4.506581e-03
Al -3.181025e+00 1.798335e+00 -1.934333e-01 -1.090344e-02 -1.233319e-02 6.823554e-03
Al -3.371693e-02 -3.666503e+00 4.961691e+00 -8.517934e-04 -1.231682e-03 7.057361e-03
Al -1.889526e-02 -3.662356e+00 -5.256141e+00 -3.333502e-03 -1.511614e-03 2.742230e-03
Al -2.100236e-02 -3.687334e+00 -1.583493e-01 2.902783e-03 1.208328e-02 -9.751078e-04
Al -1.596222e+00 -9.496897e-01 4.967145e+00 -1.124390e-03 -7.391135e-03 8.333912e-03
Al -1.583275e+00 -9.328329e-01 -5.269929e+00 -3.589839e-03 -2.634287e-03 2.652449e-03
Al -1.589270e+00 -9.444058e-01 -1.616471e-01 6.821709e-04 -5.270271e-03 -3.528755e-03
N 1.496440e+00 8.881808e-01 4.292576e+00 4.718303e-03 -1.182038e-03 -1.810420e-04
N 1.543503e+00 8.630524e-01 -5.854015e+00 2.502169e-03 2.317794e-03 -1.106199e-03
N 1.588706e+00 8.403023e-01 -7.884324e-01 2.365120e-03 3.927279e-03 -2.020340e-03
N -1.522338e-02 3.605178e+00 4.365746e+00 -2.373424e-03 -2.895084e-03 9.198670e-04
N 1.289101e-02 3.576548e+00 -5.872606e+00 5.824821e-04 -1.369541e-03 -3.217012e-03
N -2.371990e-02 3.589317e+00 -7.990545e-01 1.669302e-03 -6.057841e-04 -2.344435e-03
N 3.141693e+00 -1.918946e+00 4.295584e+00 1.321450e-03 6.776097e-03 3.484555e-03
N 3.141196e+00 -1.817620e+00 -5.867136e+00 1.272042e-04 -1.142195e-05 -3.521701e-04
N 3.149618e+00 -1.823155e+00 -7.904960e-01 3.510426e-03 -3.564129e-05 -1.592601e-03
N -4.723352e+00 8.950429e-01 4.293069e+00 -1.616554e-03 -3.685007e-04 2.874285e-03
N -4.765726e+00 8.704280e-01 -5.856449e+00 1.894713e-03 2.975415e-03 -1.251779e-03
N -4.762646e+00 8.741219e-01 -7.813359e-01 1.240090e-03 8.647512e-04 -2.355190e-03
N -6.336155e+00 3.652201e+00 4.325574e+00 2.707539e-03 -1.110107e-03 -5.759332e-03
N -6.337170e+00 3.607463e+00 -5.850960e+00 1.917069e-03 -1.339902e-03 -1.102614e-03
N -6.290757e+00 3.568292e+00 -6.967343e-01 -6.509783e-03 4.440183e-03 -7.470045e-03
N -3.129846e+00 -1.879755e+00 4.349441e+00 2.143382e-03 -3.090999e-04 -6.707760e-03
N -3.169212e+00 -1.854761e+00 -5.852518e+00 5.179130e-04 -1.662030e-04 5.234478e-05
N -3.171490e+00 -1.824896e+00 -7.271458e-01 2.027117e-04 -2.026925e-03 1.273314e-04
N -1.616624e+00 8.448815e-01 4.453493e+00 5.898485e-04 1.034680e-02 -1.483203e-02
N -1.610912e+00 8.798340e-01 -5.858769e+00 4.538515e-04 9.413202e-04 -2.822286e-03
N -1.661254e+00 8.345102e-01 -7.957869e-01 4.381073e-03 6.035479e-03 7.080245e-05
N -3.176599e+00 3.641281e+00 4.475371e+00 -3.716132e-03 -1.170377e-02 -1.502380e-02
N -3.222773e+00 3.582525e+00 -5.811073e+00 1.005889e-04 5.643673e-04 -4.123131e-03
N -3.245039e+00 3.575153e+00 -7.813045e-01 5.238215e-03 4.732566e-03 1.444772e-03
N -6.765748e-02 -1.880326e+00 4.338188e+00 3.320493e-04 1.060707e-03 -9.152953e-03
N -1.527353e-02 -1.842964e+00 -5.858686e+00 9.579758e-04 -3.129129e-03 -9.988398e-04
N -1.159059e-02 -1.854218e+00 -7.858310e-01 -1.324481e-03 -2.990285e-03 -1.370284e-03
N -2.174268e-02 1.841896e+00 1.832906e+00 2.486400e-03 -1.387545e-02 3.134828e-03
N -2.708099e-02 1.763357e+00 6.900493e+00 6.845494e-04 1.388081e-03 -2.525033e-03
N -2.957067e-02 1.768107e+00 -3.332087e+00 8.281136e-04 1.749372e-03 9.029186e-05
N 3.195414e+00 -3.688032e+00 1.827833e+00 -1.042260e-02 1.034383e-02 5.828958e-03
N 3.182367e+00 -3.659949e+00 6.869635e+00 2.894473e-03 1.384040e-03 1.043432e-02
N 3.140950e+00 -3.679599e+00 -3.253739e+00 -1.741334e-03 -2.285711e-03 -5.879682e-04
N 1.600036e+00 -9.728172e-01 1.740268e+00 -1.425927e-02 9.969081e-03 1.208413e-02
N 1.563012e+00 -9.575128e-01 6.942080e+00 -6.189142e-04 1.549941e-04 -3.816234e-03
N 1.567655e+00 -9.524902e-01 -3.332649e+00 -6.658318e-04 -9.379355e-05 -3.331394e-03
N 3.140808e+00 1.793777e+00 1.747858e+00 -3.961242e-03 1.007922e-04 1.683272e-02
N 3.125148e+00 1.773878e+00 6.942364e+00 -1.096318e-03 -2.132592e-04 -1.310873e-03
N 3.129399e+00 1.731034e+00 -3.347977e+00 -1.748664e-03 5.351942e-04 -6.607581e-04
N 6.262544e+00 -3.715026e+00 1.899054e+00 1.991345e-02 1.461533e-02 -8.382715e-03
N 6.300027e+00 -3.687144e+00 6.898730e+00 -8.795220e-04 1.426065e-03 -3.205770e-03
N 6.258909e+00 -3.711473e+00 -3.361661e+00 1.411744e-03 8.473388e-04 2.253872e-03
N 4.732068e+00 -9.439657e-01 1.793451e+00 9.888221e-04 -4.974644e-03 9.316538e-05
N 4.719635e+00 -9.491159e-01 6.945640e+00 -1.237019e-03 -2.580557e-03 -3.410179e-03
N 4.684064e+00 -9.211272e-01 -3.348425e+00 -2.282448e-03 -2.549433e-03 -3.163969e-03
N -3.269503e+00 1.772869e+00 1.757187e+00 1.294739e-02 5.582485e-03 -1.669534e-03
N -3.191827e+00 1.731739e+00 6.884909e+00 -2.630428e-03 -2.012798e-03 -2.848564e-04
N -3.194099e+00 1.776266e+00 -3.323239e+00 8.618936e-04 1.950681e-03 1.666653e-03
N -6.542435e-02 -3.595015e+00 1.765291e+00 2.806273e-03 -2.089641e-02 -1.197151e-03
N -6.435872e-02 -3.656655e+00 6.885695e+00 -2.929441e-03 2.719652e-03 -1.329333e-03
N 2.203545e-02 -3.653281e+00 -3.337815e+00 7.194074e-06 7.414517e-04 1.930592e-03
N -1.593192e+00 -9.905773e-01 1.754960e+00 -1.699014e-03 8.426971e-04 5.982803e-03
N -1.594339e+00 -9.486183e-01 6.905422e+00 -2.290172e-03 -2.596243e-03 -2.553453e-03
N -1.551685e+00 -9.169757e-01 -3.347632e+00 -1.131510e-04 -1.845991e-03 -1.525075e-03
