108
Energy=-1031745.444892 Lattice="9.467314 0.000000 0.000000 -4.736392 8.196131 0.000000 0.016084 -0.000220 15.240101" Stress="0.000001 -0.000000 0.000004 -0.000000 -0.000002 0.000000 0.000004 0.000000 0.000000" Properties=species:S:1:pos:R:3:forces:R:3
Al 1.554569 0.886176 2.397014 0.000035 0.000414 0.000375
Al 1.557654 0.869567 7.454531 0.000263 0.000419 0.000189
Al 1.554138 0.870407 -2.675434 -0.000103 0.000039 0.000089
Al -0.031440 3.597817 2.399391 0.000298 0.000082 -0.000353
Al -0.011794 3.600531 7.453255 -0.000004 -0.000265 0.000090
Al -0.040597 3.607490 -2.684700 0.000293 0.000336 0.000364
Al 3.153672 -1.866182 2.398683 0.000295 -0.000072 -0.000392
Al 3.147815 -1.851802 7.468541 0.000032 -0.000307 0.000250
Al 3.145786 -1.864244 -2.698680 0.000265 -0.000285 0.000170
Al -4.756016 0.865764 2.363032 0.000115 -0.000062 -0.000151
Al -4.749070 0.860808 7.480673 -0.000218 0.000170 0.000378
Al -4.750919 0.860864 -2.675237 -0.000177 0.000169 0.000011
Al -6.338005 3.591190 2.400952 -0.000178 -0.000033 -0.000238
Al -6.339607 3.600336 7.470875 -0.000038 0.000498 0.000901
Ga -6.348001 3.596158 -2.687928 -0.000023 0.000077 0.000231
Al -3.188413 -1.850391 2.406968 -0.000034 -0.000170 -0.000188
Ga -3.182837 -1.860853 7.468583 -0.000057 -0.000237 0.000312
Al -3.196702 -1.847818 -2.701357 0.000546 -0.000150 -0.000420
Al -1.597963 0.879492 2.371177 -0.000003 0.000137 0.000153
Al -1.590530 0.874990 7.473637 0.000684 0.000925 0.000830
Al -1.614169 0.877559 -2.673075 0.000501 -0.000004 -0.000017
Al -3.163196 3.598740 2.398366 0.000390 -0.000383 0.000043
Ga -3.164423 3.599707 7.480935 0.000384 -0.000062 0.000043
Al -3.161944 3.593688 -2.702977 -0.000021 -0.000098 -0.000074
Ga -0.027960 -1.854884 2.416574 0.000286 -0.000023 0.000034
Ga -0.010349 -1.849690 7.472294 0.000474 -0.000101 0.000081
Ga -0.024628 -1.847328 -2.700254 0.000018 0.000060 0.000032
Al -0.021564 1.780948 4.927707 -0.000722 0.000087 0.000314
Ga -0.038506 1.781625 -5.224252 -0.000210 0.000159 0.000006
Al -0.030983 1.783632 -0.154123 -0.000098 0.000089 0.000272
Al 3.150432 -3.671622 4.923281 -0.000323 -0.000223 0.000042
Al 3.132778 -3.670473 -5.226881 0.000401 -0.000171 -0.000021
Al 3.139304 -3.689383 -0.150081 -0.000202 -0.000053 0.000773
Al 1.570304 -0.954136 4.923647 -0.000140 0.000072 0.000133
Al 1.561517 -0.958035 -5.226103 -0.000166 -0.000752 0.000258
Ga 1.575273 -0.940617 -0.138345 -0.000195 0.000191 0.000040
Ga 3.133541 1.781531 4.937715 0.000179 -0.000089 0.000050
Ga 3.133954 1.773848 -5.241379 0.000129 0.000056 0.000192
Al 3.133399 1.767953 -0.134335 0.000204 -0.000155 0.000216
Al 6.290529 -3.679527 4.911025 0.000049 -0.000199 -0.000164
Al 6.278161 -3.670755 -5.227379 -0.000861 -0.000177 -0.000009
Ga 6.271182 -3.671882 -0.128409 0.000099 0.000045 0.000272
Al 4.710482 -0.960657 4.921342 0.000181 0.000002 -0.000135
Al 4.704518 -0.955171 -5.217422 -0.000096 0.000236 0.000012
Al 4.717263 -0.947383 -0.154462 -0.000269 -0.000134 0.000566
Ga -3.163191 1.773903 4.915245 -0.000037 0.000084 0.000011
Al -3.183374 1.771546 -5.214437 -0.000094 0.000142 -0.000071
Al -3.173617 1.779246 -0.150336 -0.000322 -0.000012 0.000311
Al -0.018803 -3.678353 4.926118 0.000297 0.000106 -0.000631
Al -0.023007 -3.680358 -5.224068 -0.000611 -0.000014 -0.000417
Ga -0.006301 -3.696488 -0.132237 0.000087 -0.000026 0.000151
Al -1.597944 -0.945037 4.924111 -0.000112 -0.000121 0.000042
Al -1.616308 -0.944897 -5.221650 0.000006 -0.000765 0.000710
Al -1.622856 -0.930570 -0.145304 0.000041 -0.000210 -0.000223
N 1.517099 0.853772 4.313804 0.000242 -0.000273 -0.000717
N 1.540359 0.820059 -5.878044 0.000032 0.000428 -0.000670
N 1.554697 0.919416 -0.765091 -0.000147 -0.000123 0.000254
N -0.023895 3.597414 4.321415 -0.000044 -0.000029 -0.000077
N -0.031380 3.648080 -5.865640 0.000353 0.000659 0.000276
N -0.065102 3.583152 -0.769562 -0.000064 -0.000083 -0.000072
N 3.143912 -1.863856 4.314382 -0.000116 -0.000020 0.000031
N 3.131213 -1.859543 -5.841730 -0.000067 -0.000156 -0.000108
N 3.178888 -1.889735 -0.779320 0.000175 0.000288 0.000015
N -4.754413 0.822995 4.271248 -0.000075 -0.000070 -0.000022
N -4.715923 0.841244 -5.848110 0.000092 -0.000416 -0.000244
N -4.756062 0.871405 -0.745013 0.000129 0.000065 0.000080
N -6.329684 3.643641 4.306878 -0.000391 0.000384 0.000441
N -6.346569 3.655363 -5.847754 0.000501 -0.000110 -0.000555
N -6.341781 3.559851 -0.725257 -0.000035 -0.000080 0.000061
N -3.175986 -1.855211 4.328649 0.000135 -0.000004 -0.000062
N -3.186833 -1.859212 -5.789206 -0.000225 0.000110 -0.000079
N -3.180064 -1.814031 -0.784530 0.000095 0.000211 0.000354
N -1.550901 0.848081 4.284244 0.000337 0.000324 -0.000289
N -1.647986 0.847593 -5.851344 0.000188 0.000585 -0.000982
N -1.604537 0.873561 -0.751082 0.000203 -0.000018 0.000043
N -3.167350 3.649953 4.312625 0.000070 0.000299 0.000114
N -3.180487 3.600850 -5.778032 -0.000069 -0.000118 0.000124
N -3.133380 3.578425 -0.782539 0.000064 0.000043 0.000087
N -0.019253 -1.856320 4.389860 0.000266 -0.000320 0.000097
N -0.030391 -1.857430 -5.777258 0.000683 0.000350 -0.000405
N -0.063146 -1.834141 -0.728817 -0.000090 0.000017 0.000113
N -0.020258 1.785660 1.771828 0.000133 -0.000023 -0.000141
N -0.021333 1.781810 6.857399 0.000065 -0.000035 -0.000074
N -0.025898 1.781775 -3.239800 -0.000797 -0.000472 -0.000195
N 3.137595 -3.681416 1.780564 0.000146 0.000026 -0.000603
N 3.183714 -3.655215 6.842384 -0.000181 0.000421 -0.000260
N 3.136429 -3.679753 -3.306642 -0.000032 0.000122 -0.000119
N 1.604183 -0.925289 1.832233 -0.000239 -0.000310 -0.000016
N 1.610376 -0.929489 6.838897 -0.000202 -0.000073 -0.000110
N 1.603081 -0.923954 -3.308443 -0.000310 0.000215 -0.000190
N 3.130485 1.779162 1.787179 -0.000167 0.000159 -0.000130
N 3.144888 1.783085 6.922082 -0.000296 -0.000732 0.000000
N 3.131543 1.729020 -3.269036 0.000798 -0.000250 -0.000129
N 6.286848 -3.677011 1.852441 -0.000412 -0.000085 0.000158
N 6.297554 -3.728013 6.830016 0.000050 -0.000051 -0.000128
N 6.240425 -3.659834 -3.309462 -0.000372 0.000263 -0.000126
N 4.713430 -0.956124 1.770597 0.000196 -0.000121 -0.000658
N 4.676515 -0.925647 6.836365 -0.000119 0.000226 -0.000335
N 4.704481 -0.944567 -3.297815 -0.000155 0.000087 -0.000074
N -3.176913 1.787308 1.777658 0.000352 -0.000158 -0.000302
N -3.170727 1.733452 6.887440 -0.000701 0.000069 0.000036
N -3.182648 1.774693 -3.289543 -0.000203 0.000121 0.000079
N -0.013889 -3.730845 1.835213 -0.000302 0.000359 -0.000424
N -0.053070 -3.708485 6.835135 -0.000111 0.000030 0.000148
N 0.014849 -3.707941 -3.321703 0.000348 -0.000270 0.000528
N -1.645724 -0.928332 1.767956 -0.000392 0.000084 0.000347
N -1.598049 -0.898753 6.830497 0.000016 -0.000730 -0.000383
N -1.647137 -0.916355 -3.310750 -0.000592 -0.000055 -0.000153
