108
Energy=-8.028680e+05 Lattice="9.440919e+00 0.000000e+00 0.000000e+00 -4.724248e+00 8.171902e+00 0.000000e+00 -2.260099e-03 -1.386368e-04 1.517391e+01" Stress="3.259426e-04 -2.179914e-04 -9.867105e-05 -2.174660e-04 -3.393120e-04 4.293382e-05 -1.014135e-04 3.337546e-05 7.103418e-04" Properties=species:S:1:pos:R:3:forces:R:3 Config_type=AlGaN_super3_8_0_27.xyz
Al 1.550102e+00 8.729157e-01 2.384050e+00 1.163177e-04 5.996379e-05 9.176282e-05
Al 1.547379e+00 8.684341e-01 7.423952e+00 1.770744e-04 3.401100e-05 1.817143e-04
Al 1.557319e+00 8.733724e-01 -2.678252e+00 -4.218791e-05 1.681643e-04 8.452033e-05
Al -3.697628e-02 3.585032e+00 2.383994e+00 7.591414e-05 -9.257504e-06 -1.048488e-04
Al -2.631605e-02 3.585890e+00 7.433102e+00 1.156984e-05 -6.121317e-05 -1.278506e-06
Al -2.164741e-02 3.584638e+00 -2.676375e+00 2.542154e-04 1.048551e-04 5.820442e-05
Al 3.122126e+00 -1.860339e+00 2.397451e+00 -8.220312e-05 -1.562315e-04 5.487224e-05
Al 3.120741e+00 -1.852191e+00 7.403027e+00 5.700745e-05 -7.265620e-05 -3.232474e-05
Al 3.121425e+00 -1.853998e+00 -2.659639e+00 3.391942e-04 -5.411707e-04 7.145290e-05
Al -4.746894e+00 8.765897e-01 2.394303e+00 -3.818053e-05 -1.162859e-04 1.228837e-05
Al -4.744765e+00 8.763155e-01 7.418176e+00 2.397201e-04 -8.374550e-05 -3.592058e-05
Al -4.741730e+00 8.818291e-01 -2.675929e+00 -1.015123e-04 2.744115e-05 -2.002539e-05
Al -6.307795e+00 3.583879e+00 2.388592e+00 7.203482e-06 5.218069e-05 -5.578651e-05
Al -6.319433e+00 3.587120e+00 7.429115e+00 -1.352044e-05 -1.777890e-06 1.677363e-04
Al -6.323767e+00 3.577986e+00 -2.675231e+00 1.347795e-05 5.412870e-05 7.826227e-05
Al -3.163505e+00 -1.843701e+00 2.401994e+00 5.723308e-07 -2.144544e-04 -6.917805e-05
Al -3.170708e+00 -1.852121e+00 7.418795e+00 6.720071e-05 -1.885169e-05 -4.727002e-05
Al -3.172220e+00 -1.861967e+00 -2.671485e+00 2.260094e-04 -5.462179e-05 5.843888e-05
Al -1.597244e+00 8.715161e-01 2.384837e+00 2.056209e-04 -8.903926e-05 -5.401027e-05
Al -1.600042e+00 8.797539e-01 7.415415e+00 2.408643e-04 -2.450955e-04 8.870187e-06
Al -1.600290e+00 8.839677e-01 -2.664891e+00 -9.786040e-06 -2.533112e-05 1.389658e-04
Al -3.171789e+00 3.595118e+00 2.384510e+00 1.338730e-04 -1.631060e-04 -1.126775e-04
Al -3.172578e+00 3.587751e+00 7.403784e+00 8.387317e-05 -1.979537e-04 1.012619e-04
Al -3.165164e+00 3.577239e+00 -2.649790e+00 1.450791e-04 -8.215328e-06 6.097914e-05
Al -2.429976e-02 -1.853908e+00 2.380379e+00 5.489782e-05 -2.347822e-04 -1.326121e-04
Al -1.677097e-02 -1.850743e+00 7.406232e+00 6.830112e-05 -1.205078e-04 -1.998104e-05
Ga -1.256812e-02 -1.849292e+00 -2.645461e+00 4.316948e-05 -4.139226e-05 -5.851748e-05
Al -2.849681e-02 1.768463e+00 4.904914e+00 -7.600294e-05 9.234793e-05 1.512645e-04
Al -1.456356e-02 1.772526e+00 -5.213270e+00 -3.319157e-05 1.171408e-04 1.687883e-04
Al -2.490226e-02 1.765654e+00 -1.444942e-01 -8.879176e-05 2.900443e-04 -1.232923e-04
Al 3.117621e+00 -3.674144e+00 4.907076e+00 -7.500292e-05 1.594287e-04 -2.419087e-05
Ga 3.128570e+00 -3.678983e+00 -5.209356e+00 -2.055757e-04 4.015334e-05 1.883801e-05
Al 3.114488e+00 -3.680623e+00 -1.412688e-01 -1.711418e-06 -9.178452e-05 -1.305045e-05
Al 1.550157e+00 -9.441151e-01 4.894064e+00 -2.888697e-04 1.528800e-04 5.834248e-06
Al 1.556780e+00 -9.301193e-01 -5.222054e+00 6.626525e-05 5.499377e-05 5.407072e-05
Al 1.550925e+00 -9.418405e-01 -1.182287e-01 -3.427467e-05 1.395948e-04 1.231922e-04
Al 3.124469e+00 1.768995e+00 4.908862e+00 -7.108678e-05 -2.269810e-05 1.897353e-04
Al 3.114000e+00 1.774046e+00 -5.216517e+00 5.540553e-05 -8.228199e-06 1.309022e-04
Al 3.123713e+00 1.773879e+00 -1.427076e-01 -3.771513e-04 3.122075e-04 9.908814e-05
Ga 6.271268e+00 -3.674268e+00 4.904431e+00 2.015607e-05 -4.468868e-05 -1.835992e-04
Al 6.273869e+00 -3.686963e+00 -5.212985e+00 1.918755e-04 -3.676604e-05 6.783446e-05
Ga 6.279280e+00 -3.682882e+00 -1.273723e-01 -9.944857e-05 8.755106e-05 1.428440e-04
Al 4.693391e+00 -9.355191e-01 4.905685e+00 -1.531212e-04 -5.610503e-05 -1.318569e-04
Ga 4.692492e+00 -9.386634e-01 -5.205866e+00 -1.914579e-04 5.844436e-05 -1.046296e-05
Ga 4.692011e+00 -9.393078e-01 -1.368933e-01 5.097783e-05 1.704128e-04 5.582297e-05
Al -3.172644e+00 1.777778e+00 4.895851e+00 3.005789e-05 1.265144e-05 -7.456440e-05
Al -3.168704e+00 1.779166e+00 -5.212945e+00 1.243279e-05 -1.249033e-04 1.398876e-04
Al -3.165661e+00 1.782846e+00 -1.329381e-01 -3.392657e-04 -1.016138e-05 -2.016401e-04
Al -1.433558e-02 -3.669749e+00 4.902892e+00 2.504568e-05 5.068842e-05 -9.823601e-05
Ga -2.129599e-02 -3.682559e+00 -5.215970e+00 -2.165614e-05 4.791390e-05 3.583908e-05
Al -1.177835e-02 -3.680264e+00 -1.300357e-01 -7.666857e-05 6.253921e-05 -2.288055e-05
Al -1.589277e+00 -9.347873e-01 4.908554e+00 -1.371598e-04 -1.173993e-07 -6.553416e-05
Ga -1.589296e+00 -9.331963e-01 -5.220158e+00 -3.431995e-04 2.664341e-05 1.623583e-04
Al -1.588389e+00 -9.339643e-01 -1.271801e-01 1.666554e-05 4.478412e-05 -1.077049e-04
N 1.548295e+00 8.732937e-01 4.301880e+00 2.509678e-04 -5.353591e-05 -1.668527e-04
N 1.549420e+00 8.703606e-01 -5.824239e+00 2.909129e-05 -6.859899e-05 -1.374272e-04
N 1.552071e+00 8.655635e-01 -7.487052e-01 3.827082e-05 -3.430560e-05 -4.589948e-05
N -7.177534e-02 3.565142e+00 4.290015e+00 -1.043304e-04 -8.330461e-05 -4.609118e-05
N 1.518357e-02 3.565432e+00 -5.826571e+00 -1.178288e-04 -1.967706e-04 6.065852e-05
N -6.180836e-02 3.565936e+00 -7.596524e-01 -1.535933e-04 -2.036140e-04 1.031569e-04
N 3.124220e+00 -1.858130e+00 4.314013e+00 1.796992e-05 -3.454323e-05 8.553467e-05
N 3.085931e+00 -1.833268e+00 -5.861871e+00 6.003149e-05 -1.464495e-06 -5.096169e-07
N 3.077363e+00 -1.879475e+00 -7.488700e-01 1.509023e-05 4.783642e-04 -1.299333e-04
N -4.748023e+00 8.739650e-01 4.308070e+00 1.962380e-04 2.919653e-05 -5.908487e-05
N -4.742953e+00 9.191697e-01 -5.835012e+00 8.955515e-05 1.357717e-04 -4.617430e-05
N -4.742728e+00 9.212670e-01 -7.619027e-01 8.275533e-04 8.103947e-05 -4.625093e-05
N -6.274089e+00 3.565106e+00 4.293735e+00 1.106608e-04 -1.006734e-04 -1.976752e-05
N -6.357860e+00 3.565601e+00 -5.832013e+00 3.594889e-05 6.262171e-05 -2.748135e-04
N -6.277584e+00 3.566645e+00 -7.608398e-01 3.423321e-05 -1.572011e-04 1.681973e-04
N -3.166222e+00 -1.802167e+00 4.305167e+00 3.198536e-05 6.592097e-05 9.605501e-05
N -3.170025e+00 -1.900754e+00 -5.846447e+00 7.121087e-05 -3.207587e-05 -1.031316e-04
N -3.126000e+00 -1.835994e+00 -7.675937e-01 3.961640e-05 -2.584007e-05 -2.795284e-05
N -1.598206e+00 8.717785e-01 4.302000e+00 2.704653e-04 -1.405511e-04 -4.214267e-05
N -1.596563e+00 9.243682e-01 -5.841918e+00 2.574977e-04 3.744185e-06 -1.936333e-04
N -1.598788e+00 8.729125e-01 -7.416209e-01 3.115078e-05 -1.631929e-04 1.256176e-04
N -3.172571e+00 3.595662e+00 4.303037e+00 6.139881e-05 -2.208692e-04 -3.500471e-05
N -3.169188e+00 3.545456e+00 -5.864785e+00 1.235674e-04 4.491546e-05 -2.311345e-04
N -3.171412e+00 3.587625e+00 -7.335917e-01 -5.901296e-05 -2.622451e-04 1.518499e-04
N -2.539622e-02 -1.853373e+00 4.303057e+00 1.788556e-04 -1.606150e-04 3.742370e-05
N 2.243771e-02 -1.831854e+00 -5.856573e+00 8.597227e-05 -1.286064e-05 -1.344174e-05
N -1.752566e-02 -1.853280e+00 -6.687926e-01 -2.454080e-04 8.177880e-06 5.046958e-05
N -2.319974e-02 1.773371e+00 1.774808e+00 -2.060362e-05 -5.336292e-05 4.333383e-05
N -2.217569e-02 1.775906e+00 6.821686e+00 -7.115611e-05 1.212707e-04 -1.314729e-04
N -2.112527e-02 1.770516e+00 -3.283726e+00 -1.204058e-04 1.203887e-04 6.577175e-06
N 3.124424e+00 -3.670436e+00 1.778890e+00 -3.972986e-05 1.206276e-04 4.178305e-05
N 3.129226e+00 -3.674593e+00 6.823633e+00 -3.771345e-05 2.105300e-04 7.989213e-06
N 3.125134e+00 -3.673395e+00 -3.226629e+00 -3.434169e-04 2.683528e-04 4.044195e-06
N 1.556504e+00 -9.444066e-01 1.798295e+00 -2.328919e-04 1.446453e-04 5.234995e-05
N 1.551301e+00 -9.415611e-01 6.807538e+00 -2.277898e-04 1.771683e-04 -1.813653e-05
N 1.594498e+00 -9.231388e-01 -3.303303e+00 -3.536486e-04 -2.545633e-05 -2.750985e-04
N 3.122306e+00 1.774357e+00 1.776504e+00 5.646796e-05 -1.251829e-04 -9.908495e-05
N 3.119291e+00 1.775474e+00 6.824749e+00 -7.849793e-05 -6.685365e-05 -6.243203e-05
N 3.123287e+00 1.773463e+00 -3.291672e+00 -1.019651e-04 1.548510e-05 -2.736704e-05
N 6.273520e+00 -3.671457e+00 1.851707e+00 -1.154140e-04 5.414524e-05 -3.878634e-05
N 6.270999e+00 -3.673690e+00 6.873417e+00 1.170332e-05 -4.531171e-05 -1.991421e-05
N 6.274203e+00 -3.675153e+00 -3.282204e+00 1.538052e-05 9.560954e-06 -1.161588e-07
N 4.695812e+00 -9.463632e-01 1.840554e+00 1.527723e-04 3.271525e-04 -7.360009e-05
N 4.698485e+00 -9.418058e-01 6.823932e+00 -2.027904e-04 1.959787e-05 1.795130e-05
N 4.696076e+00 -9.467077e-01 -3.221179e+00 -1.103175e-04 2.071798e-04 1.392653e-06
N -3.172057e+00 1.777505e+00 1.787655e+00 2.018712e-05 -1.703678e-04 1.427823e-04
N -3.172924e+00 1.774761e+00 6.807346e+00 -6.463924e-05 7.065656e-05 4.026713e-05
N -3.166831e+00 1.778573e+00 -3.285967e+00 3.740972e-06 4.150490e-05 -1.831124e-05
N -2.065463e-02 -3.673587e+00 1.786667e+00 9.574267e-05 -1.150898e-06 9.904755e-05
N -2.514494e-02 -3.671435e+00 6.821917e+00 -6.887353e-06 7.637714e-05 1.503733e-05
N -1.535102e-02 -3.717861e+00 -3.240500e+00 -1.394639e-04 -4.545004e-05 3.398801e-05
N -1.597714e+00 -9.420087e-01 1.787933e+00 -1.517404e-04 6.683696e-05 1.286689e-04
N -1.594980e+00 -9.415537e-01 6.827126e+00 -2.050871e-04 5.713995e-05 -5.034503e-05
N -1.631295e+00 -9.199919e-01 -3.247185e+00 -3.800519e-05 -1.029970e-04 5.549210e-06
