108
Energy=-2.313459e+06 Lattice="9.637710e+00 0.000000e+00 0.000000e+00 -4.833943e+00 8.325714e+00 0.000000e+00 1.072375e-01 -1.103649e-01 1.564288e+01" Stress="1.513096e-03 -5.880064e-04 4.212540e-03 -5.995763e-04 -2.237107e-04 -4.250625e-03 4.230975e-03 -4.251410e-03 5.167783e-03" Properties=species:S:1:pos:R:3:forces:R:3 Config_type=AlGaN_super3_41_2_7.xyz
Al 1.582855e+00 8.565129e-01 2.431522e+00 4.861068e-04 5.065374e-04 1.039673e-03
Al 1.626590e+00 8.276277e-01 7.681130e+00 7.965604e-04 9.492654e-04 1.336805e-03
Ga 1.533829e+00 9.305261e-01 -2.748153e+00 6.300368e-04 -7.935506e-04 1.033527e-03
Al -7.192597e-03 3.606043e+00 2.438890e+00 -4.466099e-04 8.462395e-04 2.856850e-04
Ga 3.153023e-02 3.584931e+00 7.681361e+00 1.628786e-05 5.906047e-04 8.562660e-04
Al -5.413479e-02 3.686588e+00 -2.751695e+00 2.722225e-04 -5.276417e-05 1.042426e-03
Ga 3.212437e+00 -1.929755e+00 2.459094e+00 -2.989760e-04 3.344375e-05 3.858357e-05
Ga 3.246079e+00 -1.942343e+00 7.670852e+00 2.615936e-04 -4.165130e-04 1.999680e-04
Al 3.174543e+00 -1.868189e+00 -2.748825e+00 -1.317214e-04 -1.950581e-04 4.156058e-04
Ga -4.815973e+00 8.610723e-01 2.460562e+00 -9.992072e-05 3.459296e-04 -5.434005e-04
Ga -4.800707e+00 8.297978e-01 7.679851e+00 5.353160e-04 3.844615e-04 -6.777574e-04
Ga -4.884732e+00 9.133618e-01 -2.743933e+00 4.098668e-04 -4.203232e-04 -1.320755e-03
Ga -6.429102e+00 3.627970e+00 2.458868e+00 -9.138403e-05 2.436823e-04 -3.679300e-05
Ga -6.405380e+00 3.597597e+00 7.669962e+00 1.232648e-04 2.409838e-04 -2.508708e-04
Al -6.499806e+00 3.700958e+00 -2.747818e+00 -2.217495e-04 2.045901e-05 5.053868e-05
Ga -3.186226e+00 -1.919400e+00 2.464046e+00 -4.285128e-04 -1.865050e-04 -2.640405e-04
Ga -3.163946e+00 -1.942111e+00 7.665775e+00 2.321191e-04 -1.817430e-04 5.894383e-04
Al -3.270696e+00 -1.871810e+00 -2.748062e+00 4.290625e-04 -4.115207e-04 -2.751092e-04
Al -1.581195e+00 8.614775e-01 2.450051e+00 -9.590209e-04 1.709925e-04 7.949270e-04
Ga -1.561906e+00 8.291634e-01 7.665407e+00 2.487714e-04 -7.316713e-04 1.763431e-04
Ga -1.656786e+00 9.302461e-01 -2.739003e+00 1.332452e-03 -7.721366e-04 1.127730e-04
Al -3.199552e+00 3.632941e+00 2.457023e+00 -1.526168e-03 -4.449246e-04 -5.298422e-04
Ga -3.185524e+00 3.609456e+00 7.675235e+00 -1.236019e-04 -3.954209e-04 2.243324e-04
Ga -3.276295e+00 3.704086e+00 -2.736327e+00 5.191483e-04 -9.551510e-05 -8.047471e-04
Al 1.365502e-02 -1.904632e+00 2.467565e+00 -6.589414e-04 -1.220267e-03 -2.575045e-04
Ga 3.460389e-02 -1.927258e+00 7.661303e+00 2.354084e-04 -7.914779e-04 5.497162e-04
Ga -5.770967e-02 -1.861106e+00 -2.742805e+00 9.677344e-04 -3.235304e-04 -2.748861e-04
Ga 2.444870e-02 1.749437e+00 5.030609e+00 -1.585498e-03 1.399212e-03 2.020597e-03
Al -6.655641e-02 1.850204e+00 -5.364022e+00 5.266911e-04 9.373495e-04 1.645498e-03
Al -4.433607e-02 1.823890e+00 -1.258719e-01 9.312131e-04 2.326250e-03 1.470002e-04
Ga 3.249874e+00 -3.798314e+00 5.043305e+00 -9.698195e-04 4.616674e-04 3.070798e-04
Ga 3.166935e+00 -3.706721e+00 -5.330281e+00 -6.222889e-04 8.526801e-04 -1.400017e-04
Ga 3.193544e+00 -3.737805e+00 -1.468395e-01 8.647048e-04 1.176752e-04 1.132605e-03
Ga 1.624116e+00 -9.989762e-01 5.052455e+00 -1.769075e-03 7.561733e-04 -1.380946e-04
Ga 1.546514e+00 -9.129767e-01 -5.353736e+00 -1.030606e-03 1.241961e-03 -3.850157e-04
Ga 1.570378e+00 -9.479774e-01 -1.342583e-01 2.151397e-04 2.732478e-04 7.833604e-04
Ga 3.214893e+00 1.753295e+00 5.064305e+00 -7.794449e-04 6.504340e-04 3.116674e-04
Ga 3.121660e+00 1.853832e+00 -5.354256e+00 -5.177775e-05 2.002329e-04 5.654290e-04
Ga 3.153296e+00 1.832702e+00 -1.501991e-01 6.407773e-06 -6.729406e-04 1.384965e-03
Ga 6.451958e+00 -3.783215e+00 5.052996e+00 -1.137462e-03 2.874669e-04 1.158457e-04
Ga 6.361260e+00 -3.705056e+00 -5.326282e+00 -1.333422e-04 4.578029e-04 4.011524e-05
Ga 6.383436e+00 -3.734118e+00 -1.698664e-01 1.209473e-04 -4.872490e-04 1.274176e-03
Ga 4.859729e+00 -1.012084e+00 5.069623e+00 -1.172098e-03 1.905442e-04 -5.675576e-04
Ga 4.759756e+00 -9.300195e-01 -5.334071e+00 -7.231012e-04 7.795705e-04 -2.018897e-04
Ga 4.784263e+00 -9.563864e-01 -1.617949e-01 -1.076111e-04 -8.638618e-04 6.586528e-04
Ga -3.181802e+00 1.760187e+00 5.039296e+00 -5.285928e-04 1.081724e-03 4.187899e-04
Ga -3.270790e+00 1.854260e+00 -5.354622e+00 -8.240444e-04 2.671070e-04 3.903822e-04
Ga -3.242937e+00 1.829971e+00 -1.187420e-01 -1.894690e-05 -4.095088e-04 1.119462e-03
Ga 3.236556e-02 -3.771564e+00 5.039033e+00 -1.816442e-04 5.291827e-04 1.857250e-04
Ga -6.394931e-02 -3.694628e+00 -5.346715e+00 -3.242419e-04 3.335781e-04 2.702561e-04
Ga -3.769757e-02 -3.720670e+00 -1.244898e-01 2.832952e-04 -4.156482e-04 7.278810e-04
Al -1.570942e+00 -1.000655e+00 5.033999e+00 -8.037169e-04 -9.227495e-05 9.666326e-04
Ga -1.665372e+00 -9.104806e-01 -5.341702e+00 -1.057125e-03 6.817576e-04 3.102144e-04
Ga -1.639201e+00 -9.382144e-01 -1.367740e-01 -4.041034e-04 -6.184016e-04 1.198153e-03
N 1.619367e+00 8.429266e-01 4.349940e+00 1.334166e-03 -4.220952e-04 -5.280551e-04
N 1.488443e+00 9.542964e-01 -6.025411e+00 4.545870e-04 -5.861264e-04 -9.274947e-04
N 1.507726e+00 9.270256e-01 -7.586331e-01 1.307131e-03 -5.742820e-04 -3.891479e-04
N 1.589294e-02 3.610490e+00 4.361991e+00 6.559949e-04 -3.728053e-04 -1.006122e-03
N -7.229487e-02 3.659256e+00 -5.970453e+00 3.971131e-04 -7.732538e-04 -2.381456e-04
N -5.202337e-02 3.620527e+00 -8.153317e-01 8.197869e-04 -1.799175e-03 -1.527540e-03
N 3.238221e+00 -1.930542e+00 4.433157e+00 5.138505e-04 -3.329863e-04 6.475151e-04
N 3.150885e+00 -1.847755e+00 -5.991075e+00 4.252514e-04 -8.297394e-04 3.423756e-04
N 3.169233e+00 -1.874257e+00 -8.270148e-01 6.318761e-04 -8.423413e-04 1.281121e-03
N -4.807547e+00 8.425391e-01 4.433183e+00 6.012277e-04 1.377870e-04 -3.151505e-05
N -4.894573e+00 9.300765e-01 -5.980133e+00 6.905643e-04 -1.687304e-04 1.122541e-04
N -4.863887e+00 9.105899e-01 -7.701719e-01 1.222296e-03 6.356592e-05 1.174305e-03
N -6.413397e+00 3.613771e+00 4.431807e+00 3.763259e-04 -2.821479e-04 4.060782e-06
N -6.504662e+00 3.710238e+00 -5.993151e+00 1.425838e-04 -2.374710e-04 -2.944289e-04
N -6.471643e+00 3.684409e+00 -8.286552e-01 9.203141e-04 -5.581523e-04 1.164708e-03
N -3.144053e+00 -1.907956e+00 4.443750e+00 7.387713e-04 -2.146064e-04 7.349835e-05
N -3.271177e+00 -1.844076e+00 -5.989962e+00 5.995050e-04 -8.082579e-04 -1.473179e-04
N -3.246219e+00 -1.867339e+00 -8.318437e-01 1.434384e-03 -8.761822e-04 1.281173e-03
N -1.586950e+00 7.992884e-01 4.381044e+00 1.065754e-03 -5.464313e-05 -1.321999e-03
N -1.634509e+00 9.579163e-01 -5.982640e+00 5.503829e-04 -1.218497e-03 -1.006222e-03
N -1.607491e+00 9.387373e-01 -7.491809e-01 4.035328e-04 -1.775249e-03 -1.110955e-03
N -3.198462e+00 3.621954e+00 4.371663e+00 1.004597e-04 -6.516247e-04 -1.420639e-04
N -3.286109e+00 3.714837e+00 -5.984516e+00 6.418271e-04 -5.799302e-04 -4.015939e-04
N -3.266160e+00 3.684679e+00 -7.648731e-01 2.687323e-04 -1.193731e-03 3.064642e-04
N -1.427054e-02 -1.899613e+00 4.392275e+00 4.050308e-04 -7.299668e-04 -3.444685e-04
N -6.787236e-02 -1.835371e+00 -5.993917e+00 9.263967e-04 -1.143192e-03 -4.749768e-04
N -3.980784e-02 -1.865528e+00 -7.710609e-01 6.903348e-04 -1.637740e-03 1.604771e-04
N -4.079389e-03 1.782758e+00 1.810135e+00 -4.039941e-04 4.474770e-04 1.261009e-03
N 7.402335e-02 1.724676e+00 7.028377e+00 9.395293e-05 6.076779e-04 -7.620726e-04
N -5.989850e-02 1.884380e+00 -3.433038e+00 -5.581172e-04 1.396886e-03 -9.983356e-04
N 3.227808e+00 -3.820462e+00 1.852230e+00 2.292611e-04 1.298329e-03 -2.149902e-03
N 3.258655e+00 -3.805286e+00 7.029267e+00 4.193353e-04 7.796300e-04 -7.511937e-04
N 3.207356e+00 -3.690551e+00 -3.338853e+00 8.054560e-04 3.140988e-04 3.888770e-04
N 1.574925e+00 -9.753444e-01 1.861345e+00 -8.627404e-04 1.036675e-03 -2.012493e-03
N 1.644171e+00 -9.674977e-01 7.047552e+00 -4.632963e-04 -3.904869e-04 -6.502203e-04
N 1.596561e+00 -9.546661e-01 -3.365616e+00 4.138761e-04 1.140098e-05 2.825875e-04
N 3.167405e+00 1.754719e+00 1.836696e+00 -7.489085e-04 1.367568e-03 -2.121174e-03
N 3.191138e+00 1.723997e+00 7.055722e+00 -3.536801e-04 -2.688446e-05 -2.094712e-05
N 3.144108e+00 1.888640e+00 -3.365630e+00 3.028389e-04 6.072158e-04 1.245165e-06
N 6.393159e+00 -3.794184e+00 1.828504e+00 -7.264207e-04 9.533918e-04 -2.008086e-03
N 6.458414e+00 -3.798797e+00 7.032801e+00 -4.199928e-05 4.976252e-05 -5.338243e-04
N 6.372810e+00 -3.710170e+00 -3.324155e+00 1.204609e-05 -4.581621e-05 4.755401e-04
N 4.829868e+00 -1.001111e+00 1.817692e+00 -9.434019e-04 8.684188e-04 -8.816067e-04
N 4.858806e+00 -1.021387e+00 7.041444e+00 -4.632561e-04 -2.502691e-04 -1.592049e-05
N 4.767239e+00 -9.814012e-01 -3.343280e+00 1.175509e-04 -5.503163e-04 2.930825e-04
N -3.167991e+00 1.802474e+00 1.874538e+00 -3.364803e-04 9.762353e-04 -1.376298e-03
N -3.180551e+00 1.754300e+00 7.028862e+00 -5.412199e-04 -2.469998e-05 7.619481e-05
N -3.271914e+00 1.844741e+00 -3.378818e+00 -3.570215e-04 -1.395492e-05 1.461040e-04
N 5.191734e-02 -3.742993e+00 1.871819e+00 -5.877234e-04 1.325072e-03 -1.050995e-03
N 4.155968e-02 -3.790761e+00 7.024186e+00 -4.225619e-04 2.021056e-05 2.148178e-05
N -9.285118e-02 -3.729433e+00 -3.365013e+00 -4.244132e-04 -5.568753e-04 -9.517083e-05
N -1.554021e+00 -9.689609e-01 1.857229e+00 -1.172546e-03 9.047486e-04 -1.609275e-03
N -1.565717e+00 -1.014251e+00 6.966536e+00 -9.718513e-04 2.239212e-04 -9.446055e-04
N -1.699980e+00 -9.500201e-01 -3.357976e+00 -1.566069e-03 -3.325176e-05 3.272635e-04
