108
Energy=-1.031745e+06 Lattice="9.467326e+00 0.000000e+00 0.000000e+00 -4.735139e+00 8.195141e+00 0.000000e+00 -1.386106e-03 -4.313041e-03 1.524923e+01" Stress="4.018614e-04 -1.417708e-04 -2.658429e-05 -1.398557e-04 -4.057331e-04 -1.529659e-04 -2.666852e-05 -1.580804e-04 1.326901e-03" Properties=species:S:1:pos:R:3:forces:R:3 Config_type=AlGaN_super3_13_1_48.xyz
Al 1.552287e+00 8.765615e-01 2.395226e+00 1.286558e-05 -2.236977e-05 9.669534e-05
Al 1.547763e+00 8.745541e-01 7.466222e+00 1.657475e-05 -5.465634e-05 -6.801186e-06
Al 1.537911e+00 8.662501e-01 -2.688937e+00 8.196036e-05 4.061070e-05 1.285337e-05
Al -2.884437e-02 3.584970e+00 2.432529e+00 -2.405451e-04 -1.230839e-04 2.556240e-05
Al -1.810549e-02 3.596288e+00 7.466515e+00 -3.947339e-05 3.296442e-05 -5.104698e-05
Al -2.623669e-02 3.590907e+00 -2.723443e+00 5.581179e-05 4.675810e-05 2.316821e-06
Al 3.122354e+00 -1.861302e+00 2.426625e+00 2.396629e-04 2.341899e-04 8.818041e-05
Al 3.140581e+00 -1.860569e+00 7.475832e+00 3.279111e-05 -2.277696e-05 -1.851217e-05
Al 3.128979e+00 -1.854844e+00 -2.722150e+00 -1.942864e-04 2.587934e-04 -2.824355e-05
Al -4.763375e+00 8.841727e-01 2.419264e+00 2.980621e-05 -1.566857e-04 -6.617560e-05
Al -4.757640e+00 8.624040e-01 7.455408e+00 -1.098863e-06 1.540292e-05 -9.752939e-05
Ga -4.752660e+00 8.671117e-01 -2.689729e+00 1.015233e-05 -2.606956e-05 -6.058702e-05
Al -6.326999e+00 3.588596e+00 2.423734e+00 -2.679039e-05 -6.163938e-05 2.558319e-07
Al -6.342938e+00 3.603495e+00 7.451993e+00 -5.098205e-06 -5.677885e-05 2.936239e-05
Ga -6.344278e+00 3.603095e+00 -2.686529e+00 -2.710009e-05 -3.790045e-05 -5.624482e-05
Ga -3.178382e+00 -1.859865e+00 2.452783e+00 -3.537116e-05 8.178348e-05 -2.477313e-05
Al -3.177697e+00 -1.862036e+00 7.457482e+00 -1.866110e-06 1.911328e-06 -3.970105e-05
Ga -3.187212e+00 -1.860765e+00 -2.728826e+00 -5.572052e-06 -2.064820e-05 -2.730959e-05
Al -1.592253e+00 8.860572e-01 2.421744e+00 7.620548e-06 1.020854e-04 2.186624e-05
Al -1.593410e+00 8.655203e-01 7.464180e+00 -2.922687e-05 1.589359e-05 -6.631521e-05
Al -1.588116e+00 8.862024e-01 -2.709022e+00 4.407020e-06 5.246543e-05 1.263892e-04
Al -3.181517e+00 3.599204e+00 2.419971e+00 5.822010e-05 -3.287721e-05 -1.856672e-05
Ga -3.176978e+00 3.601394e+00 7.466072e+00 -4.837603e-06 -1.158653e-05 -6.116204e-05
Ga -3.167007e+00 3.600433e+00 -2.699321e+00 2.829990e-06 -2.475908e-05 -1.465283e-05
Al -1.122097e-02 -1.864221e+00 2.408856e+00 -3.723060e-05 1.482666e-04 1.241686e-04
Al -3.053018e-02 -1.857591e+00 7.479965e+00 7.556529e-05 1.126758e-04 1.095866e-06
Ga -7.507140e-03 -1.846597e+00 -2.702777e+00 2.648404e-05 -6.696153e-06 -4.048833e-05
Al -2.698164e-02 1.786726e+00 4.943048e+00 -1.916459e-05 -1.511829e-05 -2.646172e-05
Al -3.115685e-02 1.781905e+00 -5.250105e+00 2.693281e-05 -3.952055e-06 -5.820514e-05
Al -2.314395e-02 1.777070e+00 -1.460729e-01 8.799950e-05 -2.756894e-05 3.021063e-05
Al 3.141535e+00 -3.689655e+00 4.934173e+00 -1.267050e-05 5.845893e-05 -2.640247e-05
Al 3.144289e+00 -3.675370e+00 -5.247657e+00 1.205701e-04 1.003528e-04 3.044948e-05
Ga 3.129513e+00 -3.684799e+00 -1.319948e-01 9.953270e-06 2.805350e-05 -5.298312e-05
Ga 1.553281e+00 -9.501134e-01 4.946848e+00 -1.495292e-05 4.636558e-06 -5.971483e-06
Al 1.555356e+00 -9.495740e-01 -5.263579e+00 -2.104058e-05 2.759387e-05 -3.430257e-05
Al 1.557402e+00 -9.411420e-01 -1.288606e-01 1.688040e-04 -3.494018e-05 -6.882903e-05
Al 3.134749e+00 1.785981e+00 4.939963e+00 4.690041e-05 1.465170e-05 4.773187e-05
Ga 3.128912e+00 1.782386e+00 -5.260088e+00 7.117097e-06 1.957425e-05 -2.293932e-05
Al 3.126440e+00 1.778401e+00 -1.222699e-01 -8.519905e-05 -3.410187e-05 2.098887e-05
Al 6.287939e+00 -3.694049e+00 4.954573e+00 1.045169e-06 -1.150158e-04 2.832943e-05
Al 6.283839e+00 -3.677110e+00 -5.277977e+00 6.589039e-05 -2.600365e-05 -3.772956e-05
Ga 6.289389e+00 -3.704537e+00 -1.177821e-01 -3.466838e-05 1.372240e-05 -9.405904e-05
Al 4.709894e+00 -9.458266e-01 4.957130e+00 2.159454e-04 -6.749737e-05 -3.093500e-05
Al 4.712489e+00 -9.547571e-01 -5.274283e+00 1.545947e-05 2.068968e-05 2.199094e-05
Ga 4.691814e+00 -9.374313e-01 -1.229262e-01 -2.686598e-05 -1.397700e-05 -9.380513e-07
Al -3.178068e+00 1.776047e+00 4.929901e+00 2.996674e-05 4.249229e-06 -7.684819e-05
Al -3.164451e+00 1.775493e+00 -5.261749e+00 -1.216535e-04 -2.176676e-04 6.599549e-05
Al -3.174916e+00 1.785619e+00 -1.137168e-01 9.373027e-05 -7.590319e-05 -2.638633e-05
Al -2.940121e-02 -3.686979e+00 4.931597e+00 3.389373e-05 1.325949e-04 7.428410e-05
Al -2.311368e-02 -3.670415e+00 -5.267945e+00 -8.777487e-05 -5.063662e-05 -1.100123e-04
Al -1.726983e-02 -3.690050e+00 -1.035382e-01 3.177011e-06 1.581804e-06 -8.134989e-05
Al -1.597940e+00 -9.456179e-01 4.956008e+00 -1.003832e-04 3.646404e-05 2.130255e-05
Al -1.598789e+00 -9.402107e-01 -5.270863e+00 -1.281927e-05 -1.097855e-05 -5.923410e-05
Ga -1.584553e+00 -9.298818e-01 -1.289414e-01 -1.100055e-05 2.840187e-06 -5.669906e-05
N 1.552894e+00 9.195443e-01 4.314051e+00 -9.302493e-05 -4.587893e-06 -2.262713e-04
N 1.508420e+00 8.543315e-01 -5.877718e+00 1.028385e-05 6.804745e-06 5.317999e-05
N 1.550845e+00 8.691975e-01 -7.473305e-01 2.495250e-05 -7.287924e-06 4.530883e-05
N -2.236374e-02 3.595622e+00 4.345068e+00 -1.442676e-05 -1.641723e-05 2.610881e-05
N -2.697300e-02 3.599070e+00 -5.862032e+00 7.625002e-06 -9.591498e-06 4.844395e-05
N -2.433511e-02 3.555759e+00 -8.036803e-01 -3.128927e-07 3.295734e-05 1.668668e-05
N 3.172386e+00 -1.882480e+00 4.331504e+00 -9.489451e-05 -7.233965e-05 -2.580669e-04
N 3.133299e+00 -1.862237e+00 -5.859432e+00 5.365846e-06 -2.449102e-05 5.597680e-05
N 3.089201e+00 -1.836769e+00 -8.011123e-01 -7.341304e-05 2.987279e-05 8.529533e-05
N -4.760273e+00 8.719234e-01 4.340171e+00 3.238709e-05 -2.991106e-05 1.454077e-05
N -4.714259e+00 8.529330e-01 -5.882881e+00 1.077325e-04 8.187746e-05 1.534423e-04
N -4.753102e+00 9.231563e-01 -7.101741e-01 1.515979e-04 -2.367865e-05 -1.285539e-05
N -6.335732e+00 3.598123e+00 4.342256e+00 4.205425e-05 1.249812e-05 4.204634e-06
N -6.333458e+00 3.650556e+00 -5.888371e+00 -1.658658e-05 8.142171e-05 1.099852e-04
N -6.291013e+00 3.581263e+00 -7.084852e-01 1.753773e-05 8.544482e-05 6.472411e-06
N -3.177365e+00 -1.862497e+00 4.424360e+00 -1.398226e-04 3.331858e-04 1.378626e-05
N -3.175553e+00 -1.857028e+00 -5.866620e+00 3.664736e-05 -1.885494e-05 3.061536e-05
N -3.179058e+00 -1.861286e+00 -7.544329e-01 4.512119e-05 -2.540846e-05 4.423386e-05
N -1.596223e+00 8.721522e-01 4.339281e+00 -1.914675e-05 1.480879e-05 4.443150e-05
N -1.595471e+00 8.774383e-01 -5.870105e+00 1.045475e-05 -3.067160e-05 4.123644e-05
N -1.603900e+00 9.256317e-01 -7.801635e-01 -2.507737e-04 3.094114e-06 -2.966457e-05
N -3.180768e+00 3.600945e+00 4.342910e+00 5.781970e-06 2.768705e-05 -1.793076e-05
N -3.173503e+00 3.605684e+00 -5.805197e+00 -1.328180e-04 5.608807e-05 -8.705556e-05
N -3.221721e+00 3.578084e+00 -7.144618e-01 -7.828432e-06 4.268213e-06 5.344764e-06
N -6.262891e-02 -1.882820e+00 4.319388e+00 8.479533e-05 -2.674148e-04 -2.687579e-04
N -2.233852e-02 -1.856175e+00 -5.854592e+00 -3.333425e-06 -3.527758e-05 3.663238e-05
N 2.220093e-02 -1.888608e+00 -7.156489e-01 -4.797917e-05 -4.831052e-05 1.301041e-05
N -2.614808e-02 1.783440e+00 1.784694e+00 -1.289729e-05 2.767577e-05 7.002075e-05
N -2.422286e-02 1.780401e+00 6.857966e+00 -4.598677e-05 2.724952e-05 4.936190e-05
N -1.994155e-02 1.777944e+00 -3.320430e+00 -1.679618e-05 4.839276e-05 -1.467884e-05
N 3.137648e+00 -3.683152e+00 1.856334e+00 -4.555108e-05 -8.231408e-05 7.612802e-05
N 3.176835e+00 -3.659927e+00 6.845904e+00 6.133008e-05 -8.287065e-05 1.330002e-04
N 3.176345e+00 -3.655579e+00 -3.327591e+00 3.241514e-05 -1.938198e-04 -3.987067e-05
N 1.559758e+00 -9.497184e-01 1.800910e+00 -3.563572e-05 3.727849e-05 5.912840e-05
N 1.555100e+00 -9.540685e-01 6.921085e+00 -1.337947e-04 8.888044e-05 -2.464819e-05
N 1.595749e+00 -9.185511e-01 -3.342187e+00 1.395535e-04 -1.494025e-04 4.444346e-05
N 3.130999e+00 1.780196e+00 1.801845e+00 -1.411155e-05 -7.169157e-06 5.409833e-05
N 3.130587e+00 1.777863e+00 6.863051e+00 2.126487e-05 2.344678e-05 9.333654e-06
N 3.088374e+00 1.756239e+00 -3.290917e+00 -5.697303e-05 -1.104021e-05 4.442555e-05
N 6.285403e+00 -3.732465e+00 1.855882e+00 2.351626e-04 1.369051e-04 -3.519420e-05
N 6.285273e+00 -3.688468e+00 6.869667e+00 -1.588296e-05 4.942736e-06 4.045123e-05
N 6.251066e+00 -3.709710e+00 -3.363902e+00 -2.100276e-05 -3.038571e-05 -1.088821e-06
N 4.668733e+00 -9.281064e-01 1.848220e+00 -1.847924e-04 2.840259e-05 1.199980e-04
N 4.705840e+00 -9.517875e-01 6.871084e+00 4.243620e-05 2.089348e-05 2.537033e-06
N 4.668352e+00 -9.664232e-01 -3.362573e+00 -1.404520e-05 2.318333e-05 -4.655062e-05
N -3.174794e+00 1.778823e+00 1.814749e+00 -1.307277e-06 4.313852e-05 1.563082e-05
N -3.175933e+00 1.731901e+00 6.839731e+00 1.274601e-05 -4.875568e-05 1.169756e-04
N -3.137458e+00 1.755827e+00 -3.352318e+00 -1.065263e-05 1.584847e-05 -4.022009e-05
N -2.180954e-02 -3.685861e+00 1.817617e+00 -5.383614e-05 3.276345e-05 6.126264e-05
N -6.133019e-02 -3.656194e+00 6.843683e+00 -1.103691e-05 -9.502299e-05 -1.451593e-04
N -2.514017e-02 -3.680594e+00 -3.366045e+00 3.562692e-06 -1.265840e-06 1.007517e-04
N -1.561234e+00 -9.206648e-01 1.843598e+00 8.950936e-05 -2.367772e-04 3.428523e-05
N -1.594331e+00 -9.489385e-01 6.873624e+00 -3.675422e-05 2.066578e-05 6.064631e-05
N -1.595794e+00 -8.973877e-01 -3.351581e+00 -3.472261e-07 -5.398530e-05 -1.503621e-05
