108
Energy=-757092.380457 Lattice="9.449854 0.000000 0.000000 -4.737441 8.176498 0.000000 -0.013476 -0.003335 15.170575" Stress="0.000018 -0.000000 -0.000000 -0.000000 0.000026 -0.000002 -0.000000 -0.000002 0.000021" Properties=species:S:1:pos:R:3:forces:R:3
Al 1.537819 0.867191 2.376090 0.000379 0.000909 0.001614
Al 1.539830 0.871790 7.439909 0.001358 -0.000402 0.000118
Al 1.562413 0.876046 -2.694575 0.000748 -0.000791 0.000597
Al -0.045516 3.585065 2.392648 -0.001400 -0.000341 0.002918
Al -0.030525 3.586833 7.416771 0.000556 -0.000722 0.000536
Al -0.017833 3.584867 -2.678472 -0.002511 -0.002246 0.001756
Al 3.130049 -1.865065 2.380052 0.001476 -0.000011 -0.000474
Al 3.138835 -1.859271 7.433486 0.001186 -0.001506 -0.000301
Al 3.157642 -1.855290 -2.685455 0.000523 -0.000776 0.001832
Al -4.768151 0.872329 2.382991 0.002024 -0.003298 -0.000027
Al -4.764804 0.870947 7.429847 0.001106 -0.001323 0.000087
Al -4.747805 0.873743 -2.688281 0.001524 -0.001198 0.000537
Al -6.342260 3.591014 2.404277 -0.002902 -0.002019 0.004683
Al -6.331665 3.590893 7.426381 -0.000797 0.000304 -0.000503
Al -6.318963 3.584977 -2.693005 0.000891 0.000046 -0.007366
Al -3.176490 -1.855141 2.406852 -0.011433 -0.004243 0.004898
Al -3.171690 -1.851991 7.425176 0.000147 -0.001341 -0.000585
Al -3.164912 -1.852538 -2.708581 -0.000587 0.003859 0.010928
Al -1.620990 0.870016 2.401206 -0.000056 0.004501 0.001777
Al -1.619564 0.879452 7.429839 0.002854 -0.001396 -0.000457
Al -1.609191 0.889477 -2.701211 0.002498 -0.001109 0.001727
Al -3.195496 3.594331 2.399397 0.004005 -0.000969 0.000710
Al -3.197057 3.596085 7.423722 0.002605 0.000076 -0.000628
Al -3.173765 3.588551 -2.685546 0.000780 -0.000063 0.000172
Al -0.036222 -1.846635 2.405895 0.000251 -0.001467 0.001009
Al -0.029541 -1.854279 7.443214 0.001272 -0.001041 -0.000671
Ga -0.012399 -1.846489 -2.700606 0.001785 -0.001064 -0.000310
Al -0.033562 1.778141 4.912799 -0.002691 0.000312 0.000482
Al -0.015136 1.764935 -5.218153 -0.001986 -0.002755 0.000903
Al -0.006712 1.777155 -0.138866 -0.007648 -0.001795 -0.006601
Al 3.137906 -3.686620 4.916439 -0.002669 0.000073 -0.000697
Ga 3.145273 -3.683136 -5.214938 -0.002506 0.000781 0.000301
Al 3.149096 -3.685573 -0.151991 -0.002890 0.002229 -0.000216
Ga 1.565629 -0.957073 4.919343 -0.003566 0.001990 -0.000601
Al 1.583593 -0.943759 -5.225704 -0.004303 0.000523 -0.000478
Al 1.586003 -0.947066 -0.160230 -0.001197 0.001024 0.005704
Al 3.114125 1.782706 4.912235 0.000379 0.000069 0.000895
Al 3.134241 1.772515 -5.220093 -0.000980 -0.000159 0.001677
Al 3.132260 1.751452 -0.137483 -0.000164 0.008798 -0.010154
Al 6.276857 -3.674719 4.917244 -0.000320 0.000432 -0.002435
Ga 6.298506 -3.676950 -5.203356 -0.000552 0.000866 -0.000427
Ga 6.285545 -3.679602 -0.143024 0.000405 0.002567 0.001900
Al 4.712250 -0.951844 4.913060 -0.001200 0.001986 -0.000501
Al 4.720889 -0.934676 -5.221089 -0.001299 0.000345 0.001568
Al 4.713673 -0.946934 -0.142392 -0.007053 0.004499 0.000006
Al -3.192312 1.780799 4.911349 -0.000721 0.000413 0.000253
Al -3.182810 1.778605 -5.224334 0.000143 0.000166 0.001855
Al -3.181925 1.785260 -0.132490 0.000304 -0.000747 -0.006821
Al -0.032058 -3.675988 4.914846 0.000104 -0.000195 -0.000700
Al -0.010760 -3.677673 -5.225393 -0.000057 0.002763 0.001623
Ga -0.001984 -3.680773 -0.130782 -0.001901 -0.000104 0.000339
Al -1.605577 -0.946145 4.919947 -0.001725 0.002003 -0.000821
Al -1.586124 -0.932079 -5.230336 -0.000146 0.000405 -0.000063
Ga -1.593469 -0.919013 -0.109804 -0.003749 0.001542 -0.003698
N 1.538289 0.908384 4.298052 0.001414 0.001639 -0.003836
N 1.555682 0.874709 -5.814983 0.001435 -0.001330 0.000182
N 1.558727 0.867564 -0.760200 -0.000410 -0.000602 0.001481
N -0.035417 3.589406 4.317423 -0.000131 -0.000681 -0.000207
N -0.014338 3.543245 -5.841714 0.000297 0.000026 -0.004419
N -0.043669 3.572440 -0.766127 -0.004871 -0.003792 0.001261
N 3.165008 -1.881719 4.300523 0.004079 -0.002504 -0.002997
N 3.153705 -1.825918 -5.829201 0.000528 0.003604 -0.001230
N 3.147939 -1.859274 -0.754217 -0.001034 -0.001133 0.000651
N -4.767585 0.871658 4.309756 0.000881 -0.001148 -0.001496
N -4.751187 0.872474 -5.818464 0.001409 -0.000631 -0.001156
N -4.746925 0.868612 -0.757757 -0.000188 0.000324 0.001936
N -6.338222 3.592459 4.322911 -0.000127 -0.000874 0.000423
N -6.290721 3.576545 -5.828837 0.003229 -0.002646 -0.002269
N -6.317331 3.579158 -0.829158 -0.000257 -0.013204 0.019578
N -3.174064 -1.853531 4.324422 -0.000477 -0.001378 0.001538
N -3.160621 -1.820593 -5.830846 0.000261 0.003527 -0.001177
N -3.207003 -1.818485 -0.744865 0.005960 -0.004484 -0.014661
N -1.621695 0.879403 4.321651 0.003422 -0.001004 -0.000447
N -1.606942 0.884080 -5.820637 0.002599 -0.001109 -0.000143
N -1.616896 0.923854 -0.781292 0.007646 0.002218 0.003928
N -3.192650 3.598974 4.319693 0.002550 -0.000465 0.000082
N -3.210506 3.582034 -5.834488 -0.000842 -0.002940 -0.002506
N -3.148610 3.581723 -0.768154 0.005316 -0.002732 0.000703
N -0.062598 -1.869715 4.314457 -0.000412 -0.001504 -0.001260
N -0.014505 -1.850593 -5.809754 0.002210 -0.000428 0.001299
N 0.012407 -1.828495 -0.735560 0.003846 0.002353 0.003782
N -0.040854 1.771532 1.774800 0.000096 -0.001963 0.002626
N -0.028776 1.769380 6.831150 -0.001863 -0.000349 -0.000991
N -0.012205 1.774123 -3.297761 -0.001498 -0.000097 0.001171
N 3.124736 -3.683368 1.782082 -0.001518 -0.000155 -0.001329
N 3.133447 -3.680501 6.835447 -0.002163 0.000928 -0.000002
N 3.149249 -3.680474 -3.250576 -0.001479 0.001123 0.005908
N 1.550027 -0.953967 1.797351 -0.001378 0.000426 -0.005161
N 1.563146 -0.955822 6.881945 -0.003180 0.001583 0.004635
N 1.616131 -0.933720 -3.308627 0.000676 0.003516 -0.000602
N 3.111154 1.782814 1.769573 0.000378 -0.000532 0.002827
N 3.114234 1.775162 6.833082 -0.000542 -0.000537 -0.000488
N 3.132032 1.777344 -3.296155 -0.000395 -0.000608 -0.001085
N 6.263125 -3.680760 1.859642 0.004557 0.000516 -0.005195
N 6.280566 -3.674636 6.834156 -0.000177 0.000457 0.000469
N 6.282524 -3.674728 -3.226838 0.003191 0.000346 -0.002281
N 4.705046 -0.954265 1.774886 -0.002920 0.002817 0.004076
N 4.707381 -0.949200 6.830355 -0.001596 0.001546 -0.000500
N 4.720639 -0.947604 -3.297488 -0.001410 0.001549 -0.000182
N -3.190601 1.777642 1.777345 -0.000427 0.001365 0.004537
N -3.192024 1.779599 6.830497 -0.000265 -0.000231 -0.000270
N -3.176767 1.783187 -3.298118 -0.001194 0.000029 -0.001424
N -0.040854 -3.681074 1.859015 0.002451 0.003969 -0.004320
N -0.026680 -3.670862 6.832388 -0.000100 0.001339 -0.000151
N -0.008297 -3.707725 -3.307332 0.000014 -0.003273 -0.002661
N -1.649130 -0.948313 1.874022 0.018133 0.002835 -0.006282
N -1.595911 -0.945715 6.838462 -0.000613 0.001656 0.000146
N -1.615466 -0.921932 -3.315356 -0.005407 0.002243 -0.000384
