108
Energy=-1993027.714055 Lattice="9.521457 0.000000 0.000000 -4.768362 8.244946 0.000000 0.009567 0.027256 15.318980" Stress="-0.000208 0.000027 0.000001 0.000027 -0.000177 0.000004 0.000001 0.000004 -0.000209" Properties=species:S:1:pos:R:3:forces:R:3
Al 1.570670 0.911594 2.464987 -0.000750 -0.011274 -0.007323
Al 1.571439 0.915867 7.513284 -0.001683 -0.011092 -0.003121
Al 1.565397 0.890611 -2.750493 0.000189 -0.011482 -0.002701
Al -0.004408 3.638488 2.464582 -0.001716 -0.002695 -0.005533
Al -0.003700 3.640768 7.510946 -0.001943 -0.002031 -0.002146
Ga -0.008749 3.615870 -2.745229 -0.001825 -0.000576 -0.001600
Al 3.193465 -1.877977 2.466241 -0.003348 0.001244 -0.006531
Ga 3.193115 -1.875077 7.512723 -0.002358 0.000559 -0.002150
Ga 3.181856 -1.896473 -2.739507 -0.002030 0.000988 -0.002180
Ga -4.801970 0.907913 2.463283 -0.000096 -0.012521 -0.007638
Ga -4.799598 0.913238 7.517636 0.000913 -0.013048 -0.003184
Al -4.809119 0.890873 -2.746891 0.000779 -0.010615 -0.002837
Ga -6.378820 3.640729 2.460699 -0.001240 -0.001336 -0.004713
Ga -6.376715 3.642761 7.516911 -0.000668 0.000154 -0.000508
Al -6.383672 3.617350 -2.751977 -0.000417 -0.000374 -0.001993
Al -3.188952 -1.876911 2.465506 0.000562 0.001683 -0.006134
Al -3.184560 -1.871735 7.514449 0.000108 0.001574 -0.001800
Al -3.189906 -1.896657 -2.742423 -0.001158 0.001457 -0.001791
Ga -1.649352 0.914838 2.465451 0.013726 -0.007544 -0.010482
Al -1.649021 0.917119 7.515866 0.012267 -0.006356 -0.004156
Ga -1.659986 0.890545 -2.741516 0.012623 -0.007188 -0.005361
Ga -3.224914 3.645015 2.463800 0.012167 0.005433 -0.006837
Ga -3.224494 3.644802 7.515664 0.012006 0.005838 -0.002814
Ga -3.238087 3.618260 -2.742347 0.011986 0.006048 -0.003152
Ga -0.034759 -1.875158 2.462256 0.011848 0.009171 -0.008215
Ga -0.035607 -1.870612 7.517291 0.011650 0.008067 -0.003739
Ga -0.045366 -1.896408 -2.742260 0.012256 0.007452 -0.003888
Al -0.003231 1.821785 4.987124 -0.008757 -0.005640 -0.002599
Ga -0.007647 1.795928 -5.280793 -0.012124 -0.007941 -0.003647
Al -0.004996 1.802793 -0.232079 -0.009647 -0.007266 0.027891
Al 3.191843 -3.695975 4.986911 -0.009628 -0.003771 -0.002525
Ga 3.180725 -3.719767 -5.274159 -0.011507 -0.006386 -0.002821
Ga 3.183397 -3.720604 -0.204611 -0.011080 -0.004597 0.029675
Ga 1.616340 -0.968709 4.988513 -0.012289 0.007302 -0.006122
Ga 1.607503 -0.991556 -5.272958 -0.013329 0.007534 -0.005253
Ga 1.606861 -0.984859 -0.206370 -0.012284 0.008357 0.026931
Ga 3.145186 1.821160 4.987868 0.000244 -0.001842 -0.002110
Al 3.138934 1.798098 -5.275318 -0.000553 -0.002089 -0.000714
Al 3.136438 1.802743 -0.241697 0.000240 -0.003107 0.028921
Ga 6.335532 -3.692261 4.989058 0.000252 -0.001034 -0.000759
Ga 6.333108 -3.718539 -5.275994 -0.000253 -0.000426 0.000163
Ga 6.333549 -3.720619 -0.217323 -0.000212 0.001603 0.033222
Al 4.764998 -0.969176 4.987405 -0.002111 0.010822 -0.002095
Ga 4.755532 -0.990212 -5.270551 -0.000687 0.012858 -0.001908
Ga 4.755647 -0.986763 -0.213045 -0.000102 0.013195 0.029751
Ga -3.221953 1.825310 4.992255 0.000725 -0.000742 -0.002146
Ga -3.236785 1.800584 -5.274199 0.003198 -0.001337 -0.001553
Ga -3.234703 1.802047 -0.212896 0.002435 -0.001954 0.030463
Al -0.030109 -3.691444 4.988991 0.001589 0.000090 -0.001310
Al -0.041775 -3.719114 -5.272525 0.001878 0.001199 -0.000760
Ga -0.042816 -3.718280 -0.214148 0.002272 0.002054 0.031270
Ga -1.609498 -0.964880 4.991440 0.001052 0.013479 -0.003461
Ga -1.617934 -0.991789 -5.275176 0.001371 0.014816 -0.003083
Ga -1.614879 -0.986596 -0.209217 0.000211 0.014872 0.029058
N 1.564595 0.916113 4.384591 -0.016219 -0.005212 -0.007920
N 1.569984 0.892034 -5.883022 0.015622 -0.004816 -0.008525
N 1.564044 0.898564 -0.827949 -0.000834 0.003924 -0.001166
N -0.010417 3.636291 4.386663 -0.016682 -0.009089 -0.004756
N -0.012461 3.615756 -5.884593 -0.001529 0.000781 -0.018387
N -0.011265 3.612302 -0.815491 -0.002198 -0.016869 0.009166
N 3.196397 -1.879980 4.387061 0.013000 -0.007771 -0.005662
N 3.181333 -1.900677 -5.874232 -0.001979 0.001384 -0.000596
N 3.179981 -1.898759 -0.808600 -0.002472 0.000548 0.001952
N -4.798904 0.905375 4.393195 0.001890 -0.028210 0.009637
N -4.815693 0.891998 -5.871077 -0.014949 -0.004794 0.010322
N -4.813989 0.895663 -0.826679 -0.014177 -0.004351 -0.006102
N -6.369588 3.645954 4.392004 0.015137 0.009806 0.007912
N -6.376962 3.613341 -5.869852 0.015305 -0.008939 0.014050
N -6.383055 3.613131 -0.830998 -0.000263 -0.016575 -0.009154
N -3.190400 -1.870763 4.384112 -0.015088 0.010385 -0.011727
N -3.192819 -1.898836 -5.883302 -0.001431 0.001255 -0.018482
N -3.190239 -1.897257 -0.821709 -0.000831 0.001186 -0.016096
N -1.643823 0.919779 4.393903 0.026059 -0.000828 0.012729
N -1.660022 0.890923 -5.883240 0.012272 -0.007304 -0.011389
N -1.652082 0.898000 -0.811609 0.026261 0.000349 0.013421
N -3.225901 3.651045 4.394421 0.009646 0.021800 0.015218
N -3.242214 3.623202 -5.871801 -0.003270 0.015094 0.009437
N -3.235014 3.620953 -0.812524 0.012717 0.006777 0.005174
N -0.034830 -1.880986 4.392025 0.011104 -0.009983 0.009884
N -0.043413 -1.906125 -5.870873 0.011971 -0.010739 0.009935
N -0.042068 -1.895788 -0.811739 0.012381 0.007216 0.005282
N 0.004488 1.819524 1.872019 0.003459 0.002548 -0.029613
N -0.000869 1.822127 6.913208 -0.009116 -0.005282 0.002348
N -0.003590 1.793258 -3.347156 0.002917 -0.016309 0.009764
N 3.198667 -3.692156 1.868500 0.002543 0.001748 -0.013008
N 3.197604 -3.698026 6.908597 0.003076 -0.014574 -0.008941
N 3.182205 -3.719204 -3.343929 -0.012063 -0.006038 0.003689
N 1.623446 -0.965069 1.869195 0.001257 0.012467 -0.011358
N 1.616271 -0.959023 6.917948 -0.013194 0.022244 0.012260
N 1.606729 -0.983274 -3.341924 -0.013823 0.022334 0.011632
N 3.137509 1.813878 1.868210 -0.013419 -0.009277 -0.039872
N 3.140722 1.819670 6.917521 -0.013900 -0.010171 0.007723
N 3.138310 1.798270 -3.349834 0.000818 -0.001027 0.001129
N 6.329146 -3.690450 1.869814 -0.014124 0.007712 -0.017924
N 6.332872 -3.688833 6.920658 -0.014597 0.009070 0.013925
N 6.336998 -3.713221 -3.342399 0.015849 0.009372 0.013196
N 4.763731 -0.978445 1.866852 -0.000741 -0.003649 -0.014427
N 4.771208 -0.969436 6.909636 0.014694 0.005077 -0.009506
N 4.762436 -0.986415 -3.338128 0.014783 0.019669 0.014637
N -3.224558 1.822615 1.860015 0.000886 -0.001687 -0.029252
N -3.218053 1.821715 6.921201 0.016753 -0.010088 0.006955
N -3.238997 1.796710 -3.342012 -0.012823 -0.010266 0.006063
N -0.032585 -3.693808 1.854675 0.000976 -0.001257 -0.028848
N -0.032023 -3.691430 6.907773 0.001634 0.000030 -0.017786
N -0.046554 -3.719604 -3.350102 -0.013585 -0.008063 -0.012395
N -1.617797 -0.971539 1.865153 -0.014759 0.004044 -0.019778
N -1.614694 -0.960416 6.921787 -0.015144 0.019630 0.014873
N -1.623407 -0.992275 -3.342023 -0.014549 0.005133 0.008408
