108
Energy=-2.771214e+06 Lattice="9.694400e+00 0.000000e+00 0.000000e+00 -4.856147e+00 8.379572e+00 0.000000e+00 -1.381829e-01 -7.084762e-02 1.576005e+01" Stress="3.808574e-04 -5.718874e-05 -4.827798e-03 -6.232226e-05 5.638868e-04 -2.255655e-03 -4.835674e-03 -2.245131e-03 5.540061e-03" Properties=species:S:1:pos:R:3:forces:R:3 Config_type=AlGaN_super3_51_2_5.xyz
Al 1.530391e+00 8.370468e-01 2.481260e+00 1.051334e-03 2.550294e-04 1.303891e-03
Al 1.513809e+00 8.449681e-01 7.724514e+00 1.335130e-03 1.165017e-03 1.768238e-03
Ga 1.639343e+00 9.279998e-01 -2.779654e+00 1.267216e-03 -7.011764e-04 1.617622e-03
Ga -8.975940e-02 3.621543e+00 2.493330e+00 3.140250e-04 1.968078e-03 -1.012192e-03
Ga -9.667808e-02 3.629117e+00 7.725616e+00 3.497839e-04 -1.359660e-05 5.830461e-04
Ga 2.319132e-02 3.717596e+00 -2.770422e+00 5.680396e-04 -6.934986e-06 2.203437e-03
Ga 3.141574e+00 -1.957770e+00 2.491507e+00 8.723278e-04 1.696023e-04 -2.503540e-04
Ga 3.134914e+00 -1.937403e+00 7.725396e+00 7.901377e-04 -9.585028e-04 7.314779e-04
Ga 3.264924e+00 -1.864166e+00 -2.777805e+00 5.164713e-04 -9.250860e-04 9.601486e-04
Ga -4.942526e+00 8.459510e-01 2.491299e+00 1.133877e-03 -8.308218e-04 -1.002538e-03
Ga -4.959959e+00 8.532393e-01 7.727246e+00 1.124293e-03 -3.205017e-04 -1.172000e-04
Ga -4.826276e+00 9.362311e-01 -2.776702e+00 5.166400e-04 -1.005685e-03 -5.965385e-05
Ga -6.546104e+00 3.620331e+00 2.490638e+00 -1.185062e-04 9.461770e-04 -4.287483e-04
Ga -6.568348e+00 3.634648e+00 7.727209e+00 6.097879e-04 -6.322708e-05 2.052220e-04
Ga -6.437404e+00 3.722966e+00 -2.775015e+00 -7.500791e-05 -3.145270e-04 4.904129e-04
Ga -3.310523e+00 -1.954471e+00 2.492908e+00 5.694182e-04 3.107704e-04 -1.006141e-03
Ga -3.323513e+00 -1.941678e+00 7.734188e+00 4.525724e-04 -5.871797e-04 7.131904e-04
Ga -3.197418e+00 -1.860637e+00 -2.780318e+00 1.423901e-04 -1.016303e-03 9.858550e-05
Ga -1.697455e+00 8.568552e-01 2.474753e+00 1.904614e-03 -1.169969e-03 1.572224e-03
Ga -1.713728e+00 8.565385e-01 7.727573e+00 1.589752e-03 -4.976834e-04 -3.536924e-04
Ga -1.597164e+00 9.379790e-01 -2.779560e+00 1.466787e-03 -1.186364e-03 -8.224191e-04
Al -3.321442e+00 3.633409e+00 2.491081e+00 -2.632531e-04 -3.740504e-04 -5.465006e-04
Ga -3.337084e+00 3.646721e+00 7.730405e+00 9.038389e-04 -4.913373e-04 7.645511e-04
Ga -3.210639e+00 3.729092e+00 -2.775038e+00 7.604195e-04 -5.848557e-04 4.085948e-04
Ga -7.288077e-02 -1.951320e+00 2.490297e+00 1.395738e-03 1.068654e-05 -8.986929e-04
Ga -9.081620e-02 -1.930319e+00 7.727030e+00 1.468598e-03 -1.152032e-03 5.228220e-05
Ga 3.378702e-02 -1.856630e+00 -2.777677e+00 9.278972e-04 -1.153758e-03 3.284259e-04
Ga -7.958413e-02 1.763435e+00 5.102404e+00 -1.052076e-03 3.461336e-04 1.512174e-03
Ga 4.088087e-02 1.847596e+00 -5.416929e+00 -6.408726e-04 7.212884e-04 1.136780e-03
Ga 9.877523e-03 1.842321e+00 -1.402222e-01 9.312287e-04 3.324164e-03 2.040136e-03
Ga 3.144226e+00 -3.818360e+00 5.100840e+00 -1.444522e-03 7.526176e-05 1.421948e-04
Ga 3.276330e+00 -3.734751e+00 -5.403349e+00 -6.929607e-04 4.444431e-04 3.641487e-04
Ga 3.253134e+00 -3.720225e+00 -1.297195e-01 -2.150313e-03 -3.242122e-03 1.810417e-03
Ga 1.535650e+00 -1.009681e+00 5.110139e+00 -1.586300e-03 1.301687e-03 -6.065578e-05
Ga 1.662479e+00 -9.368277e-01 -5.415576e+00 -1.444783e-03 1.530145e-03 2.798415e-04
Ga 1.647825e+00 -9.253055e-01 -1.356448e-01 -3.569667e-03 -1.956456e-03 1.999824e-03
Ga 3.124337e+00 1.766399e+00 5.105951e+00 -2.241893e-05 6.466794e-04 1.074173e-03
Ga 3.255908e+00 1.850849e+00 -5.418700e+00 -4.100360e-04 4.839038e-04 1.273250e-03
Ga 3.242071e+00 1.867191e+00 -1.371607e-01 -3.285111e-03 -2.864240e-03 2.649493e-03
Ga 6.377118e+00 -3.811296e+00 5.112195e+00 4.139615e-04 1.226408e-04 2.200525e-04
Ga 6.502999e+00 -3.732483e+00 -5.402760e+00 -2.789161e-05 3.979688e-05 5.556511e-04
Ga 6.488495e+00 -3.716647e+00 -1.435184e-01 -3.644316e-03 -3.696140e-03 2.158102e-03
Ga 4.763408e+00 -1.020990e+00 5.112047e+00 -5.828827e-04 7.515006e-04 4.215217e-05
Ga 4.888682e+00 -9.392546e-01 -5.402586e+00 -7.041553e-04 7.846118e-04 -2.659146e-06
Ga 4.875089e+00 -9.238677e-01 -1.491820e-01 -3.375026e-03 -2.708792e-03 2.750524e-03
Ga -3.327236e+00 1.783658e+00 5.093405e+00 -2.846515e-04 5.401131e-04 1.227859e-03
Ga -3.201997e+00 1.858887e+00 -5.408378e+00 -7.242802e-04 3.277228e-04 1.005738e-03
Ga -3.218585e+00 1.877226e+00 -1.432153e-01 -3.822916e-03 -1.650899e-03 3.147109e-03
Ga -8.091960e-02 -3.811498e+00 5.096410e+00 -1.002914e-04 -1.371158e-04 1.006691e-03
Ga 3.989395e-02 -3.727048e+00 -5.405575e+00 -7.074086e-04 4.658446e-05 7.347834e-04
Ga 2.872937e-02 -3.712909e+00 -1.366388e-01 -3.007676e-03 -3.570293e-03 2.344471e-03
Ga -1.701179e+00 -1.015510e+00 5.108444e+00 -9.887926e-04 1.084590e-03 1.654883e-04
Ga -1.573448e+00 -9.351576e-01 -5.405187e+00 -1.150232e-03 6.111525e-04 3.104012e-04
Ga -1.592019e+00 -9.221912e-01 -1.559997e-01 -3.254351e-03 -3.929087e-03 3.916364e-03
N 1.521772e+00 8.435735e-01 4.411300e+00 9.090179e-04 -9.831236e-04 -2.044390e-03
N 1.646645e+00 9.241848e-01 -6.102070e+00 8.501038e-04 -1.089560e-03 -1.569402e-03
N 1.631042e+00 9.324107e-01 -7.910672e-01 3.796075e-05 -4.273259e-04 -1.640325e-03
N -9.222868e-02 3.632766e+00 4.476829e+00 4.268955e-04 1.031626e-04 -5.938757e-04
N 3.299017e-02 3.715101e+00 -6.046581e+00 2.528656e-04 -7.097641e-05 -7.165323e-04
N 1.170985e-02 3.722573e+00 -7.702815e-01 -2.482713e-04 -1.268705e-03 -2.785136e-03
N 3.144336e+00 -1.948772e+00 4.474970e+00 8.869488e-04 -3.567376e-04 8.786235e-05
N 3.273979e+00 -1.869870e+00 -6.048039e+00 5.658138e-04 -6.905422e-04 -3.471481e-04
N 3.257377e+00 -1.856163e+00 -7.882033e-01 -4.407949e-04 -1.731130e-03 9.797813e-04
N -4.946292e+00 8.455653e-01 4.474221e+00 9.458797e-04 -1.858506e-04 -2.785680e-04
N -4.817707e+00 9.268360e-01 -6.047300e+00 7.937971e-04 -5.049301e-04 -4.815985e-04
N -4.833281e+00 9.448195e-01 -7.885783e-01 -2.718987e-04 -1.383711e-03 8.307658e-04
N -6.557829e+00 3.634910e+00 4.475379e+00 3.028362e-04 9.777849e-05 -4.039666e-04
N -6.431008e+00 3.718988e+00 -6.045999e+00 1.809003e-04 6.120769e-05 -6.678532e-04
N -6.443660e+00 3.731770e+00 -7.839397e-01 -5.808914e-04 -6.594680e-04 3.958439e-04
N -3.316810e+00 -1.947301e+00 4.472580e+00 4.901045e-04 -3.029446e-04 -1.277480e-04
N -3.190576e+00 -1.866610e+00 -6.041139e+00 3.606097e-04 -4.661501e-04 -3.469402e-04
N -3.206046e+00 -1.853243e+00 -7.981416e-01 -7.211386e-04 -1.415428e-03 1.118105e-03
N -1.711591e+00 8.515538e-01 4.465539e+00 1.603832e-03 -6.657806e-04 -5.761877e-04
N -1.588851e+00 9.313572e-01 -6.047698e+00 1.236865e-03 -8.541703e-04 -3.553101e-04
N -1.609741e+00 9.424943e-01 -7.945202e-01 -2.614898e-04 -1.591544e-03 1.575758e-03
N -3.329391e+00 3.641485e+00 4.418227e+00 1.098777e-03 -1.987132e-04 -1.782684e-03
N -3.202834e+00 3.723387e+00 -6.044443e+00 7.685183e-04 -3.319357e-04 -5.664421e-04
N -3.217428e+00 3.738421e+00 -7.911743e-01 -3.670867e-04 -1.278769e-03 -2.423144e-04
N -8.653266e-02 -1.941531e+00 4.473397e+00 1.473498e-03 -5.972682e-04 1.412909e-05
N 3.808795e-02 -1.862391e+00 -6.047869e+00 1.020688e-03 -8.630338e-04 -3.958114e-04
N 2.675736e-02 -1.848473e+00 -7.896359e-01 -8.525959e-05 -1.743460e-03 9.954701e-04
N -2.869317e-02 1.756194e+00 1.857572e+00 -1.313950e-03 -2.057881e-03 -7.971383e-04
N -5.305812e-02 1.747752e+00 7.099998e+00 -4.085905e-04 2.236199e-04 -2.331656e-04
N 3.142774e-02 1.853529e+00 -3.423280e+00 -1.404202e-03 8.164606e-04 -1.115333e-03
N 3.110269e+00 -3.849087e+00 1.875285e+00 3.406556e-03 4.240399e-03 -3.490433e-03
N 3.141283e+00 -3.812756e+00 7.087595e+00 -4.111664e-04 7.677082e-04 -5.578305e-04
N 3.270248e+00 -3.730959e+00 -3.415985e+00 -7.835335e-04 5.951147e-04 -7.539157e-04
N 1.542456e+00 -9.796740e-01 1.865886e+00 1.106590e-03 3.444212e-03 -2.196062e-03
N 1.530618e+00 -9.649197e-01 7.104252e+00 -1.729359e-03 1.834817e-04 -7.288412e-04
N 1.657029e+00 -9.362545e-01 -3.426740e+00 -1.601395e-03 9.218665e-04 -6.623369e-04
N 3.103916e+00 1.739118e+00 1.865262e+00 3.057836e-03 4.050320e-03 -3.413707e-03
N 3.087976e+00 1.753001e+00 7.102467e+00 -1.466972e-03 -2.523546e-04 -3.572351e-04
N 3.254629e+00 1.858320e+00 -3.425756e+00 -5.820076e-04 3.980125e-04 -7.359368e-04
N 6.383410e+00 -3.820213e+00 1.852915e+00 4.002208e-03 3.375175e-03 -2.713856e-03
N 6.371703e+00 -3.807047e+00 7.094537e+00 -2.639449e-04 2.367076e-04 -6.809049e-04
N 6.497338e+00 -3.728857e+00 -3.413739e+00 -5.200133e-04 4.761165e-05 -6.415774e-04
N 4.767020e+00 -1.031531e+00 1.848618e+00 2.643410e-03 4.487120e-03 -2.747947e-03
N 4.758557e+00 -1.015576e+00 7.093091e+00 -8.162035e-04 5.295801e-04 -4.184468e-04
N 4.883196e+00 -9.338261e-01 -3.416885e+00 -9.635141e-04 9.654970e-04 -2.746379e-04
N -3.322424e+00 1.814756e+00 1.863490e+00 3.342915e-03 4.310614e-03 -1.805729e-03
N -3.332520e+00 1.783618e+00 7.083871e+00 -8.430731e-04 -2.016441e-06 -4.360544e-04
N -3.207050e+00 1.863504e+00 -3.421035e+00 -9.895756e-04 3.602555e-04 -6.615561e-06
N -3.852081e-02 -3.842413e+00 1.868547e+00 3.127175e-03 3.442622e-03 -1.993251e-03
N -9.003291e-02 -3.805064e+00 7.085403e+00 -9.324166e-04 5.262375e-04 -3.653625e-04
N 3.446278e-02 -3.722900e+00 -3.417986e+00 -9.063212e-04 1.960853e-04 -4.750727e-04
N -1.692280e+00 -1.027399e+00 1.844731e+00 2.445669e-03 5.304022e-03 -3.221736e-03
N -1.706558e+00 -1.011861e+00 7.091586e+00 -1.335057e-03 5.493656e-04 -5.241024e-04
N -1.577920e+00 -9.312816e-01 -3.419734e+00 -1.335723e-03 8.402292e-04 1.640233e-04
