108
Energy=-2.679656e+06 Lattice="9.476278e+00 0.000000e+00 0.000000e+00 -4.738139e+00 8.206697e+00 0.000000e+00 9.377101e-16 1.624162e-15 1.531397e+01" Stress="-9.843094e-02 7.389805e-03 -9.608214e-05 7.384591e-03 -8.995159e-02 -2.088935e-04 -9.183517e-05 -2.086260e-04 -9.270379e-02" Properties=species:S:1:pos:R:3:forces:R:3 Config_type=AlGaN_super3_49_1_0.xyz
Al 1.564294e+00 9.031460e-01 2.504900e+00 -1.467829e-03 -1.499184e-02 -1.228592e-02
Ga 1.564294e+00 9.031460e-01 7.521855e+00 -2.300006e-03 -1.863969e-02 -6.749123e-03
Ga 1.564294e+00 9.031460e-01 -2.775158e+00 -2.296065e-03 -1.876268e-02 -6.142752e-03
Al 2.938992e-08 3.612582e+00 2.504900e+00 -3.393000e-03 -1.487316e-03 -1.117123e-02
Ga 2.938992e-08 3.612582e+00 7.521855e+00 -3.188802e-03 -1.659111e-03 -3.123132e-03
Ga 2.938992e-08 3.612582e+00 -2.775158e+00 -3.251078e-03 -1.494569e-03 -2.858102e-03
Al 3.173845e+00 -1.884678e+00 2.504900e+00 -3.657740e-03 1.470324e-03 -1.266538e-02
Ga 3.173845e+00 -1.884678e+00 7.521855e+00 -3.412004e-03 1.968761e-03 -3.892615e-03
Ga 3.173845e+00 -1.884678e+00 -2.775158e+00 -3.477235e-03 1.926455e-03 -3.826387e-03
Ga -4.783396e+00 9.031460e-01 2.504900e+00 1.066355e-04 -1.763800e-02 -1.406263e-02
Ga -4.783396e+00 9.031460e-01 7.521855e+00 6.677348e-04 -1.738460e-02 -4.570681e-03
Ga -4.783396e+00 9.031460e-01 -2.775158e+00 8.381386e-04 -1.729484e-02 -5.604833e-03
Ga -6.347690e+00 3.612582e+00 2.504900e+00 -8.232449e-04 -3.164533e-04 -1.118362e-02
Ga -6.347690e+00 3.612582e+00 7.521855e+00 -1.504242e-04 5.510060e-05 -1.522232e-03
Ga -6.347690e+00 3.612582e+00 -2.775158e+00 -2.557262e-04 9.554549e-05 -1.893048e-03
Ga -3.173845e+00 -1.884678e+00 2.504900e+00 -1.055973e-03 2.962162e-03 -1.255153e-02
Ga -3.173845e+00 -1.884678e+00 7.521855e+00 -3.903352e-04 3.514581e-03 -2.597226e-03
Ga -3.173845e+00 -1.884678e+00 -2.775158e+00 -3.924632e-04 3.458029e-03 -2.984299e-03
Ga -1.654808e+00 9.031460e-01 2.504900e+00 1.683190e-02 -9.112181e-03 -1.674772e-02
Ga -1.654808e+00 9.031460e-01 7.521855e+00 1.663882e-02 -9.540083e-03 -8.307656e-03
Ga -1.654808e+00 9.031460e-01 -2.775158e+00 1.656928e-02 -9.365934e-03 -8.951086e-03
Ga -3.219102e+00 3.612582e+00 2.504900e+00 1.601561e-02 8.421553e-03 -1.415064e-02
Ga -3.219102e+00 3.612582e+00 7.521855e+00 1.539547e-02 8.170432e-03 -4.463602e-03
Ga -3.219102e+00 3.612582e+00 -2.775158e+00 1.555522e-02 7.935990e-03 -5.523555e-03
Ga -4.525702e-02 -1.884678e+00 2.504900e+00 1.568682e-02 1.131998e-02 -1.541131e-02
Ga -4.525702e-02 -1.884678e+00 7.521855e+00 1.520863e-02 1.124428e-02 -6.028366e-03
Ga -4.525702e-02 -1.884678e+00 -2.775158e+00 1.524595e-02 1.136938e-02 -6.127971e-03
Al 1.469567e-08 1.806291e+00 5.013378e+00 -1.192902e-02 -8.659312e-03 -6.391642e-03
Ga 1.469567e-08 1.806291e+00 -5.283635e+00 -1.545866e-02 -1.137173e-02 -6.299893e-03
Ga 1.469567e-08 1.806291e+00 -2.666800e-01 -1.504026e-02 -1.120269e-02 4.540851e-02
Ga 3.173845e+00 -3.690969e+00 5.013378e+00 -1.530868e-02 -8.410417e-03 -6.595335e-03
Ga 3.173845e+00 -3.690969e+00 -5.283635e+00 -1.559306e-02 -8.394062e-03 -4.965919e-03
Ga 3.173845e+00 -3.690969e+00 -2.666800e-01 -1.519409e-02 -7.854297e-03 4.676899e-02
Ga 1.609551e+00 -9.815320e-01 5.013378e+00 -1.656053e-02 9.772475e-03 -9.977673e-03
Ga 1.609551e+00 -9.815320e-01 -5.283635e+00 -1.653164e-02 9.574120e-03 -8.535472e-03
Ga 1.609551e+00 -9.815320e-01 -2.666800e-01 -1.630303e-02 9.539238e-03 4.314407e-02
Ga 3.128588e+00 1.806291e+00 5.013378e+00 -6.524922e-05 -3.565816e-03 -3.846532e-03
Ga 3.128588e+00 1.806291e+00 -5.283635e+00 7.118106e-04 -3.598573e-03 -2.815196e-03
Ga 3.128588e+00 1.806291e+00 -2.666800e-01 2.357176e-04 -3.714852e-03 4.937185e-02
Ga 6.302433e+00 -3.690969e+00 5.013378e+00 4.310233e-05 -5.026875e-04 -2.795186e-03
Ga 6.302433e+00 -3.690969e+00 -5.283635e+00 1.584604e-04 -1.787094e-04 -1.619091e-03
Ga 6.302433e+00 -3.690969e+00 -2.666800e-01 -4.395502e-05 -2.276312e-04 5.048510e-02
Ga 4.738139e+00 -9.815320e-01 5.013378e+00 -7.068240e-04 1.755562e-02 -6.100059e-03
Ga 4.738139e+00 -9.815320e-01 -5.283635e+00 -6.193313e-04 1.767618e-02 -4.946740e-03
Ga 4.738139e+00 -9.815320e-01 -2.666800e-01 -9.811119e-04 1.718848e-02 4.689633e-02
Ga -3.219102e+00 1.806291e+00 5.013378e+00 3.542281e-03 -2.198574e-03 -4.500752e-03
Al -3.219102e+00 1.806291e+00 -5.283635e+00 3.318989e-03 -1.925761e-03 -3.774356e-03
Ga -3.219102e+00 1.806291e+00 -2.666800e-01 3.618189e-03 -2.046026e-03 4.798204e-02
Ga -4.525703e-02 -3.690969e+00 5.013378e+00 3.175903e-03 1.263787e-03 -3.174487e-03
Ga -4.525703e-02 -3.690969e+00 -5.283635e+00 3.486268e-03 1.097285e-03 -2.773467e-03
Ga -4.525703e-02 -3.690969e+00 -2.666800e-01 3.370213e-03 1.489645e-03 4.909912e-02
Ga -1.609551e+00 -9.815320e-01 5.013378e+00 2.173311e-03 1.910703e-02 -6.602934e-03
Ga -1.609551e+00 -9.815320e-01 -5.283635e+00 2.125509e-03 1.911769e-02 -6.159473e-03
Ga -1.609551e+00 -9.815320e-01 -2.666800e-01 2.272838e-03 1.883712e-02 4.556484e-02
N 1.564294e+00 9.031460e-01 4.418497e+00 -1.988959e-02 -7.102342e-03 -9.014590e-03
N 1.564294e+00 9.031460e-01 -5.878516e+00 -1.327843e-03 -1.773071e-02 5.854517e-03
N 1.564294e+00 9.031460e-01 -8.615610e-01 -1.297254e-03 -1.772182e-02 9.340934e-03
N 2.938992e-08 3.612582e+00 4.418497e+00 -2.204050e-03 -2.154463e-02 -1.312774e-02
N 2.938992e-08 3.612582e+00 -5.878516e+00 -2.161286e-03 1.963533e-04 1.699049e-03
N 2.938992e-08 3.612582e+00 -8.615610e-01 -2.329643e-03 3.271249e-05 5.796325e-03
N 3.173845e+00 -1.884678e+00 4.418497e+00 -3.042775e-03 1.702444e-03 -2.113786e-02
N 3.173845e+00 -1.884678e+00 -5.878516e+00 -2.709116e-03 1.675435e-03 1.536965e-03
N 3.173845e+00 -1.884678e+00 -8.615610e-01 -2.846206e-03 1.651180e-03 5.232382e-03
N -4.783396e+00 9.031460e-01 4.418497e+00 5.832181e-04 -1.746768e-02 7.021546e-03
N -4.783396e+00 9.031460e-01 -5.878516e+00 1.913404e-02 -6.774516e-03 1.370647e-02
N -4.783396e+00 9.031460e-01 -8.615610e-01 3.643074e-04 -1.756049e-02 9.686064e-03
N -6.347690e+00 3.612582e+00 4.418497e+00 -2.274503e-04 6.103021e-04 2.906051e-03
N -6.347690e+00 3.612582e+00 -5.878516e+00 -8.396069e-04 4.922735e-04 2.106329e-03
N -6.347690e+00 3.612582e+00 -8.615610e-01 -6.518588e-04 3.295272e-04 6.317993e-03
N -3.173845e+00 -1.884678e+00 4.418497e+00 -8.337955e-04 2.195490e-03 2.706130e-03
N -3.173845e+00 -1.884678e+00 -5.878516e+00 -1.233985e-03 1.896890e-03 1.731132e-03
N -3.173845e+00 -1.884678e+00 -8.615610e-01 -1.263402e-03 1.960411e-03 5.924527e-03
N -1.654808e+00 9.031460e-01 4.418497e+00 3.182844e-02 -1.214811e-03 1.680904e-02
N -1.654808e+00 9.031460e-01 -5.878516e+00 -2.083846e-03 1.155446e-03 1.765551e-02
N -1.654808e+00 9.031460e-01 -8.615610e-01 1.661640e-02 -9.454487e-03 1.329702e-02
N -3.219102e+00 3.612582e+00 4.418497e+00 1.534547e-02 8.582930e-03 6.806768e-03
N -3.219102e+00 3.612582e+00 -5.878516e+00 1.538287e-02 -1.326337e-02 1.369756e-02
N -3.219102e+00 3.612582e+00 -8.615610e-01 1.548662e-02 8.465234e-03 9.754221e-03
N -4.525702e-02 -1.884678e+00 4.418497e+00 1.482164e-02 1.001238e-02 6.401972e-03
N -4.525702e-02 -1.884678e+00 -5.878516e+00 1.464592e-02 1.010890e-02 5.918583e-03
N -4.525702e-02 -1.884678e+00 -8.615610e-01 1.480487e-02 1.001305e-02 9.415653e-03
N 1.469567e-08 1.806291e+00 1.910020e+00 4.041460e-03 7.825994e-04 -2.414556e-02
N 1.469567e-08 1.806291e+00 6.926975e+00 -1.478354e-02 -1.001149e-02 -1.726717e-02
N 1.469567e-08 1.806291e+00 -3.370038e+00 -1.481745e-02 -1.020755e-02 5.778892e-03
N 3.173845e+00 -3.690969e+00 1.910020e+00 3.486473e-03 2.467465e-03 -2.415791e-02
N 3.173845e+00 -3.690969e+00 6.926975e+00 -1.562381e-02 -8.486245e-03 6.216917e-03
N 3.173845e+00 -3.690969e+00 -3.370038e+00 -1.560161e-02 -8.503809e-03 6.164624e-03
N 1.609551e+00 -9.815320e-01 1.910020e+00 1.679775e-03 1.682039e-02 -2.170569e-02
N 1.609551e+00 -9.815320e-01 6.926975e+00 -1.657963e-02 9.539549e-03 1.002274e-02
N 1.609551e+00 -9.815320e-01 -3.370038e+00 -1.671403e-02 9.526729e-03 1.010892e-02
N 3.128588e+00 1.806291e+00 1.910020e+00 -1.763620e-02 -1.284699e-02 -3.677273e-02
N 3.128588e+00 1.806291e+00 6.926975e+00 1.372551e-03 -2.098934e-03 2.237765e-03
N 3.128588e+00 1.806291e+00 -3.370038e+00 1.125531e-03 -1.996875e-03 1.963120e-03
N 6.302433e+00 -3.690969e+00 1.910020e+00 -1.826876e-02 -1.124847e-02 -3.625491e-02
N 6.302433e+00 -3.690969e+00 6.926975e+00 5.985677e-04 -2.629082e-04 2.361345e-03
N 6.302433e+00 -3.690969e+00 -3.370038e+00 6.646129e-04 -3.551208e-04 2.218320e-03
N 4.738139e+00 -9.815320e-01 1.910020e+00 -1.920532e-02 7.015691e-03 -3.218540e-02
N 4.738139e+00 -9.815320e-01 6.926975e+00 -3.951143e-04 1.773081e-02 6.370426e-03
N 4.738139e+00 -9.815320e-01 -3.370038e+00 -4.038169e-04 1.763959e-02 6.268280e-03
N -3.219102e+00 1.806291e+00 1.910020e+00 2.902718e-03 -1.975860e-03 -4.464780e-02
N -3.219102e+00 1.806291e+00 6.926975e+00 2.934761e-03 -1.696485e-03 1.850765e-03
N -3.219102e+00 1.806291e+00 -3.370038e+00 2.923463e-03 -1.590061e-03 -2.189517e-02
N -4.525703e-02 -3.690969e+00 1.910020e+00 2.244194e-03 -4.359679e-05 -4.416922e-02
N -4.525703e-02 -3.690969e+00 6.926975e+00 2.458420e-03 -4.939720e-05 2.076460e-03
N -4.525703e-02 -3.690969e+00 -3.370038e+00 2.322068e-03 6.909958e-05 1.981397e-03
N -1.609551e+00 -9.815320e-01 1.910020e+00 1.230843e-03 1.819114e-02 -3.986733e-02
N -1.609551e+00 -9.815320e-01 6.926975e+00 1.355544e-03 1.793631e-02 6.075178e-03
N -1.609551e+00 -9.815320e-01 -3.370038e+00 1.470775e-03 1.781551e-02 5.881161e-03
