108
Energy=-6.197661e+05 Lattice="9.431653e+00 0.000000e+00 0.000000e+00 -4.740959e+00 8.148583e+00 0.000000e+00 4.121063e-03 -1.543356e-02 1.515918e+01" Stress="3.963752e-03 -1.349242e-03 2.265409e-04 -1.350542e-03 1.424026e-03 -3.927502e-04 2.249422e-04 -3.949712e-04 6.762363e-03" Properties=species:S:1:pos:R:3:forces:R:3 Config_type=AlGaN_super3_4_0_5.xyz
Al 1.543705e+00 8.478836e-01 2.384450e+00 2.197300e-03 9.629304e-04 -8.936590e-04
Al 1.542091e+00 8.562974e-01 7.421070e+00 1.905931e-03 -8.968323e-04 1.195489e-03
Al 1.545923e+00 8.782447e-01 -2.682966e+00 7.334716e-05 2.436899e-05 1.901172e-03
Al -2.983111e-02 3.563352e+00 2.385916e+00 1.364674e-03 3.194270e-04 -1.932058e-03
Al -2.963242e-02 3.566012e+00 7.399034e+00 7.497655e-04 -1.517536e-03 8.193909e-03
Al -3.290995e-02 3.583734e+00 -2.653842e+00 7.882757e-04 -1.643394e-03 -2.229133e-03
Al 3.134193e+00 -1.867417e+00 2.380418e+00 1.246239e-03 -2.335373e-04 5.508999e-04
Al 3.139162e+00 -1.856692e+00 7.413865e+00 4.711643e-04 -7.523926e-04 1.055246e-03
Al 3.142953e+00 -1.838377e+00 -2.673462e+00 1.213117e-04 -8.606551e-04 9.833927e-04
Al -4.747292e+00 8.564442e-01 2.385299e+00 9.490473e-05 -7.755011e-04 -2.250972e-03
Al -4.747245e+00 8.588885e-01 7.424300e+00 9.715022e-04 -6.636921e-04 4.001676e-04
Al -4.751400e+00 8.793910e-01 -2.679367e+00 9.363256e-04 -5.540248e-04 -4.116074e-04
Al -6.330596e+00 3.565667e+00 2.402001e+00 -3.356263e-03 -1.256711e-03 -2.166362e-03
Al -6.315578e+00 3.571765e+00 7.417126e+00 -2.752532e-04 5.430780e-05 2.532516e-04
Al -6.326316e+00 3.581811e+00 -2.671701e+00 9.693327e-04 3.733874e-04 3.951817e-04
Al -3.154501e+00 -1.860973e+00 2.386310e+00 -8.720801e-04 -1.780148e-03 -9.840331e-04
Al -3.154740e+00 -1.850511e+00 7.416446e+00 3.114634e-04 -1.049535e-03 5.272228e-04
Al -3.164161e+00 -1.829632e+00 -2.667239e+00 1.002483e-03 -1.147897e-03 1.294029e-05
Al -1.609728e+00 8.601098e-01 2.388717e+00 2.932356e-03 1.699624e-04 -1.272469e-03
Al -1.607684e+00 8.686676e-01 7.424268e+00 2.150555e-03 -1.370457e-03 5.710881e-04
Al -1.619757e+00 8.883614e-01 -2.679876e+00 4.361807e-03 -6.927867e-04 1.077981e-04
Al -3.168283e+00 3.564898e+00 2.405326e+00 -6.565177e-03 4.276215e-03 -5.147813e-03
Al -3.186706e+00 3.576959e+00 7.417451e+00 1.581651e-03 -2.871225e-04 2.910440e-04
Al -3.180779e+00 3.586714e+00 -2.674507e+00 -7.611525e-05 1.499996e-04 -2.865932e-04
Al -2.141356e-02 -1.844928e+00 2.392772e+00 2.502563e-03 -1.312437e-03 -6.793620e-04
Al -1.419501e-02 -1.850433e+00 7.424829e+00 1.648646e-03 -1.231613e-03 4.184737e-04
Ga -2.012672e-02 -1.826647e+00 -2.681356e+00 1.743597e-03 -1.113518e-03 2.498127e-03
Al -2.488479e-02 1.751447e+00 4.902732e+00 -1.162467e-03 9.542872e-04 -1.084908e-03
Al -2.933454e-02 1.766427e+00 -5.209296e+00 -1.174637e-03 -9.003554e-03 5.074233e-03
Al -3.088722e-02 1.772978e+00 -1.406815e-01 -4.632801e-05 -8.786188e-04 -2.709731e-03
Al 3.142132e+00 -3.677662e+00 4.909341e+00 -3.767643e-04 1.345279e-03 -1.697184e-03
Ga 3.135564e+00 -3.665805e+00 -5.200694e+00 -1.723094e-03 1.079844e-03 -1.875544e-04
Al 3.147501e+00 -3.658262e+00 -1.418630e-01 -2.087872e-03 3.055560e-04 -2.411161e-03
Al 1.568644e+00 -9.614698e-01 4.903870e+00 -2.307616e-03 1.284949e-03 7.119871e-05
Al 1.571561e+00 -9.327766e-01 -5.218994e+00 -4.005563e-03 1.097717e-05 6.690254e-04
Al 1.576041e+00 -9.366785e-01 -1.472928e-01 -2.829980e-03 2.255197e-03 3.653861e-03
Al 3.113201e+00 1.757703e+00 4.906797e+00 -3.131008e-04 2.113933e-04 -3.664516e-04
Al 3.115900e+00 1.771325e+00 -5.213286e+00 -1.598142e-03 2.639829e-04 1.507901e-03
Al 3.105665e+00 1.775431e+00 -1.438268e-01 3.300808e-05 1.335982e-04 -1.331528e-03
Al 6.280825e+00 -3.671306e+00 4.908101e+00 -1.521807e-04 2.019911e-04 -1.810884e-03
Ga 6.283284e+00 -3.659851e+00 -5.199805e+00 -2.921217e-04 1.137813e-03 4.231366e-04
Al 6.269480e+00 -3.648935e+00 -1.401816e-01 2.053331e-03 -9.273565e-04 -1.953821e-03
Al 4.707440e+00 -9.562621e-01 4.902952e+00 -1.282225e-03 7.505504e-04 -1.113631e-03
Al 4.704889e+00 -9.252223e-01 -5.210887e+00 -1.151379e-03 -1.036878e-03 1.972365e-03
Al 4.700324e+00 -9.315015e-01 -1.434633e-01 -1.440822e-03 2.135428e-04 -1.461089e-03
Al -3.175902e+00 1.763297e+00 4.906274e+00 -1.207375e-03 -5.822929e-04 4.688279e-04
Al -3.186750e+00 1.777217e+00 -5.214024e+00 4.404460e-04 1.466838e-04 1.671261e-03
Al -3.174469e+00 1.783437e+00 -1.479933e-01 -2.691146e-03 -5.505159e-04 -6.356194e-04
Al -9.810506e-03 -3.665390e+00 4.902710e+00 -1.118283e-03 4.641877e-04 -7.061959e-04
Al -1.358470e-02 -3.657299e+00 -5.215043e+00 -6.917885e-04 2.990719e-03 1.916661e-03
Ga -7.168996e-03 -3.652569e+00 -1.245501e-01 -3.310984e-03 1.133665e-03 -1.568450e-03
Al -1.583532e+00 -9.491857e-01 4.909600e+00 -1.638588e-03 3.470057e-04 6.272826e-05
Al -1.591462e+00 -9.210138e-01 -5.220089e+00 -8.623168e-05 -7.285094e-04 9.797700e-04
Al -1.621444e+00 -9.041614e-01 -1.044717e-01 8.948469e-03 -6.369493e-03 -1.376241e-02
N 1.542989e+00 8.530275e-01 4.304994e+00 1.455869e-03 -4.794559e-04 -4.736066e-04
N 1.539209e+00 8.753739e-01 -5.816046e+00 1.838949e-03 -8.316313e-04 -8.070797e-04
N 1.540055e+00 8.733318e-01 -7.504942e-01 8.483146e-04 -3.518267e-04 -9.918350e-04
N -2.968294e-02 3.567369e+00 4.304037e+00 8.610511e-05 -6.358050e-05 1.114782e-03
N -3.154743e-02 3.516576e+00 -5.806644e+00 1.209571e-04 9.945626e-03 -1.804735e-02
N -3.236077e-02 3.586169e+00 -7.421194e-01 2.775599e-04 -6.298540e-04 2.088504e-03
N 3.136299e+00 -1.864927e+00 4.304209e+00 6.270666e-04 -7.450823e-04 -1.511808e-04
N 3.139065e+00 -1.812011e+00 -5.829055e+00 6.779880e-04 3.000512e-03 -2.261972e-03
N 3.135008e+00 -1.840859e+00 -7.489314e-01 1.076547e-03 -1.415095e-03 1.079694e-03
N -4.747958e+00 8.583765e-01 4.302754e+00 1.404104e-03 -3.190305e-04 -1.221779e-04
N -4.751881e+00 8.735783e-01 -5.812275e+00 1.233999e-03 2.497912e-04 -1.189227e-03
N -4.752694e+00 8.821676e-01 -7.561033e-01 1.790040e-03 -8.977866e-04 1.865293e-03
N -6.324311e+00 3.570322e+00 4.313353e+00 1.532423e-04 -2.646564e-04 1.216645e-03
N -6.292026e+00 3.570325e+00 -5.826509e+00 3.475084e-03 -2.568395e-03 -3.276608e-03
N -6.351354e+00 3.576048e+00 -7.580136e-01 -4.872464e-03 -2.534279e-03 -1.337722e-03
N -3.153444e+00 -1.858067e+00 4.304249e+00 4.625387e-04 -3.140559e-04 4.363992e-04
N -3.162567e+00 -1.806891e+00 -5.828633e+00 2.451226e-04 3.267277e-03 -2.135211e-03
N -3.164639e+00 -1.829422e+00 -7.449777e-01 1.323753e-03 -1.424318e-03 1.718796e-03
N -1.609524e+00 8.631854e-01 4.305294e+00 2.054959e-03 -9.967851e-04 -4.831113e-04
N -1.613255e+00 8.874389e-01 -5.815212e+00 1.608221e-03 -1.287779e-03 -7.731811e-04
N -1.616837e+00 8.886091e-01 -7.540942e-01 2.901793e-03 -1.513840e-03 1.506318e-03
N -3.175975e+00 3.575604e+00 4.315593e+00 5.045013e-04 -2.979769e-04 -3.936354e-04
N -3.219266e+00 3.575716e+00 -5.827231e+00 -1.143562e-03 -2.707139e-03 -2.900366e-03
N -3.152964e+00 3.580757e+00 -7.614057e-01 5.820815e-03 -3.097395e-03 3.608105e-04
N -1.796821e-02 -1.847228e+00 4.313532e+00 1.582649e-03 -1.075834e-03 -1.108593e-03
N -1.860079e-02 -1.834252e+00 -5.809807e+00 1.459362e-03 -9.892184e-04 4.774509e-04
N -7.822204e-03 -1.794499e+00 -7.128301e-01 -7.525486e-03 6.006482e-03 3.305396e-03
N -2.444825e-02 1.749511e+00 1.777714e+00 -2.382183e-03 1.276549e-03 2.692093e-03
N -2.479261e-02 1.751915e+00 6.815279e+00 -1.498412e-03 1.044135e-03 -1.680559e-04
N -2.859310e-02 1.773868e+00 -3.281966e+00 -1.599084e-03 2.494946e-04 1.913050e-03
N 3.143063e+00 -3.685707e+00 1.778732e+00 -3.270015e-03 2.491599e-03 2.031565e-03
N 3.139792e+00 -3.675702e+00 6.822228e+00 -7.710403e-04 5.436116e-04 1.319978e-03
N 3.138649e+00 -3.659479e+00 -3.238333e+00 -4.144340e-04 1.562453e-03 6.124979e-03
N 1.569005e+00 -9.614659e-01 1.792108e+00 -2.348999e-03 9.291225e-06 -2.320621e-03
N 1.569241e+00 -9.594552e-01 6.823516e+00 -2.641169e-03 1.015448e-03 -3.531983e-04
N 1.603698e+00 -9.215203e-01 -3.298885e+00 1.473845e-03 2.579630e-03 -2.797001e-03
N 3.113980e+00 1.758632e+00 1.776371e+00 -2.380298e-04 1.484384e-04 2.833370e-03
N 3.115566e+00 1.758765e+00 6.822574e+00 -4.425935e-04 1.715189e-04 2.769017e-05
N 3.111647e+00 1.778876e+00 -3.287529e+00 2.065559e-04 1.616488e-04 -7.556880e-04
N 6.279366e+00 -3.676595e+00 1.780028e+00 -1.610081e-03 1.778449e-03 2.275886e-03
N 6.283090e+00 -3.668806e+00 6.821189e+00 -6.675897e-04 1.742384e-04 1.483111e-03
N 6.277550e+00 -3.651430e+00 -3.236372e+00 -6.929376e-04 1.192653e-03 6.206619e-03
N 4.708098e+00 -9.618175e-01 1.777676e+00 -1.546005e-03 2.639269e-03 1.798677e-03
N 4.708678e+00 -9.520716e-01 6.817155e+00 -1.047785e-03 4.338397e-04 -5.599833e-04
N 4.705615e+00 -9.355197e-01 -3.282906e+00 -1.141003e-03 6.899256e-04 -4.710052e-04
N -3.173816e+00 1.759630e+00 1.776274e+00 -1.441705e-03 1.987913e-03 2.028134e-03
N -3.177152e+00 1.763829e+00 6.821934e+00 -3.365129e-04 2.600235e-04 -1.780947e-05
N -3.180640e+00 1.783459e+00 -3.288248e+00 -1.144501e-03 1.422827e-04 -3.803352e-04
N -5.357725e-02 -3.661551e+00 1.835136e+00 1.671443e-02 -3.222374e-03 8.540978e-03
N -9.862347e-03 -3.664775e+00 6.819072e+00 -2.616354e-04 8.997452e-04 -2.746727e-04
N -1.249514e-02 -3.684909e+00 -3.291475e+00 -3.755705e-04 -4.449651e-03 -2.768866e-03
N -1.588104e+00 -9.517948e-01 1.777515e+00 -2.908360e-03 3.348746e-03 8.932333e-03
N -1.581797e+00 -9.471386e-01 6.825985e+00 -1.136196e-03 5.759160e-04 -2.351043e-04
N -1.621606e+00 -9.104078e-01 -3.300253e+00 -5.733890e-03 2.285718e-03 -2.595040e-03
