108
Energy=-894419.015573 Lattice="9.453812 0.000000 0.000000 -4.731579 8.180936 0.000000 0.007282 -0.009778 15.212605" Stress="0.000007 -0.000002 0.000002 -0.000002 0.000001 -0.000002 0.000002 -0.000002 0.000012" Properties=species:S:1:pos:R:3:forces:R:3
Al 1.562013 0.876311 2.384396 0.000210 0.000957 0.000374
Al 1.567514 0.872536 7.427531 -0.000191 0.000473 0.000755
Al 1.566617 0.878057 -2.657044 -0.001139 0.000410 -0.000151
Al -0.025337 3.593960 2.402018 0.000027 0.000387 -0.000384
Al -0.013275 3.597355 7.430312 0.000075 -0.000123 0.000387
Al -0.027561 3.600038 -2.675993 -0.000389 0.000383 0.000149
Al 3.134672 -1.861983 2.371677 0.000203 0.000145 -0.000307
Al 3.145087 -1.863471 7.453819 0.000312 0.000040 0.000973
Al 3.132646 -1.861329 -2.666373 -0.000675 0.000194 -0.000140
Al -4.752504 0.875829 2.377459 0.000052 0.000146 -0.000215
Al -4.752547 0.866475 7.456100 0.000306 0.000048 0.000087
Al -4.769541 0.876714 -2.681149 0.000556 -0.000058 0.000439
Al -6.320780 3.583023 2.398945 -0.001416 -0.000193 -0.000763
Al -6.336422 3.582939 7.451638 -0.000238 0.000048 0.000303
Al -6.325075 3.586761 -2.691192 0.000152 0.000083 -0.000069
Al -3.174844 -1.851737 2.387836 -0.001954 -0.001232 0.001079
Al -3.176609 -1.868565 7.452370 0.000208 -0.000180 0.000070
Ga -3.187741 -1.862357 -2.676250 -0.000319 0.000109 0.000352
Al -1.601032 0.881416 2.381664 -0.000587 0.000258 0.000102
Al -1.604423 0.872483 7.428940 0.000593 -0.000201 0.000216
Ga -1.605805 0.888936 -2.644964 0.000626 -0.000258 0.000503
Al -3.171970 3.591888 2.386357 0.000422 -0.000362 -0.000190
Ga -3.169670 3.584507 7.458207 0.000571 -0.000160 0.000312
Al -3.182268 3.606446 -2.682699 0.000385 -0.000343 -0.000323
Ga -0.023595 -1.858180 2.397779 0.001107 0.000151 -0.000125
Ga -0.017785 -1.859764 7.430374 0.000317 0.000246 0.000199
Al -0.013366 -1.868857 -2.650723 0.000122 -0.000011 0.000269
Al -0.020226 1.773820 4.909929 -0.000271 0.000287 -0.000195
Ga -0.022568 1.797548 -5.231876 -0.000147 0.000156 0.000542
Al -0.015631 1.780417 -0.120344 -0.002232 -0.001223 -0.002715
Al 3.131648 -3.682640 4.905008 -0.000287 0.000039 -0.000249
Al 3.135864 -3.672054 -5.211690 -0.000048 0.000505 0.000297
Al 3.124314 -3.681204 -0.144457 -0.000246 0.000314 -0.000492
Al 1.562495 -0.947078 4.909772 0.000979 0.000693 0.001976
Ga 1.572483 -0.949971 -5.197373 -0.000467 0.000155 0.000240
Al 1.560547 -0.946181 -0.153442 -0.000647 0.000070 -0.000714
Al 3.128698 1.783472 4.916022 -0.000039 -0.000213 -0.000107
Al 3.134823 1.787694 -5.224486 0.000337 0.000216 0.000538
Al 3.133101 1.773123 -0.144356 -0.000080 0.000277 -0.000345
Al 6.293409 -3.685876 4.910854 -0.000310 0.000302 0.000077
Al 6.277228 -3.678592 -5.231225 0.000198 -0.000069 -0.000023
Ga 6.283755 -3.686408 -0.126919 0.000278 0.000072 -0.001565
Ga 4.707091 -0.950754 4.917062 -0.000265 0.000366 0.000588
Al 4.698244 -0.941932 -5.235763 -0.000351 0.000038 -0.000120
Al 4.696050 -0.937593 -0.129147 -0.000331 -0.000001 -0.000410
Al -3.171847 1.780525 4.901050 0.000028 0.000124 -0.000161
Al -3.196268 1.785448 -5.214493 -0.000537 0.000268 0.000007
Al -3.185114 1.785361 -0.133074 -0.000632 0.000292 -0.000366
Al -0.021694 -3.693663 4.911655 0.000533 0.000636 -0.000945
Al -0.029353 -3.688776 -5.199150 -0.000174 0.000117 0.000050
Al -0.014037 -3.684244 -0.149884 -0.000016 0.000382 -0.001529
Al -1.597276 -0.941918 4.917199 -0.000276 0.000230 0.000266
Ga -1.610603 -0.946231 -5.224467 -0.000452 0.000045 0.000227
Al -1.595591 -0.943242 -0.124206 0.000454 0.000145 -0.000404
N 1.557465 0.870647 4.308346 0.000064 -0.000397 0.000305
N 1.593401 0.893690 -5.869718 -0.000216 -0.000037 -0.000684
N 1.554406 0.876956 -0.739121 0.000034 -0.000047 0.000177
N -0.022036 3.592969 4.317772 0.000127 -0.000062 0.000322
N -0.030019 3.650093 -5.862461 -0.000045 0.000135 -0.000580
N -0.063121 3.573749 -0.762216 -0.000640 -0.000206 0.000290
N 3.094167 -1.884249 4.280892 -0.000235 -0.000006 0.000247
N 3.164257 -1.882536 -5.842873 0.000174 -0.000319 -0.000194
N 3.137344 -1.862337 -0.743383 0.000083 0.000001 -0.000034
N -4.752642 0.915368 4.287557 0.000169 0.000083 0.000136
N -4.756369 0.878645 -5.831884 0.000353 -0.000003 -0.000160
N -4.752861 0.868650 -0.751985 0.000273 0.000122 0.000024
N -6.324292 3.588876 4.309580 0.000115 0.000153 -0.000094
N -6.329510 3.599515 -5.829622 0.000087 0.000071 -0.000147
N -6.288939 3.570543 -0.776740 0.000235 -0.000141 0.000037
N -3.129702 -1.881039 4.298174 -0.000048 -0.000371 0.000041
N -3.215311 -1.880249 -5.842548 -0.000296 -0.000118 -0.000164
N -3.178479 -1.813856 -0.705578 0.000013 0.000356 -0.000186
N -1.596662 0.872238 4.303887 0.000443 -0.000327 0.000220
N -1.649943 0.905651 -5.869466 0.000814 -0.000461 -0.000185
N -1.608273 0.875574 -0.671632 0.003048 0.000777 -0.000063
N -3.172590 3.595832 4.306414 -0.000138 -0.000084 -0.000149
N -3.178900 3.603645 -5.769312 0.000105 -0.000123 0.000101
N -3.175772 3.596818 -0.758524 0.000248 -0.000189 0.000275
N -0.016633 -1.858213 4.379069 -0.000795 -0.000783 -0.001307
N -0.018533 -1.902272 -5.814460 0.000363 -0.000353 -0.000071
N -0.025275 -1.859715 -0.728864 0.000265 -0.000127 -0.000000
N -0.015965 1.782485 1.793159 0.000095 -0.000129 0.001695
N -0.018903 1.772828 6.836088 -0.000200 0.000257 0.000032
N 0.014293 1.801849 -3.254732 0.001247 -0.000751 -0.000246
N 3.134039 -3.682359 1.778832 -0.000056 0.000269 0.000295
N 3.171799 -3.657931 6.818958 -0.000127 0.000393 -0.000542
N 3.133451 -3.673815 -3.284472 -0.000258 0.000364 0.000251
N 1.592570 -0.921838 1.762745 0.000316 -0.000989 -0.000206
N 1.610740 -0.928811 6.829964 -0.000377 -0.000586 -0.002591
N 1.552607 -0.944900 -3.211016 0.001235 -0.000375 -0.000118
N 3.128803 1.781539 1.774344 -0.000188 -0.000462 0.000594
N 3.136578 1.777377 6.836790 -0.000097 -0.000131 -0.000113
N 3.124159 1.778140 -3.296902 -0.000473 -0.000256 -0.000177
N 6.288349 -3.678552 1.840490 -0.000786 -0.001087 0.003103
N 6.290476 -3.680429 6.836046 0.000143 -0.000117 -0.000038
N 6.278999 -3.722729 -3.308596 0.000161 -0.000397 -0.000257
N 4.705047 -0.945378 1.789179 -0.000475 -0.000059 0.000616
N 4.710101 -0.950300 6.896848 -0.000320 -0.000028 -0.000255
N 4.659621 -0.921269 -3.312483 -0.000627 0.000024 -0.000391
N -3.178117 1.783683 1.783917 -0.000099 -0.000045 0.000846
N -3.179270 1.730154 6.814949 -0.000303 -0.000091 -0.000266
N -3.221540 1.800044 -3.296521 -0.000306 0.000500 -0.000060
N -0.022070 -3.723902 1.763786 0.000959 -0.000105 0.001610
N -0.058702 -3.715040 6.808731 0.000049 -0.000022 0.000874
N -0.025895 -3.671990 -3.277595 0.000107 0.000045 0.000094
N -1.639362 -0.926275 1.784853 0.002247 0.001108 -0.001104
N -1.638875 -0.928522 6.830160 -0.000854 0.000230 -0.000172
N -1.557529 -0.963791 -3.259094 0.000051 -0.000280 -0.000006
