108
Energy=-1352173.842820 Lattice="9.501589 0.000000 0.000000 -4.752338 8.229298 0.000000 0.001876 0.002551 15.338053" Stress="-0.000003 -0.000001 0.000001 -0.000001 -0.000003 0.000001 0.000001 0.000001 -0.000000" Properties=species:S:1:pos:R:3:forces:R:3
Al 1.570873 0.872431 2.404454 -0.000318 0.000090 -0.000001
Al 1.566223 0.881316 7.531155 -0.000008 -0.000614 0.000002
Al 1.569635 0.870231 -2.719757 0.000078 -0.000197 -0.000120
Al 0.002627 3.623524 2.431160 -0.000326 -0.000044 -0.000229
Al -0.008979 3.611892 7.506974 0.000075 0.000197 -0.000118
Al -0.019305 3.609960 -2.708190 0.000005 0.000086 -0.000002
Al 3.150967 -1.846008 2.398313 -0.000235 -0.000030 0.000021
Al 3.142406 -1.856009 7.525115 -0.000056 -0.000089 0.000119
Ga 3.131780 -1.860477 -2.697307 -0.000125 0.000064 -0.000022
Al -4.791847 0.859748 2.418024 0.000142 0.000127 0.000168
Al -4.793439 0.873445 7.497541 0.000112 -0.000161 0.000105
Al -4.799807 0.874205 -2.683026 0.000031 0.000037 -0.000093
Al -6.367475 3.622784 2.393109 0.000347 0.000064 0.000056
Al -6.362910 3.611748 7.502162 -0.000156 0.000077 0.000073
Ga -6.364247 3.595772 -2.675537 -0.000020 0.000024 -0.000037
Al -3.197937 -1.875985 2.409629 -0.000092 0.000113 0.000015
Ga -3.189012 -1.873497 7.487291 0.000089 0.000034 0.000026
Ga -3.181267 -1.866632 -2.675719 -0.000091 -0.000020 0.000130
Ga -1.596824 0.865016 2.434669 0.000022 0.000171 0.000038
Ga -1.588523 0.871091 7.507549 0.000031 -0.000212 0.000005
Ga -1.588407 0.864693 -2.707817 0.000186 0.000003 -0.000077
Ga -3.208633 3.630276 2.434492 0.000002 0.000061 -0.000044
Ga -3.198995 3.627911 7.503612 0.000082 0.000007 0.000081
Ga -3.185548 3.626535 -2.697458 0.000102 0.000005 -0.000172
Al -0.022821 -1.868273 2.403405 0.000015 -0.000305 -0.000029
Al -0.019252 -1.864714 7.508299 -0.000289 0.000249 0.000241
Al -0.017115 -1.850739 -2.686646 0.000270 0.000094 -0.000146
Al -0.016293 1.795465 4.966080 0.000245 -0.000444 -0.000066
Al -0.007898 1.788895 -5.265425 0.000197 0.000054 -0.000070
Ga 0.003048 1.787198 -0.144774 -0.000065 0.000044 0.000112
Ga 3.164007 -3.690960 4.959538 -0.000100 0.000098 0.000062
Al 3.157474 -3.697230 -5.280353 -0.000006 0.000078 -0.000028
Ga 3.158882 -3.685440 -0.113681 -0.000068 -0.000041 -0.000022
Ga 1.552534 -0.951856 4.966573 -0.000088 0.000068 0.000017
Al 1.547662 -0.945446 -5.282111 -0.000101 -0.000088 0.000092
Al 1.553675 -0.948071 -0.136779 0.000043 0.000040 0.000149
Ga 3.145073 1.799567 4.955681 0.000027 -0.000083 -0.000070
Al 3.132901 1.777578 -5.281588 -0.000051 -0.000292 0.000152
Al 3.142220 1.778793 -0.125363 -0.000187 -0.000078 0.000137
Al 6.319799 -3.693665 4.946618 0.000213 0.000048 0.000277
Ga 6.305255 -3.712838 -5.272568 0.000009 0.000070 0.000051
Al 6.316609 -3.694135 -0.118618 -0.000307 0.000339 -0.000231
Al 4.738382 -0.950733 4.950509 0.000070 -0.000068 0.000015
Ga 4.716821 -0.947139 -5.268520 -0.000041 -0.000050 0.000070
Al 4.727825 -0.946066 -0.123183 0.000481 0.000015 0.000003
Al -3.195451 1.775035 4.965089 0.000106 -0.000047 -0.000047
Ga -3.195923 1.778853 -5.261640 -0.000083 -0.000040 -0.000021
Ga -3.211312 1.775715 -0.134353 0.000084 -0.000010 -0.000008
Al -0.045668 -3.685554 4.961809 -0.000119 0.000109 0.000088
Ga -0.031109 -3.678001 -5.266636 0.000010 0.000105 0.000037
Al -0.039276 -3.677125 -0.133118 0.000088 -0.000153 0.000204
Al -1.608863 -0.963425 4.941364 0.000150 0.000307 0.000105
Al -1.582669 -0.955763 -5.264291 0.000022 -0.000094 -0.000022
Al -1.599678 -0.977494 -0.118750 -0.000014 0.000116 0.000161
N 1.521996 0.895942 4.310544 0.000207 0.000054 -0.000063
N 1.557725 0.876066 -5.881320 0.000021 -0.000050 -0.000037
N 1.608736 0.847711 -0.789636 0.000114 0.000062 -0.000005
N 0.025104 3.593624 4.337225 -0.000049 0.000195 0.000110
N -0.062036 3.587298 -5.913522 -0.000124 -0.000013 0.000142
N 0.017937 3.643670 -0.795536 0.000109 0.000068 0.000110
N 3.182641 -1.833399 4.307246 0.000072 -0.000058 -0.000032
N 3.101219 -1.889612 -5.890972 -0.000007 0.000090 -0.000094
N 3.142261 -1.819227 -0.713916 -0.000291 -0.000032 -0.000053
N -4.738374 0.850259 4.330077 -0.000023 0.000074 -0.000030
N -4.817222 0.895952 -5.933413 0.000015 0.000029 -0.000045
N -4.825567 0.849851 -0.768232 -0.000041 0.000026 0.000070
N -6.357422 3.666394 4.314203 -0.000066 -0.000114 -0.000224
N -6.357936 3.568752 -5.920216 0.000046 0.000222 -0.000144
N -6.362466 3.610028 -0.685882 0.000334 -0.000101 -0.000044
N -3.193650 -1.868729 4.343964 -0.000027 -0.000076 -0.000079
N -3.146868 -1.844378 -5.874572 -0.000034 0.000050 -0.000084
N -3.188396 -1.867509 -0.686767 -0.000316 -0.000175 0.000025
N -1.600257 0.877173 4.415402 -0.000413 -0.000137 -0.000071
N -1.561386 0.851357 -5.843414 -0.000018 0.000050 -0.000039
N -1.600795 0.820766 -0.731529 -0.000034 -0.000057 0.000004
N -3.236572 3.600713 4.410631 0.000043 -0.000207 0.000004
N -3.156661 3.640287 -5.861821 0.000025 -0.000067 0.000020
N -3.227657 3.648048 -0.723580 -0.000131 0.000064 0.000119
N -0.057311 -1.890624 4.317725 -0.000071 0.000044 -0.000162
N -0.024988 -1.820878 -5.917055 0.000158 0.000083 -0.000120
N -0.021050 -1.860766 -0.756434 0.000042 -0.000039 0.000046
N 0.020358 1.817083 1.828503 0.000299 -0.000217 0.000032
N 0.028930 1.811936 6.882855 -0.000201 0.000240 -0.000067
N 0.026964 1.814063 -3.338245 -0.000194 0.000112 0.000026
N 3.190793 -3.676449 1.860647 0.000176 0.000107 0.000054
N 3.194133 -3.665487 6.933611 0.000109 -0.000171 0.000048
N 3.192510 -3.717143 -3.358730 0.000036 0.000095 0.000024
N 1.555645 -0.950421 1.791889 -0.000152 -0.000012 -0.000025
N 1.562244 -0.949319 6.952829 0.000107 0.000424 0.000150
N 1.515580 -0.931812 -3.350361 -0.000253 -0.000226 0.000053
N 3.145032 1.785394 1.802469 -0.000018 -0.000035 0.000056
N 3.137786 1.789492 6.936399 0.000166 0.000064 -0.000046
N 3.145609 1.741076 -3.352188 0.000098 0.000141 -0.000081
N 6.307125 -3.695575 1.801719 0.000050 0.000025 0.000013
N 6.314627 -3.746244 6.868856 -0.000084 -0.000147 0.000011
N 6.278164 -3.720611 -3.301503 0.000096 -0.000008 -0.000096
N 4.731945 -0.949370 1.797381 -0.000041 -0.000043 -0.000005
N 4.682765 -0.931896 6.873028 -0.000009 0.000197 -0.000035
N 4.729808 -0.908438 -3.297434 0.000032 -0.000043 -0.000072
N -3.232940 1.764272 1.832048 -0.000045 -0.000077 -0.000130
N -3.230762 1.760966 6.875324 -0.000098 0.000002 -0.000078
N -3.237155 1.759762 -3.286058 -0.000041 -0.000071 0.000139
N -0.064045 -3.667594 1.778801 -0.000290 0.000219 -0.000248
N -0.072070 -3.666317 6.882474 0.000154 -0.000189 -0.000262
N -0.032300 -3.644830 -3.291452 -0.000034 0.000067 0.000041
N -1.607710 -1.002013 1.796543 0.000398 -0.000126 -0.000025
N -1.560797 -0.978992 6.846478 -0.000073 -0.000098 0.000055
N -1.562177 -0.986458 -3.352189 -0.000117 -0.000041 0.000006
