108
Energy=-1.169072e+06 Lattice="9.482119e+00 0.000000e+00 0.000000e+00 -4.741768e+00 8.213795e+00 0.000000e+00 3.994742e-04 -2.443965e-03 1.527916e+01" Stress="9.250218e-05 1.046594e-07 8.639204e-05 5.867702e-06 3.302233e-04 -6.979180e-05 8.510793e-05 -6.987374e-05 -1.829098e-04" Properties=species:S:1:pos:R:3:forces:R:3 Config_type=AlGaN_super3_16_2_31.xyz
Al 1.553550e+00 8.742807e-01 2.386601e+00 1.471071e-04 1.260535e-04 1.935795e-04
Al 1.565621e+00 8.676485e-01 7.480354e+00 -2.146857e-04 3.002523e-04 -3.476924e-04
Al 1.551739e+00 8.605468e-01 -2.678250e+00 9.602415e-05 -1.096664e-04 6.918425e-05
Al -1.395774e-02 3.597403e+00 2.418711e+00 1.720324e-04 1.939116e-04 -3.004691e-04
Al -3.175759e-02 3.616205e+00 7.457566e+00 -2.383075e-05 1.366904e-04 2.765736e-04
Al -3.101032e-02 3.604719e+00 -2.680277e+00 7.064242e-05 8.113606e-05 3.857078e-05
Al 3.136780e+00 -1.850438e+00 2.416553e+00 -1.049488e-05 -1.169408e-04 -1.392466e-04
Al 3.141280e+00 -1.870063e+00 7.487205e+00 1.422866e-04 -1.554574e-04 1.646495e-04
Al 3.131975e+00 -1.858516e+00 -2.718018e+00 -4.071483e-04 -3.348502e-04 1.560785e-04
Al -4.780271e+00 8.648725e-01 2.419527e+00 -5.547688e-05 3.780713e-04 7.921884e-05
Al -4.777827e+00 8.623646e-01 7.466148e+00 4.686799e-04 -1.717455e-05 3.721793e-04
Ga -4.781858e+00 8.586898e-01 -2.689247e+00 1.308228e-04 -3.630705e-05 1.525660e-04
Al -6.356664e+00 3.600269e+00 2.424563e+00 -3.387625e-04 1.541193e-04 -2.932568e-04
Ga -6.345352e+00 3.601407e+00 7.459636e+00 -5.015003e-05 8.580073e-05 1.701606e-04
Ga -6.358811e+00 3.597576e+00 -2.683280e+00 -2.274677e-05 1.585331e-04 2.849694e-05
Ga -3.184382e+00 -1.861894e+00 2.402209e+00 -2.213180e-04 -1.152403e-04 3.137672e-05
Al -3.188633e+00 -1.858307e+00 7.464817e+00 2.427025e-04 -1.953678e-04 3.189750e-05
Ga -3.184556e+00 -1.855776e+00 -2.676508e+00 2.291504e-04 1.072658e-04 3.369392e-04
Al -1.584186e+00 8.697355e-01 2.423440e+00 4.229024e-05 1.363204e-04 9.156133e-06
Ga -1.598182e+00 8.670896e-01 7.462478e+00 2.320011e-04 -1.250768e-04 6.161963e-05
Al -1.580542e+00 8.635346e-01 -2.686574e+00 -1.139877e-04 -2.600000e-04 1.671326e-04
Ga -3.182081e+00 3.613381e+00 2.440834e+00 2.046288e-04 2.271783e-05 -8.574120e-05
Al -3.173669e+00 3.621012e+00 7.452516e+00 8.929571e-05 1.129715e-04 8.772483e-05
Ga -3.162895e+00 3.622473e+00 -2.690825e+00 1.052256e-04 -6.762181e-06 -8.756825e-05
Al -1.847588e-02 -1.849563e+00 2.408489e+00 -2.058550e-04 3.724412e-04 -3.728418e-05
Al -1.906838e-02 -1.859842e+00 7.484685e+00 -1.946677e-04 5.641452e-05 -1.659675e-06
Al -9.605916e-03 -1.834935e+00 -2.693629e+00 -4.588019e-04 3.577802e-04 -2.984952e-04
Al -1.823866e-02 1.793008e+00 4.931747e+00 2.901908e-04 6.467417e-06 2.008834e-04
Ga -8.893247e-03 1.784043e+00 -5.235592e+00 -1.684758e-04 8.081006e-05 1.077131e-04
Al -1.166883e-02 1.778268e+00 -1.441160e-01 9.888449e-05 2.120936e-04 -2.097090e-04
Al 3.151073e+00 -3.690239e+00 4.948774e+00 3.225862e-05 -1.516694e-04 1.256083e-04
Al 3.145219e+00 -3.674042e+00 -5.263202e+00 1.180940e-04 9.299828e-05 2.414343e-04
Ga 3.166280e+00 -3.670044e+00 -1.274960e-01 -1.903061e-05 1.419717e-04 -1.160916e-04
Ga 1.556752e+00 -9.485761e-01 4.948353e+00 -6.506996e-05 1.171311e-04 1.749552e-04
Al 1.566312e+00 -9.484393e-01 -5.258991e+00 4.654721e-05 -1.805509e-05 1.042566e-04
Al 1.562480e+00 -9.397809e-01 -1.436668e-01 1.259826e-04 1.992631e-05 1.452064e-05
Al 3.136827e+00 1.782736e+00 4.925023e+00 5.248903e-04 2.998300e-04 3.574704e-04
Al 3.132105e+00 1.758690e+00 -5.258035e+00 -8.138426e-05 5.040594e-04 -1.813341e-04
Al 3.121222e+00 1.774582e+00 -1.107778e-01 2.325754e-05 -8.279499e-05 1.260071e-04
Al 6.292379e+00 -3.692212e+00 4.943433e+00 2.143533e-04 -8.599407e-05 1.403380e-04
Ga 6.283107e+00 -3.676690e+00 -5.260795e+00 8.702511e-05 4.375249e-06 1.654135e-04
Al 6.292884e+00 -3.699294e+00 -1.233508e-01 -5.009791e-05 -5.637470e-05 -7.620145e-04
Al 4.719691e+00 -9.502485e-01 4.956188e+00 2.027382e-04 -5.140188e-04 -4.716416e-04
Al 4.709280e+00 -9.542086e-01 -5.278467e+00 4.173269e-05 6.496077e-05 1.705769e-04
Al 4.705726e+00 -9.537370e-01 -1.288090e-01 -2.895246e-04 1.738585e-04 2.411880e-04
Al -3.190415e+00 1.777291e+00 4.942138e+00 1.029536e-05 1.446597e-04 1.773882e-05
Ga -3.192674e+00 1.780098e+00 -5.262797e+00 -7.872910e-06 -3.425333e-05 3.832363e-05
Ga -3.176622e+00 1.757237e+00 -1.167062e-01 1.978101e-05 -8.950384e-07 -7.212747e-05
Al -3.142658e-02 -3.686252e+00 4.945866e+00 3.820177e-05 6.710772e-04 -3.297427e-05
Ga -1.308598e-02 -3.672022e+00 -5.257679e+00 -8.849199e-05 5.621023e-05 5.725963e-05
Ga -4.260770e-02 -3.670173e+00 -1.225101e-01 7.476823e-05 -7.914344e-05 -1.796886e-04
Al -1.605051e+00 -9.565118e-01 4.939613e+00 -3.733488e-04 5.502797e-04 5.304161e-04
Al -1.600744e+00 -9.563438e-01 -5.248253e+00 -1.309097e-05 -3.788124e-05 4.814661e-04
Al -1.587869e+00 -9.422644e-01 -1.298560e-01 -1.119076e-03 -4.942732e-04 -2.305822e-03
N 1.557143e+00 9.180749e-01 4.300783e+00 -1.117886e-03 -4.185352e-04 -7.097785e-04
N 1.594096e+00 8.505143e-01 -5.885686e+00 5.302004e-05 -4.309953e-05 1.555609e-04
N 1.562280e+00 8.712184e-01 -7.441326e-01 7.012220e-05 4.985757e-05 2.799382e-05
N -2.212545e-02 3.608920e+00 4.335786e+00 4.441178e-05 2.479098e-05 -1.348330e-04
N -6.676690e-02 3.628857e+00 -5.911013e+00 1.137858e-05 -3.111044e-05 -2.402441e-04
N 1.696317e-02 3.586471e+00 -7.651627e-01 -7.645923e-05 -2.128158e-04 1.865728e-05
N 3.176668e+00 -1.885259e+00 4.326643e+00 9.622196e-04 7.602550e-04 2.670586e-04
N 3.136022e+00 -1.865811e+00 -5.867616e+00 -2.028601e-06 3.870436e-05 -2.115857e-05
N 3.136765e+00 -1.813844e+00 -7.905932e-01 1.191592e-04 2.372238e-05 1.458722e-04
N -4.768218e+00 8.651396e-01 4.337244e+00 1.822430e-04 -1.531292e-04 5.123801e-05
N -4.808632e+00 8.500026e-01 -5.893219e+00 4.715110e-05 -2.016538e-04 -2.754067e-04
N -4.811741e+00 8.493402e-01 -7.127176e-01 -5.617630e-05 1.353434e-04 8.144069e-05
N -6.349369e+00 3.610128e+00 4.349039e+00 1.336534e-04 4.693346e-05 -9.662578e-05
N -6.344826e+00 3.561717e+00 -5.847798e+00 -4.576213e-05 -3.559436e-04 -6.600516e-05
N -6.387002e+00 3.578610e+00 -7.076206e-01 4.508518e-05 -2.702133e-05 7.399807e-05
N -3.183483e+00 -1.865046e+00 4.381627e+00 -1.470990e-03 5.894402e-04 3.307317e-04
N -3.178747e+00 -1.810911e+00 -5.890357e+00 -1.337925e-04 -5.528382e-06 -2.191381e-04
N -3.183861e+00 -1.862518e+00 -6.801187e-01 8.523283e-04 5.147852e-04 1.377131e-04
N -1.598445e+00 8.710290e-01 4.348395e+00 4.101562e-05 4.119048e-06 -1.475383e-04
N -1.596889e+00 8.277850e-01 -5.851406e+00 8.632300e-05 2.540260e-04 -6.938264e-05
N -1.558282e+00 8.478682e-01 -7.685230e-01 -2.509394e-05 -2.993528e-05 -6.948371e-05
N -3.182028e+00 3.613721e+00 4.412182e+00 -3.405219e-04 -2.121066e-04 2.144077e-05
N -3.139465e+00 3.637526e+00 -5.905728e+00 -6.392806e-05 -1.164737e-04 -1.723176e-04
N -3.179458e+00 3.612414e+00 -7.262985e-01 -1.665937e-05 -4.717085e-05 2.915853e-04
N -6.390755e-02 -1.877687e+00 4.316624e+00 1.176643e-03 -1.699529e-03 -4.612037e-04
N -2.318209e-02 -1.808868e+00 -5.879709e+00 5.400506e-05 -1.511615e-04 -1.689379e-04
N -1.771153e-02 -1.809432e+00 -7.738229e-01 1.528441e-04 2.862992e-05 5.573394e-04
N -2.692090e-02 1.787133e+00 1.787576e+00 5.296466e-05 -1.382338e-04 3.456846e-04
N 2.557175e-02 1.807781e+00 6.846579e+00 9.358704e-05 -3.494683e-04 -1.729519e-04
N -1.571920e-02 1.786553e+00 -3.247983e+00 5.161857e-05 5.486576e-05 3.022841e-06
N 3.185413e+00 -3.662593e+00 1.844643e+00 -1.270554e-04 9.363416e-05 1.304737e-05
N 3.143518e+00 -3.682844e+00 6.863004e+00 3.826189e-05 1.127171e-04 -3.432176e-05
N 3.186715e+00 -3.665180e+00 -3.335319e+00 -1.327583e-04 1.012301e-04 -1.846974e-04
N 1.560752e+00 -9.547051e-01 1.790497e+00 -1.437376e-04 3.566538e-06 -1.704243e-04
N 1.560521e+00 -9.538752e-01 6.925769e+00 -5.360602e-05 -6.503503e-05 -1.362521e-04
N 1.559774e+00 -9.468247e-01 -3.321002e+00 -8.732987e-05 9.332995e-05 -2.092609e-04
N 3.137463e+00 1.785645e+00 1.810761e+00 -1.446002e-05 5.025553e-05 -8.381289e-05
N 3.134622e+00 1.730970e+00 6.835216e+00 -2.530805e-04 6.473690e-05 -3.090663e-04
N 3.089962e+00 1.754844e+00 -3.347170e+00 -1.313616e-04 -1.154818e-04 3.796302e-05
N 6.295578e+00 -3.739438e+00 1.788168e+00 2.807949e-04 -5.435032e-04 1.627290e-03
N 6.256669e+00 -3.666248e+00 6.856052e+00 -1.088362e-04 2.021629e-04 -2.205633e-04
N 6.252464e+00 -3.707354e+00 -3.290667e+00 -5.085316e-06 -6.197724e-05 -1.124258e-04
N 4.672271e+00 -9.269005e-01 1.783713e+00 -1.419720e-04 -7.413330e-04 -3.544881e-04
N 4.712819e+00 -9.542291e-01 6.875717e+00 -8.691286e-06 -1.485960e-04 -2.493930e-04
N 4.682476e+00 -9.777904e-01 -3.361439e+00 3.617111e-05 1.414759e-04 -3.015633e-04
N -3.180788e+00 1.732556e+00 1.859152e+00 2.626443e-05 -2.226686e-06 2.820522e-06
N -3.228884e+00 1.802985e+00 6.858224e+00 -1.556340e-04 -1.339551e-04 -1.210246e-04
N -3.145130e+00 1.758001e+00 -3.285807e+00 5.425910e-05 -1.169693e-05 -1.454349e-05
N -6.700654e-02 -3.663822e+00 1.850260e+00 -9.688289e-05 -3.704358e-06 1.955440e-04
N 1.540271e-02 -3.658750e+00 6.859748e+00 -5.871184e-05 5.093676e-05 -2.395768e-04
N -2.437523e-02 -3.637175e+00 -3.281838e+00 7.111287e-05 -1.255351e-04 9.373869e-06
N -1.558766e+00 -9.223670e-01 1.777138e+00 4.751668e-04 -7.655158e-05 1.954760e-03
N -1.597657e+00 -1.003514e+00 6.845832e+00 -2.567218e-04 -5.277764e-05 -2.131289e-05
N -1.564450e+00 -9.322679e-01 -3.324735e+00 1.849169e-04 -5.722122e-05 -3.622609e-04
