108
Energy=-1626826.690454 Lattice="9.541571 0.000000 0.000000 -4.773572 8.262272 0.000000 -0.041668 0.004575 15.408621" Stress="0.000002 -0.000001 -0.000009 -0.000001 0.000003 0.000001 -0.000009 0.000001 -0.000004" Properties=species:S:1:pos:R:3:forces:R:3
Al 1.563877 0.869382 2.434705 0.000284 -0.000243 0.000035
Al 1.541639 0.884775 7.545108 0.000062 -0.000237 -0.000081
Al 1.582185 0.868858 -2.722736 -0.000074 -0.000017 0.000014
Al -0.022519 3.648333 2.427413 -0.000084 -0.000216 -0.000051
Al -0.024471 3.633610 7.511748 -0.000022 0.000051 0.000022
Ga -0.007153 3.631008 -2.682809 -0.000051 0.000025 0.000034
Al 3.158749 -1.864213 2.405286 0.000066 0.000021 0.000303
Ga 3.137858 -1.868025 7.547480 0.000001 0.000012 -0.000076
Ga 3.173653 -1.851408 -2.697088 -0.000036 0.000030 0.000035
Al -4.805730 0.859499 2.395230 -0.000069 -0.000035 0.000011
Ga -4.828886 0.872908 7.581910 -0.000007 -0.000056 0.000040
Al -4.787383 0.862683 -2.714899 0.000119 -0.000145 0.000069
Ga -6.417545 3.633358 2.438732 -0.000021 -0.000063 0.000015
Al -6.419445 3.642554 7.533393 -0.000041 0.000036 0.000207
Ga -6.392106 3.617745 -2.709796 -0.000040 0.000071 0.000018
Al -3.227161 -1.879917 2.397204 -0.000087 0.000006 0.000129
Al -3.221562 -1.891031 7.549793 -0.000031 0.000017 0.000030
Al -3.201899 -1.859862 -2.689495 -0.000026 0.000020 -0.000003
Ga -1.621064 0.874176 2.411816 -0.000077 0.000037 0.000053
Ga -1.609136 0.876232 7.542712 -0.000022 -0.000039 0.000053
Al -1.611009 0.867181 -2.686742 -0.000044 -0.000012 0.000022
Ga -3.198461 3.631387 2.426794 -0.000016 0.000002 0.000041
Ga -3.224314 3.649095 7.529983 0.000016 -0.000021 0.000073
Ga -3.187668 3.617250 -2.682129 -0.000048 -0.000002 0.000039
Ga -0.021308 -1.857909 2.425587 -0.000025 0.000017 0.000021
Al -0.038886 -1.871703 7.538400 -0.000010 0.000046 0.000056
Ga -0.013722 -1.846005 -2.697310 -0.000011 0.000007 0.000069
Al -0.018339 1.809239 4.973633 -0.000151 -0.000021 -0.000247
Ga 0.014157 1.789493 -5.277450 -0.000042 0.000044 0.000061
Ga -0.020287 1.790773 -0.139840 -0.000092 0.000013 0.000069
Al 3.156528 -3.704452 4.962711 0.000176 0.000400 -0.000152
Ga 3.184779 -3.699952 -5.292304 -0.000049 0.000046 0.000014
Al 3.169771 -3.699789 -0.112035 -0.000020 0.000043 -0.000027
Al 1.553032 -0.957787 4.981614 0.000152 -0.000272 -0.000041
Al 1.592287 -0.943685 -5.301890 -0.000044 -0.000003 0.000021
Al 1.578548 -0.952543 -0.128890 0.000107 -0.000075 -0.000007
Ga 3.128307 1.795283 4.985138 0.000007 -0.000058 -0.000029
Al 3.163483 1.779037 -5.291036 -0.000026 0.000026 0.000001
Ga 3.159124 1.774141 -0.137135 -0.000069 0.000002 0.000050
Al 6.315649 -3.710775 4.991039 -0.000140 0.000368 -0.000055
Ga 6.351545 -3.707753 -5.307523 -0.000002 0.000019 -0.000006
Al 6.325038 -3.688608 -0.127385 -0.000080 0.000002 -0.000010
Ga 4.730461 -0.973995 4.957317 -0.000073 -0.000099 -0.000054
Al 4.760678 -0.956731 -5.266799 -0.000054 0.000011 0.000040
Al 4.755987 -0.962999 -0.137783 -0.000110 0.000000 -0.000042
Ga -3.218916 1.804193 4.978504 -0.000037 -0.000056 0.000024
Ga -3.199262 1.784790 -5.256834 -0.000052 0.000017 0.000044
Al -3.204065 1.778342 -0.154266 -0.000124 -0.000190 0.000009
Al -0.036034 -3.698246 5.001647 -0.000030 0.000051 0.000015
Ga -0.011458 -3.707311 -5.298192 -0.000052 0.000015 0.000006
Ga -0.017832 -3.704103 -0.137856 -0.000093 0.000050 0.000029
Ga -1.622408 -0.976629 4.995020 -0.000123 -0.000022 -0.000023
Ga -1.601927 -0.967126 -5.282232 -0.000075 0.000007 0.000022
Al -1.630816 -0.958734 -0.151659 -0.000038 0.000035 0.000010
N 1.513000 0.848215 4.348996 -0.000003 0.000229 0.000079
N 1.621986 0.854737 -5.937741 -0.000004 0.000009 -0.000022
N 1.571505 0.826016 -0.809217 0.000076 -0.000042 -0.000008
N -0.031006 3.637007 4.361272 0.000069 -0.000003 -0.000090
N -0.008028 3.624313 -5.979805 0.000024 -0.000014 -0.000033
N -0.023958 3.681366 -0.711239 0.000107 -0.000068 -0.000032
N 3.098619 -1.893776 4.333371 0.000008 -0.000278 -0.000080
N 3.177639 -1.824550 -5.875951 0.000058 -0.000013 -0.000006
N 3.159282 -1.872472 -0.702613 0.000033 0.000093 0.000044
N -4.810104 0.877248 4.301339 0.000109 0.000077 -0.000029
N -4.820399 0.849956 -5.850673 0.000060 -0.000002 -0.000008
N -4.757424 0.846775 -0.786189 0.000050 -0.000035 0.000024
N -6.402840 3.684263 4.417847 0.000140 -0.000046 -0.000012
N -6.371408 3.580825 -5.946976 0.000005 -0.000007 -0.000116
N -6.434628 3.650269 -0.734494 0.000090 -0.000007 -0.000023
N -3.213042 -1.926764 4.312301 0.000043 -0.000273 0.000122
N -3.233850 -1.849931 -5.945834 0.000058 -0.000008 -0.000031
N -3.208869 -1.876125 -0.760240 0.000072 -0.000041 -0.000010
N -1.583083 0.896822 4.387239 0.000147 0.000042 0.000055
N -1.592625 0.880641 -5.899807 0.000070 -0.000015 -0.000035
N -1.648778 0.853384 -0.766173 0.000059 -0.000033 -0.000044
N -3.218519 3.684504 4.406837 -0.000117 -0.000085 -0.000047
N -3.185562 3.628962 -5.910483 0.000060 -0.000010 -0.000025
N -3.153734 3.609189 -0.704680 0.000065 0.000104 -0.000019
N 0.007501 -1.895029 4.400939 0.000029 -0.000048 -0.000014
N 0.038174 -1.848862 -5.946249 0.000064 -0.000015 -0.000027
N -0.016083 -1.818708 -0.718064 -0.000007 -0.000037 0.000016
N 0.018287 1.821732 1.841575 -0.000233 0.000339 -0.000039
N 0.008019 1.822664 6.896964 0.000049 -0.000004 0.000135
N -0.014165 1.750202 -3.285093 -0.000010 0.000022 -0.000024
N 3.197784 -3.685378 1.805561 0.000045 -0.000063 0.000054
N 3.188401 -3.725075 6.880798 -0.000056 -0.000022 0.000007
N 3.173132 -3.707913 -3.325473 -0.000004 -0.000009 -0.000028
N 1.604494 -0.926365 1.787133 -0.000100 0.000013 -0.000145
N 1.512295 -0.927728 6.906472 -0.000052 0.000143 0.000081
N 1.578124 -0.912070 -3.383697 0.000013 0.000033 -0.000017
N 3.144815 1.748355 1.843191 0.000037 0.000015 -0.000011
N 3.097969 1.817416 6.963908 0.000024 -0.000025 -0.000064
N 3.164338 1.746291 -3.355260 -0.000087 0.000056 -0.000020
N 6.289183 -3.686503 1.786096 0.000158 0.000084 -0.000087
N 6.320222 -3.703654 6.921573 0.000014 0.000035 0.000015
N 6.345119 -3.657050 -3.327954 -0.000010 -0.000019 -0.000006
N 4.742593 -0.958951 1.792241 0.000028 -0.000018 -0.000021
N 4.772865 -0.977711 6.929422 0.000030 0.000025 0.000005
N 4.801924 -0.940298 -3.341592 0.000004 0.000064 0.000008
N -3.252246 1.771260 1.762665 0.000006 0.000028 -0.000049
N -3.229874 1.789912 6.937541 -0.000006 0.000049 -0.000034
N -3.194303 1.746724 -3.277701 0.000004 0.000020 -0.000034
N -0.032200 -3.711720 1.817947 0.000004 0.000006 -0.000011
N -0.085012 -3.682758 6.921817 0.000059 0.000019 -0.000076
N -0.012486 -3.707292 -3.320535 0.000015 0.000007 -0.000031
N -1.663106 -0.984293 1.764686 0.000100 0.000005 -0.000116
N -1.635745 -1.009416 6.971152 0.000029 0.000028 -0.000010
N -1.649495 -0.937728 -3.294134 -0.000000 0.000029 -0.000014
