108
Energy=-2771207.314061 Lattice="9.483153 0.000000 0.000000 -4.742375 8.210984 0.000000 -0.000924 0.000542 15.276932" Stress="-0.000548 0.000038 0.000000 0.000038 -0.000507 -0.000001 0.000000 -0.000001 -0.000544" Properties=species:S:1:pos:R:3:forces:R:3
Al 1.564886 0.902461 2.478910 -0.001589 -0.014045 -0.010506
Al 1.564534 0.902838 7.499560 -0.001269 -0.014450 -0.003863
Ga 1.566260 0.901773 -2.753884 -0.002099 -0.018167 -0.005525
Ga -0.001607 3.615138 2.478202 -0.003129 -0.001790 -0.010128
Ga -0.001320 3.614522 7.499744 -0.003056 -0.001734 -0.001762
Ga -0.000529 3.614944 -2.753675 -0.003126 -0.001494 -0.002092
Ga 3.174518 -1.884834 2.471461 -0.003373 0.001498 -0.010049
Ga 3.174995 -1.884560 7.499594 -0.003502 0.001907 -0.002694
Ga 3.176021 -1.885332 -2.750381 -0.003310 0.001918 -0.002217
Ga -4.787422 0.903550 2.472017 0.000775 -0.016277 -0.010628
Ga -4.787373 0.903148 7.499751 0.000462 -0.016695 -0.003763
Ga -4.786240 0.902539 -2.750392 0.000809 -0.016711 -0.003358
Ga -6.353057 3.614429 2.472171 0.000119 -0.000104 -0.007691
Ga -6.352960 3.614696 7.499682 -0.000225 -0.000274 -0.000493
Ga -6.352034 3.614131 -2.750501 -0.000145 0.000050 -0.000259
Ga -3.176454 -1.884680 2.471435 -0.000339 0.003123 -0.008877
Ga -3.176513 -1.884521 7.499762 -0.000414 0.003368 -0.001391
Ga -3.175611 -1.885081 -2.750270 -0.000360 0.003418 -0.001321
Ga -1.656326 0.903023 2.478295 0.016386 -0.008467 -0.014600
Ga -1.655646 0.903299 7.499873 0.016225 -0.009053 -0.007249
Ga -1.655652 0.902251 -2.753528 0.016109 -0.009169 -0.007434
Al -3.221401 3.614834 2.472533 0.012129 0.005267 -0.008307
Ga -3.221682 3.615058 7.499684 0.015008 0.007769 -0.003839
Ga -3.220614 3.614349 -2.750423 0.014972 0.007682 -0.003301
Ga -0.044871 -1.884304 2.471952 0.014896 0.010440 -0.011686
Ga -0.044948 -1.884328 7.499661 0.014949 0.010941 -0.004827
Ga -0.044054 -1.884944 -2.750383 0.014776 0.010888 -0.004481
Ga -0.001040 1.806504 4.988329 -0.014777 -0.010827 -0.005790
Ga -0.000262 1.806039 -5.265460 -0.014559 -0.011004 -0.005536
Ga -0.000421 1.805760 -0.253907 -0.014831 -0.011064 0.041826
Ga 3.174931 -3.692221 4.986966 -0.015129 -0.007803 -0.004324
Ga 3.175967 -3.693034 -5.264489 -0.015006 -0.007792 -0.003792
Ga 3.176688 -3.693976 -0.236011 -0.015092 -0.007594 0.039167
Ga 1.609605 -0.981307 4.987033 -0.016088 0.008954 -0.007366
Ga 1.610403 -0.981946 -5.264683 -0.016096 0.009299 -0.007548
Ga 1.610104 -0.981178 -0.235628 -0.016025 0.009124 0.035593
Ga 3.130440 1.806692 4.986982 0.000456 -0.003191 -0.001925
Ga 3.131325 1.806313 -5.264880 0.000136 -0.003415 -0.002044
Ga 3.130287 1.805946 -0.236470 0.000373 -0.003494 0.041633
Ga 6.306950 -3.691997 4.987084 0.000309 -0.000189 -0.000665
Ga 6.307850 -3.692842 -5.264450 0.000200 -0.000182 -0.000564
Ga 6.307105 -3.693808 -0.236166 0.000209 -0.000057 0.042609
Ga 4.740853 -0.980993 4.986135 -0.000795 0.016867 -0.003852
Ga 4.741806 -0.981554 -5.263949 -0.000787 0.016799 -0.003740
Ga 4.741791 -0.981697 -0.234035 -0.000890 0.016742 0.038579
Ga -3.221837 1.807109 4.986830 0.003139 -0.001620 -0.003344
Ga -3.220624 1.806625 -5.264626 0.003249 -0.001894 -0.002630
Ga -3.219570 1.806305 -0.236486 0.003253 -0.001882 0.040471
Ga -0.044774 -3.692219 4.985844 0.003201 0.001151 -0.002187
Ga -0.043846 -3.692750 -5.264074 0.003046 0.001310 -0.001431
Ga -0.043834 -3.692908 -0.234423 0.003204 0.001374 0.041053
Ga -1.610914 -0.981137 4.986985 0.002056 0.018189 -0.005013
Ga -1.609729 -0.981533 -5.264408 0.002026 0.018173 -0.004901
Ga -1.609404 -0.980726 -0.235874 0.002020 0.018042 0.037944
N 1.565220 0.902426 4.392081 -0.001305 -0.017244 -0.016855
N 1.565481 0.902353 -5.861821 -0.001222 -0.017150 -0.017849
N 1.566216 0.901724 -0.839008 -0.000960 -0.017273 0.008062
N -0.001420 3.615544 4.393009 -0.002243 0.000046 0.001845
N -0.000501 3.614184 -5.860741 -0.002307 0.000247 0.000974
N -0.000544 3.614888 -0.838650 -0.002232 0.000348 0.004922
N 3.175048 -1.884662 4.389555 -0.002810 0.001787 0.000496
N 3.176023 -1.885338 -5.860679 -0.002683 0.001670 0.000398
N 3.175840 -1.885580 -0.832139 -0.002723 0.001638 0.003188
N -4.787284 0.903062 4.389767 0.000410 -0.017344 0.005263
N -4.786241 0.902601 -5.860683 0.000528 -0.017298 0.004991
N -4.786243 0.902715 -0.832450 0.000438 -0.016992 0.007604
N -6.353056 3.614714 4.389866 -0.000729 0.000421 0.001595
N -6.351894 3.614307 -5.860619 -0.000565 0.000507 0.001220
N -6.352116 3.614032 -0.832602 -0.000557 0.000389 0.004136
N -3.176619 -1.884527 4.389514 -0.001168 0.002041 0.000653
N -3.175593 -1.885120 -5.860531 -0.001219 0.002054 0.000729
N -3.175449 -1.885350 -0.832136 -0.001189 0.001951 0.003322
N -1.656553 0.902793 4.392991 0.016315 -0.009489 0.009725
N -1.654889 0.902783 -5.860756 0.016114 -0.009354 0.008848
N -1.655554 0.902248 -0.838622 0.016042 -0.009227 0.012144
N -3.221548 3.614955 4.389140 0.014949 0.008220 -0.017505
N -3.220725 3.614531 -5.860627 0.015145 0.008298 0.004928
N -3.220493 3.614303 -0.832686 0.014999 0.008209 0.007317
N -0.045045 -1.884315 4.389674 0.014409 0.010010 0.004844
N -0.044067 -1.885098 -5.860639 0.014413 0.009842 0.004589
N -0.044042 -1.885007 -0.832508 0.014338 0.009663 0.007127
N -0.000358 1.805728 1.894572 0.003668 -0.020717 -0.030683
N -0.000422 1.806156 6.904454 0.003588 -0.020191 0.012123
N -0.000226 1.806033 -3.349334 -0.014476 -0.009764 0.004899
N 3.174539 -3.694092 1.876805 -0.030218 -0.016308 -0.027628
N 3.174991 -3.692503 6.903536 -0.014955 -0.008237 0.004916
N 3.175912 -3.692824 -3.347890 -0.015270 -0.008304 0.004847
N 1.608908 -0.979194 1.876488 -0.016451 0.026839 -0.023808
N 1.609444 -0.980406 6.903757 -0.016503 0.026512 0.014432
N 1.610587 -0.982117 -3.348009 -0.016267 0.009181 0.008571
N 3.128267 1.806121 1.877109 -0.017313 -0.012886 -0.030710
N 3.129661 1.806488 6.903822 -0.017200 -0.012321 0.008282
N 3.131625 1.806240 -3.348073 0.001290 -0.001778 0.000642
N 6.306100 -3.693249 1.876148 0.000518 -0.000212 -0.037518
N 6.306917 -3.692266 6.903676 0.000585 -0.000196 0.001062
N 6.307918 -3.692614 -3.347789 0.000757 -0.000396 0.001179
N 4.740746 -0.980959 1.873987 -0.000574 0.017322 -0.033040
N 4.740890 -0.980959 6.903176 -0.000302 0.017098 0.004712
N 4.741824 -0.981548 -3.346852 -0.000411 0.017148 0.004874
N -3.220523 1.808076 1.877013 0.002705 0.018975 -0.030948
N -3.221583 1.807204 6.903540 0.002873 -0.001862 0.000489
N -3.220883 1.806489 -3.347895 0.002742 -0.001486 0.000253
N -0.043866 -3.692950 1.874961 0.020409 -0.010460 -0.030053
N -0.044800 -3.692236 6.903047 0.002110 0.000112 0.000731
N -0.043889 -3.692819 -3.346862 0.002266 -0.000078 0.000636
N -1.610428 -0.980070 1.875757 0.001206 0.017602 -0.033943
N -1.610715 -0.980995 6.903594 0.001179 0.017332 0.004522
N -1.609935 -0.981720 -3.347739 0.001372 0.017247 0.004571
