108
Energy=-1.626827e+06 Lattice="9.542029e+00 0.000000e+00 0.000000e+00 -4.774400e+00 8.262400e+00 0.000000e+00 -4.463325e-02 4.904642e-03 1.540777e+01" Stress="5.016305e-04 -2.137992e-04 -1.817912e-03 -2.052807e-04 5.446870e-04 2.065870e-04 -1.826383e-03 2.010559e-04 -9.018747e-04" Properties=species:S:1:pos:R:3:forces:R:3 Config_type=AlGaN_super3_26_0_27.xyz
Al 1.563976e+00 8.697390e-01 2.434858e+00 4.221989e-05 -4.656273e-04 -2.869784e-05
Al 1.540009e+00 8.856510e-01 7.544882e+00 1.920303e-04 -6.374810e-04 -2.296451e-04
Al 1.582772e+00 8.685138e-01 -2.722508e+00 -2.196321e-05 1.159678e-04 -3.728045e-05
Al -2.585664e-02 3.647471e+00 2.427443e+00 1.170264e-03 4.953628e-04 -1.441328e-04
Al -2.623638e-02 3.633806e+00 7.511123e+00 3.259771e-05 2.736920e-05 5.584505e-05
Ga -6.756192e-03 3.630933e+00 -2.682677e+00 -4.195870e-05 4.022804e-05 -7.315318e-06
Al 3.158127e+00 -1.863572e+00 2.405264e+00 3.574711e-04 -3.426345e-04 3.026300e-04
Ga 3.136554e+00 -1.868064e+00 7.547162e+00 -5.966950e-05 1.091050e-04 -5.507225e-05
Ga 3.174569e+00 -1.851252e+00 -2.696864e+00 1.220790e-05 -4.437167e-05 -7.018142e-05
Al -4.806321e+00 8.596072e-01 2.395058e+00 -6.881766e-05 -3.396636e-05 7.882083e-05
Ga -4.830691e+00 8.731154e-01 7.581475e+00 -1.448386e-05 -4.185247e-05 -2.374646e-05
Al -4.786046e+00 8.620428e-01 -2.714071e+00 -3.053549e-04 6.895769e-05 -1.819102e-04
Ga -6.418212e+00 3.633650e+00 2.438414e+00 -1.559578e-04 2.327295e-05 4.540813e-05
Al -6.422052e+00 3.642542e+00 7.533786e+00 1.520976e-04 1.770590e-04 -1.901146e-04
Ga -6.392029e+00 3.617563e+00 -2.709695e+00 -7.856978e-05 3.865973e-05 -2.511922e-05
Al -3.228238e+00 -1.880107e+00 2.397184e+00 2.369473e-04 1.963348e-04 1.062495e-04
Al -3.223072e+00 -1.890870e+00 7.549445e+00 -2.301397e-05 -1.645251e-05 2.152086e-06
Al -3.201281e+00 -1.859753e+00 -2.689348e+00 -6.886516e-05 -6.624882e-05 -2.226649e-05
Ga -1.621420e+00 8.745832e-01 2.411609e+00 -1.415422e-04 -1.467541e-04 8.614363e-06
Ga -1.610757e+00 8.763940e-01 7.542171e+00 2.349933e-05 -5.033576e-05 7.275507e-05
Al -1.610534e+00 8.670671e-01 -2.686663e+00 7.922318e-06 6.602330e-06 5.985801e-05
Ga -3.199090e+00 3.631390e+00 2.426586e+00 -1.298907e-04 9.110582e-05 1.899058e-04
Ga -3.226148e+00 3.649355e+00 7.529350e+00 -8.038806e-05 -5.700980e-05 2.787731e-05
Ga -3.187508e+00 3.617118e+00 -2.682083e+00 -2.303287e-05 1.136009e-05 -7.881835e-07
Ga -2.135429e-02 -1.858023e+00 2.425306e+00 -9.734848e-05 -9.156550e-06 5.165555e-05
Al -4.026879e-02 -1.871649e+00 7.538006e+00 5.320809e-05 1.266915e-05 -3.300930e-05
Ga -1.291086e-02 -1.846059e+00 -2.697289e+00 -5.381317e-05 -6.582429e-05 -2.294576e-05
Al -2.082080e-02 1.810267e+00 4.972815e+00 3.944819e-04 -2.433959e-04 -1.328087e-06
Ga 1.505007e-02 1.789217e+00 -5.277263e+00 -4.276138e-05 8.840530e-05 7.163858e-05
Ga -2.037464e-02 1.791116e+00 -1.399804e-01 -1.359706e-04 3.151993e-05 6.196139e-05
Al 3.157305e+00 -3.702261e+00 4.963537e+00 -5.444203e-04 -5.591048e-04 -5.403773e-04
Ga 3.186259e+00 -3.700259e+00 -5.292036e+00 -5.356166e-05 7.913862e-05 2.880097e-05
Al 3.170361e+00 -3.699511e+00 -1.117725e-01 -1.015474e-04 3.975321e-05 5.371909e-06
Al 1.552969e+00 -9.582195e-01 4.980646e+00 -1.758671e-04 -1.521202e-04 3.048398e-04
Al 1.593432e+00 -9.438655e-01 -5.301630e+00 -2.905152e-05 -1.323585e-05 -3.028800e-05
Al 1.578769e+00 -9.526203e-01 -1.306492e-01 1.331388e-04 -5.718577e-05 6.795770e-04
Ga 3.127511e+00 1.795425e+00 4.984983e+00 -5.443372e-05 4.164476e-05 -1.308045e-05
Al 3.164562e+00 1.778875e+00 -5.291122e+00 -4.622492e-05 4.301417e-05 1.444005e-04
Ga 3.159446e+00 1.773825e+00 -1.370252e-01 -1.737425e-04 1.071914e-04 -7.994027e-07
Al 6.315088e+00 -3.709814e+00 4.990084e+00 3.256228e-05 -1.963623e-04 1.613143e-04
Ga 6.353103e+00 -3.707957e+00 -5.307274e+00 5.047506e-06 3.338337e-05 2.732710e-05
Al 6.325911e+00 -3.688465e+00 -1.276071e-01 -9.133807e-05 4.659934e-05 1.120790e-04
Ga 4.729748e+00 -9.743798e-01 4.957268e+00 -2.092795e-05 5.583312e-05 -5.672789e-05
Al 4.762044e+00 -9.567786e-01 -5.266708e+00 -1.124714e-04 -2.834946e-05 7.194773e-05
Al 4.756022e+00 -9.627791e-01 -1.378255e-01 1.621161e-05 -2.696388e-04 5.519540e-05
Ga -3.220152e+00 1.804093e+00 4.978102e+00 -1.114936e-04 1.099779e-04 2.254197e-05
Ga -3.198602e+00 1.784519e+00 -5.256670e+00 -6.298044e-05 5.613573e-05 4.258461e-05
Al -3.204678e+00 1.777657e+00 -1.539727e-01 -2.462155e-05 1.375767e-05 -6.859059e-05
Al -3.684580e-02 -3.698374e+00 5.001241e+00 1.206987e-05 1.817299e-05 1.908332e-05
Ga -1.017656e-02 -3.707514e+00 -5.298024e+00 -3.505326e-05 2.693609e-05 2.615817e-05
Ga -1.706153e-02 -3.704059e+00 -1.382724e-01 -2.345680e-04 5.859459e-05 1.675730e-04
Ga -1.623309e+00 -9.765659e-01 4.994913e+00 2.954123e-06 -5.598907e-05 -4.825204e-05
Ga -1.600805e+00 -9.672902e-01 -5.281929e+00 -1.153896e-04 3.815529e-06 -5.280428e-06
Al -1.630222e+00 -9.585026e-01 -1.518359e-01 -1.469133e-04 -7.074821e-05 4.030159e-05
N 1.512335e+00 8.481540e-01 4.349643e+00 -2.168631e-04 3.610530e-04 -2.371077e-04
N 1.623011e+00 8.545348e-01 -5.937363e+00 -1.077066e-05 5.355818e-05 -3.075916e-06
N 1.571274e+00 8.257438e-01 -8.087280e-01 1.496669e-04 1.816367e-04 -1.350853e-04
N -3.263661e-02 3.637895e+00 4.360841e+00 1.107455e-04 -8.718862e-05 3.040353e-05
N -7.170429e-03 3.624282e+00 -5.979427e+00 -1.667434e-05 -6.109028e-05 -6.825471e-05
N -2.424606e-02 3.681732e+00 -7.112286e-01 1.315509e-04 -6.602728e-05 -7.742542e-06
N 3.097980e+00 -1.894853e+00 4.333387e+00 1.493199e-04 3.144484e-04 -2.070850e-04
N 3.178832e+00 -1.824739e+00 -5.875697e+00 1.128587e-04 -3.234121e-05 7.766843e-05
N 3.159260e+00 -1.871474e+00 -7.026020e-01 2.115427e-04 -2.977382e-04 -1.088826e-06
N -4.811520e+00 8.771111e-01 4.301160e+00 1.618885e-04 -4.033025e-05 -2.417272e-05
N -4.819790e+00 8.497796e-01 -5.850480e+00 1.063867e-04 2.809769e-05 -5.309201e-06
N -4.757903e+00 8.454844e-01 -7.858918e-01 1.472853e-04 3.857874e-04 2.562633e-05
N -6.404451e+00 3.684409e+00 4.417495e+00 7.163242e-05 -4.451094e-05 -1.292495e-05
N -6.370955e+00 3.580922e+00 -5.946970e+00 -2.319209e-05 -7.209942e-05 1.075741e-04
N -6.435087e+00 3.650320e+00 -7.346469e-01 1.625209e-04 -9.239424e-05 3.299525e-05
N -3.213829e+00 -1.927495e+00 4.313040e+00 -5.071057e-05 2.398644e-04 -2.526684e-04
N -3.232912e+00 -1.850123e+00 -5.945417e+00 9.802929e-05 2.168248e-05 -2.026422e-05
N -3.208905e+00 -1.875891e+00 -7.602691e-01 1.354133e-04 -7.326241e-06 -2.879712e-05
N -1.584257e+00 8.969853e-01 4.386971e+00 7.100492e-05 -3.407496e-05 1.148496e-05
N -1.591865e+00 8.805229e-01 -5.899508e+00 9.440250e-05 -2.607808e-05 -9.629706e-06
N -1.648859e+00 8.535089e-01 -7.659208e-01 6.820875e-05 -1.011117e-05 -1.270295e-04
N -3.220199e+00 3.684353e+00 4.406421e+00 3.059840e-04 1.470303e-04 1.393308e-04
N -3.185023e+00 3.628911e+00 -5.910244e+00 9.389373e-05 -5.219728e-05 1.037532e-05
N -3.154338e+00 3.609279e+00 -7.049229e-01 2.262425e-04 -2.737917e-05 1.341851e-04
N 6.742415e-03 -1.895035e+00 4.400661e+00 2.867659e-05 -6.115837e-06 -1.664211e-05
N 3.929389e-02 -1.849001e+00 -5.945872e+00 6.035083e-05 -2.152992e-05 1.630572e-05
N -1.507392e-02 -1.818395e+00 -7.184563e-01 -3.040380e-04 -1.650571e-04 2.596743e-05
N 1.718334e-02 1.823107e+00 1.841387e+00 9.001582e-05 -2.395089e-04 2.288930e-05
N 7.042955e-03 1.822415e+00 6.896869e+00 -2.636736e-04 2.523033e-04 -3.763725e-05
N -1.354625e-02 1.749960e+00 -3.284905e+00 -3.193888e-05 3.696385e-05 9.591253e-06
N 3.198498e+00 -3.685681e+00 1.806700e+00 -3.628190e-04 2.120059e-04 -4.631892e-04
N 3.187343e+00 -3.725064e+00 6.880193e+00 6.718329e-05 1.682096e-05 2.596251e-04
N 3.174330e+00 -3.708060e+00 -3.325166e+00 -3.384065e-05 2.232226e-05 -2.682814e-05
N 1.605077e+00 -9.280467e-01 1.787086e+00 -4.003550e-04 7.722481e-04 -3.457786e-04
N 1.511051e+00 -9.278696e-01 6.906187e+00 3.671674e-06 2.525728e-04 2.987730e-05
N 1.578951e+00 -9.122693e-01 -3.383525e+00 2.140803e-05 3.695114e-05 -1.777040e-06
N 3.144697e+00 1.748473e+00 1.843191e+00 2.657732e-05 -2.479231e-06 -6.799740e-05
N 3.096543e+00 1.817694e+00 6.963587e+00 7.284010e-05 -4.210283e-05 1.685021e-05
N 3.164958e+00 1.746198e+00 -3.355196e+00 8.523956e-05 -6.564172e-05 8.984009e-05
N 6.290477e+00 -3.685226e+00 1.785742e+00 -5.528425e-04 -6.070664e-04 1.085621e-04
N 6.319369e+00 -3.703476e+00 6.921070e+00 -4.412791e-05 2.455028e-05 2.421798e-05
N 6.346447e+00 -3.657205e+00 -3.327772e+00 -2.763423e-05 1.666246e-05 5.736983e-06
N 4.742306e+00 -9.587573e-01 1.792065e+00 3.905653e-05 -2.965103e-05 8.166293e-05
N 4.771645e+00 -9.776893e-01 6.929253e+00 4.148765e-05 2.996761e-05 -1.120259e-05
N 4.802914e+00 -9.399757e-01 -3.341437e+00 3.880913e-05 -1.296154e-04 -5.101185e-06
N -3.252685e+00 1.771391e+00 1.762695e+00 -6.661898e-05 -3.745496e-05 -9.287400e-05
N -3.231408e+00 1.790005e+00 6.937111e+00 -2.844668e-05 3.509255e-05 -1.123665e-05
N -3.193826e+00 1.746332e+00 -3.277410e+00 4.555293e-05 1.100952e-04 -4.010717e-05
N -3.207213e-02 -3.711795e+00 1.817888e+00 8.164355e-05 -1.390824e-05 -1.831873e-04
N -8.607114e-02 -3.682882e+00 6.921370e+00 -5.526793e-05 2.195617e-05 3.038186e-05
N -1.159437e-02 -3.707606e+00 -3.320261e+00 4.318212e-05 5.588595e-05 -8.814939e-05
N -1.662891e+00 -9.839199e-01 1.764295e+00 -8.804587e-05 -3.166754e-05 5.046154e-05
N -1.637122e+00 -1.009301e+00 6.970880e+00 -2.410546e-06 3.730005e-05 -3.052588e-07
N -1.648808e+00 -9.378340e-01 -3.293891e+00 2.707454e-05 3.174677e-05 -1.688301e-05
