108
Energy=-2679663.301457 Lattice="9.685659 0.000000 0.000000 -4.865327 8.371339 0.000000 -0.103217 0.060462 15.741760" Stress="0.000013 -0.000007 -0.000020 -0.000007 0.000002 0.000010 -0.000020 0.000010 0.000036" Properties=species:S:1:pos:R:3:forces:R:3
Al 1.539940 0.935573 2.498776 0.002667 -0.000841 -0.001235
Ga 1.520112 0.926061 7.700929 0.000824 0.000010 0.001241
Ga 1.619130 0.852235 -2.764257 0.001222 -0.000146 0.002292
Al -0.071261 3.711471 2.478520 -0.000108 -0.000362 0.002721
Ga -0.089367 3.703318 7.698809 0.000616 -0.000280 0.001597
Ga 0.002285 3.643197 -2.772488 0.000479 0.000202 0.000823
Al 3.174900 -1.853137 2.488205 0.000466 -0.001487 -0.000717
Ga 3.158191 -1.867559 7.712524 0.000713 -0.000737 0.001171
Ga 3.248866 -1.937535 -2.770346 0.000555 -0.000388 0.001194
Ga -4.931765 0.932223 2.489896 0.001987 -0.000722 -0.001118
Ga -4.925998 0.929734 7.728703 0.000368 -0.000633 0.000090
Ga -4.832523 0.859697 -2.784223 0.000773 0.000126 0.000500
Ga -6.548124 3.721072 2.486427 0.001611 -0.000570 -0.000443
Ga -6.548365 3.715459 7.719306 -0.000113 -0.000010 0.000376
Ga -6.456357 3.644663 -2.770917 -0.000056 0.000069 0.000268
Ga -3.304067 -1.857611 2.488081 0.001465 -0.000669 -0.000518
Ga -3.301079 -1.864012 7.717548 0.000279 -0.000861 0.000617
Ga -3.207461 -1.934410 -2.771862 0.000165 -0.000402 0.000358
Ga -1.670343 0.952056 2.494710 0.000708 -0.001488 -0.000711
Ga -1.701538 0.939339 7.716850 0.002485 -0.000562 0.000236
Ga -1.616483 0.866055 -2.781224 0.000848 -0.000550 0.000847
Ga -3.297280 3.740115 2.486806 0.001321 -0.000757 -0.000921
Ga -3.319468 3.715077 7.728834 0.001016 0.000096 0.000025
Ga -3.225814 3.643277 -2.784319 0.000541 -0.000563 0.000435
Ga -0.050871 -1.840343 2.491098 0.001854 -0.001257 -0.001110
Ga -0.070900 -1.858241 7.720661 0.000939 -0.000959 0.000177
Ga 0.021901 -1.927142 -2.770211 0.000601 -0.000774 0.000289
Al -0.075322 1.856857 5.066939 0.001647 0.002747 0.003053
Ga 0.007106 1.785374 -5.400353 -0.000515 0.000720 0.001023
Ga -0.000722 1.792661 -0.131135 -0.000166 -0.001418 0.002016
Ga 3.179713 -3.730251 5.076346 0.000596 0.000891 0.000896
Ga 3.261009 -3.803084 -5.401541 -0.000786 0.000688 -0.000045
Ga 3.254342 -3.802918 -0.125983 -0.003095 0.003750 0.001950
Ga 1.554239 -0.926164 5.079522 -0.000023 0.001236 0.000298
Ga 1.646137 -1.003358 -5.398200 -0.001025 0.000974 0.000384
Ga 1.637843 -1.014685 -0.113333 -0.002877 0.005157 0.001639
Ga 3.134162 1.855633 5.092321 0.000144 0.000461 0.000800
Ga 3.245818 1.787134 -5.402069 -0.000335 0.000405 0.000723
Ga 3.229244 1.774369 -0.132422 -0.003349 0.002446 0.002168
Ga 6.386199 -3.731829 5.087773 -0.000491 0.000104 0.000490
Ga 6.485232 -3.793119 -5.400479 0.000070 0.000092 0.000439
Ga 6.473024 -3.803627 -0.132320 -0.001541 0.002794 0.001671
Ga 4.773893 -0.932996 5.095067 -0.000934 0.000271 0.000805
Ga 4.874358 -0.996159 -5.396778 -0.000867 0.000731 -0.000150
Ga 4.856794 -1.015618 -0.135854 -0.002932 0.003332 0.001605
Ga -3.298719 1.863646 5.097201 -0.000874 0.000250 0.000785
Al -3.216112 1.792085 -5.405994 -0.000770 0.000577 0.001328
Ga -3.229701 1.780109 -0.150928 -0.002941 0.002852 0.004430
Ga -0.061287 -3.717337 5.105401 -0.000342 -0.000204 0.000575
Ga 0.034248 -3.795056 -5.397670 -0.000416 0.000311 0.000414
Ga 0.021403 -3.800275 -0.152987 -0.002899 0.002726 0.003006
Ga -1.673303 -0.918246 5.105613 -0.001503 0.000584 -0.000143
Ga -1.591355 -0.989384 -5.400114 -0.000789 0.000578 0.000173
Ga -1.597697 -1.006929 -0.147782 -0.003165 0.003306 0.003571
N 1.496125 0.953396 4.429920 -0.000179 -0.000309 -0.001399
N 1.622794 0.861448 -6.048705 0.000921 -0.000364 -0.000724
N 1.612016 0.850009 -0.769296 -0.000287 0.000007 -0.002923
N -0.080445 3.674292 4.421792 0.000162 -0.002127 -0.002441
N 0.010120 3.645053 -6.050488 0.000232 -0.000100 -0.001035
N -0.004551 3.645172 -0.785423 -0.000043 0.000357 0.000209
N 3.167306 -1.860309 4.412343 0.000299 -0.000636 -0.001086
N 3.257437 -1.931290 -6.041716 0.000608 -0.000641 -0.000219
N 3.242424 -1.942050 -0.782310 -0.000313 0.000052 0.000444
N -4.922830 0.934143 4.467218 0.000919 -0.000126 -0.000101
N -4.791574 0.886250 -6.020881 0.001671 -0.000086 -0.000024
N -4.842556 0.850105 -0.793491 0.000268 0.000496 0.000941
N -6.538784 3.723441 4.466094 0.000377 -0.000276 -0.000560
N -6.448665 3.652512 -6.037672 0.000030 -0.000137 -0.000769
N -6.462932 3.638573 -0.783112 -0.000027 0.000844 0.000676
N -3.292290 -1.855314 4.467802 0.000915 -0.000526 -0.000048
N -3.201447 -1.928127 -6.039095 0.000251 -0.000408 -0.000549
N -3.214200 -1.940468 -0.784935 0.000274 0.000419 0.001020
N -1.651936 0.963482 4.482006 0.000043 -0.001847 -0.000932
N -1.642186 0.892658 -6.028630 -0.000030 -0.000545 -0.000309
N -1.618606 0.861927 -0.788567 0.001872 -0.000219 -0.000694
N -3.314161 3.728453 4.463755 0.000029 -0.000969 -0.000528
N -3.222048 3.610489 -6.021074 0.000630 -0.001759 -0.000133
N -3.228468 3.643219 -0.793890 0.000521 0.000641 0.000931
N -0.067971 -1.853769 4.467574 0.000476 -0.001239 -0.000125
N 0.025278 -1.923165 -6.036641 0.000329 -0.001033 -0.000274
N 0.018201 -1.930605 -0.783729 0.000695 -0.000083 0.001328
N -0.015708 1.867762 1.873792 -0.001371 0.003973 -0.000170
N -0.080993 1.849869 7.011115 -0.001342 0.000445 -0.002039
N 0.011088 1.780521 -3.411789 -0.000624 0.000736 -0.001039
N 3.222687 -3.693185 1.886062 0.002457 -0.003057 -0.001760
N 3.165731 -3.731008 7.069336 -0.001087 0.000624 -0.000727
N 3.258405 -3.800103 -3.416456 -0.000483 0.000831 -0.000431
N 1.605862 -0.896354 1.900624 0.000974 -0.004404 -0.002992
N 1.550735 -0.939415 7.067005 -0.001282 0.000588 -0.000746
N 1.641271 -1.009217 -3.412540 -0.001052 0.001029 -0.000832
N 3.114110 1.840957 1.869501 0.001118 -0.002249 -0.002138
N 3.143050 1.851505 7.080093 0.000077 0.000212 -0.000637
N 3.233707 1.782856 -3.413481 -0.000424 0.000122 -0.000706
N 6.361826 -3.736545 1.865687 0.000425 -0.003645 -0.002089
N 6.387965 -3.728266 7.074156 0.000219 0.000489 -0.000780
N 6.481555 -3.797169 -3.413442 -0.000098 0.000165 -0.000477
N 4.744591 -0.945991 1.861444 0.000561 -0.002729 -0.002028
N 4.771576 -0.935157 7.081236 -0.000591 0.000756 -0.000614
N 4.865173 -1.007664 -3.412082 -0.000722 0.000199 -0.000406
N -3.299836 1.867878 1.852626 0.001342 -0.002496 -0.003364
N -3.314067 1.857593 7.077646 -0.000822 0.000299 -0.000143
N -3.220575 1.786714 -3.470399 -0.000833 0.000352 -0.001599
N -0.055868 -3.709594 1.845241 0.001247 -0.002762 -0.002861
N -0.065393 -3.724333 7.088666 -0.000263 0.000242 -0.000185
N 0.025167 -3.793042 -3.410784 -0.000608 0.000321 -0.000103
N -1.674612 -0.920373 1.855629 0.000676 -0.002157 -0.004008
N -1.683511 -0.930228 7.087558 -0.001089 0.000504 -0.000123
N -1.591179 -1.002439 -3.413097 -0.001097 0.000379 -0.000070
