108
Energy=-1.077521e+06 Lattice="9.482810e+00 0.000000e+00 0.000000e+00 -4.761879e+00 8.189943e+00 0.000000e+00 -7.344801e-03 -3.187530e-02 1.527385e+01" Stress="6.430767e-04 -1.302191e-03 -3.121493e-04 -1.300946e-03 -4.050527e-03 -1.974608e-03 -3.045335e-04 -1.980382e-03 5.056356e-03" Properties=species:S:1:pos:R:3:forces:R:3 Config_type=AlGaN_super3_14_0_7.xyz
Al 1.564108e+00 8.564568e-01 2.410743e+00 -7.769195e-05 6.699856e-05 1.108699e-03
Al 1.545372e+00 8.441830e-01 7.466733e+00 3.234990e-03 1.459852e-02 7.404067e-03
Al 1.541714e+00 8.684308e-01 -2.717229e+00 -7.176820e-03 -5.045897e-03 7.052844e-03
Al -4.889348e-02 3.583177e+00 2.411624e+00 8.888865e-03 -1.453064e-03 -3.225396e-03
Al -3.009578e-02 3.571996e+00 7.492597e+00 1.809403e-03 -2.981766e-05 1.238981e-03
Al -3.713517e-02 3.616183e+00 -2.732039e+00 8.831948e-04 -3.079149e-03 4.218023e-03
Al 3.105479e+00 -1.876348e+00 2.398072e+00 1.487523e-02 5.575018e-03 3.016198e-03
Al 3.142080e+00 -1.875213e+00 7.499640e+00 6.358711e-03 5.844106e-04 4.085204e-03
Al 3.134209e+00 -1.861130e+00 -2.728509e+00 -4.199114e-03 -1.274977e-03 1.229284e-03
Al -4.775975e+00 8.881399e-01 2.401272e+00 2.819998e-03 -6.123788e-03 5.114043e-03
Al -4.773827e+00 8.428251e-01 7.490275e+00 -8.061514e-04 9.468300e-04 1.445062e-04
Ga -4.780198e+00 8.630963e-01 -2.718175e+00 1.064399e-03 2.495226e-03 1.371481e-03
Al -6.327488e+00 3.581263e+00 2.419772e+00 -1.430140e-02 2.321395e-03 -1.124302e-03
Al -6.357959e+00 3.582401e+00 7.464905e+00 -1.000403e-03 4.953565e-04 -8.052117e-06
Ga -6.390661e+00 3.613254e+00 -2.685199e+00 1.592921e-03 2.276595e-03 1.798247e-03
Ga -3.160435e+00 -1.879303e+00 2.452556e+00 -9.515908e-04 6.013756e-06 -3.611953e-03
Al -3.215109e+00 -1.885768e+00 7.496739e+00 1.124856e-02 6.202612e-03 -3.411914e-03
Al -3.200607e+00 -1.833021e+00 -2.758426e+00 4.320487e-03 -4.839694e-03 6.141975e-03
Al -1.600189e+00 8.831637e-01 2.412780e+00 2.680267e-04 -1.801086e-03 1.248627e-03
Al -1.607879e+00 8.706581e-01 7.510598e+00 1.325588e-03 8.526106e-03 2.989575e-03
Al -1.610484e+00 8.882963e-01 -2.754620e+00 4.228193e-03 -2.705773e-03 8.060972e-03
Al -3.180042e+00 3.586349e+00 2.388525e+00 -5.377128e-03 2.958046e-03 3.759069e-03
Al -3.189167e+00 3.576507e+00 7.503967e+00 -2.109218e-03 1.570163e-04 2.008945e-04
Ga -3.172236e+00 3.601496e+00 -2.702098e+00 -1.944405e-03 2.294636e-04 2.334908e-03
Al 1.640613e-02 -1.856139e+00 2.428613e+00 -4.729432e-03 1.433764e-03 1.649213e-03
Ga 1.922058e-02 -1.843910e+00 7.502955e+00 -2.499721e-03 -1.915089e-03 5.294654e-04
Al -1.281842e-02 -1.821896e+00 -2.716802e+00 -1.030249e-03 -5.481265e-04 -6.739825e-04
Al -9.888154e-03 1.765629e+00 4.954256e+00 -3.189863e-04 1.115399e-03 1.544823e-03
Al -3.590488e-02 1.778387e+00 -5.260379e+00 1.948226e-03 2.887638e-03 1.489865e-03
Ga -2.577330e-02 1.778901e+00 -1.465634e-01 1.004570e-03 3.279650e-04 -5.026890e-03
Ga 3.151353e+00 -3.686951e+00 4.959149e+00 -3.421682e-04 1.288696e-03 1.271748e-03
Al 3.161390e+00 -3.675031e+00 -5.265857e+00 5.994489e-05 3.174309e-03 -5.472562e-04
Al 3.152707e+00 -3.687436e+00 -1.508028e-01 3.550756e-03 1.885379e-03 1.211028e-03
Al 1.582848e+00 -9.492204e-01 4.938935e+00 4.968826e-04 3.307881e-04 8.025070e-03
Al 1.565730e+00 -9.382504e-01 -5.246437e+00 1.010208e-02 4.219431e-03 4.760050e-03
Al 1.571766e+00 -9.553076e-01 -1.604651e-01 -8.722188e-07 2.123340e-03 2.389515e-03
Al 3.122754e+00 1.759582e+00 4.946933e+00 2.547649e-03 1.041038e-03 3.199401e-03
Ga 3.106134e+00 1.781868e+00 -5.272071e+00 1.941889e-03 3.749271e-04 -7.627112e-04
Al 3.127174e+00 1.770586e+00 -1.268360e-01 -2.748482e-03 1.188149e-03 -7.289758e-04
Al 6.314050e+00 -3.712391e+00 4.953446e+00 6.606090e-06 3.752875e-03 3.830533e-03
Al 6.289114e+00 -3.662440e+00 -5.261006e+00 -1.306840e-03 1.905077e-04 2.715585e-06
Al 6.296050e+00 -3.689479e+00 -1.562575e-01 -1.158415e-03 3.840893e-04 3.111295e-03
Al 4.707056e+00 -9.625706e-01 4.954969e+00 -2.162031e-03 2.771782e-03 2.176981e-03
Al 4.724935e+00 -9.499884e-01 -5.246352e+00 -5.135087e-03 2.822589e-04 -1.407340e-02
Ga 4.715954e+00 -9.624579e-01 -1.723166e-01 1.757509e-03 -1.387138e-03 1.486504e-02
Ga -3.200169e+00 1.776009e+00 4.952397e+00 -5.802902e-04 -1.337395e-03 2.894473e-03
Al -3.174789e+00 1.782667e+00 -5.264242e+00 -4.007956e-03 1.174567e-03 -8.447785e-03
Al -3.191425e+00 1.781989e+00 -1.294222e-01 6.263014e-05 -9.676165e-04 1.318508e-04
Al -1.186541e-02 -3.690020e+00 4.948647e+00 -3.061632e-03 2.613459e-03 1.165711e-03
Ga -1.244444e-02 -3.655095e+00 -5.249152e+00 -1.529246e-04 -1.427283e-03 3.749580e-04
Ga -9.258670e-03 -3.668243e+00 -1.081406e-01 -2.959921e-03 -2.212242e-04 -6.234143e-03
Ga -1.577943e+00 -9.452696e-01 4.970461e+00 -2.210344e-03 5.276864e-04 1.007619e-03
Al -1.614896e+00 -9.201487e-01 -5.247394e+00 4.239576e-03 -2.764074e-03 -2.828408e-03
Ga -1.592087e+00 -9.388174e-01 -1.636825e-01 -3.048246e-03 -3.317710e-04 7.352270e-03
N 1.553349e+00 8.577731e-01 4.344419e+00 6.957911e-04 1.107864e-03 -2.673296e-03
N 1.501870e+00 8.471798e-01 -5.885716e+00 -6.702380e-04 2.631362e-03 -1.122367e-03
N 1.593199e+00 8.368835e-01 -7.764003e-01 7.649880e-04 2.793441e-03 -1.898742e-03
N 1.800087e-03 3.564758e+00 4.336051e+00 1.899258e-03 5.865263e-04 -4.095133e-03
N -2.933656e-02 3.602389e+00 -5.859731e+00 -4.487553e-04 -8.506215e-04 -3.624474e-04
N -3.563664e-02 3.640325e+00 -7.897563e-01 -1.069342e-03 1.041847e-03 -3.277827e-03
N 3.141860e+00 -1.828279e+00 4.324332e+00 -1.539391e-03 -1.652447e-03 -1.958568e-03
N 3.139599e+00 -1.845341e+00 -5.852530e+00 1.419869e-03 -2.079444e-03 -3.483131e-04
N 3.099737e+00 -1.888115e+00 -7.921217e-01 8.736966e-04 -2.004958e-03 -1.289474e-03
N -4.809327e+00 8.351707e-01 4.332288e+00 -8.255005e-04 3.472771e-03 -1.385564e-03
N -4.740582e+00 8.540037e-01 -5.865859e+00 2.390834e-03 1.595634e-03 -1.169307e-03
N -4.771407e+00 9.134993e-01 -7.305180e-01 1.246276e-03 1.984150e-03 -1.202824e-03
N -6.347770e+00 3.584910e+00 4.352229e+00 -1.923594e-03 9.901203e-04 -1.636885e-03
N -6.406818e+00 3.647621e+00 -5.897530e+00 3.698048e-03 -1.259172e-03 -7.379394e-04
N -6.397934e+00 3.579290e+00 -7.077527e-01 2.581757e-03 -1.578207e-03 -1.015669e-03
N -3.220013e+00 -1.878240e+00 4.425631e+00 5.202652e-03 -8.151870e-03 -2.715616e-03
N -3.186631e+00 -1.846719e+00 -5.852766e+00 2.662465e-03 3.745075e-04 -4.337957e-04
N -3.171244e+00 -1.911272e+00 -8.153213e-01 -1.938420e-03 3.556639e-03 -3.877573e-03
N -1.565264e+00 9.053188e-01 4.316588e+00 -1.208488e-03 -2.091072e-04 -1.230960e-03
N -1.607107e+00 8.876192e-01 -5.846730e+00 3.964445e-04 -1.963485e-04 -7.009490e-04
N -1.661603e+00 9.067169e-01 -8.099133e-01 1.378194e-03 -5.127768e-04 -4.602065e-03
N -3.239273e+00 3.624671e+00 4.313021e+00 4.430562e-03 -3.224001e-03 -6.055035e-03
N -3.157915e+00 3.596874e+00 -5.861013e+00 1.024052e-04 -2.102966e-03 -7.266555e-04
N -3.154781e+00 3.579956e+00 -7.106478e-01 -1.624302e-03 -1.031888e-03 -1.612933e-03
N 3.395609e-02 -1.876287e+00 4.345323e+00 1.208658e-03 -2.854933e-03 1.449862e-03
N 1.789758e-02 -1.778423e+00 -5.801283e+00 -1.694967e-02 -5.398781e-03 -3.099010e-03
N 2.291757e-02 -1.820569e+00 -8.012501e-01 4.257295e-04 -3.566362e-03 1.698730e-04
N -1.565662e-02 1.738854e+00 1.820801e+00 -1.314039e-03 1.191942e-02 5.835763e-03
N -2.909991e-02 1.759191e+00 6.884041e+00 -1.289678e-05 2.168890e-03 -2.963907e-03
N -2.568416e-02 1.785944e+00 -3.328773e+00 -1.332282e-04 1.717922e-03 1.827630e-03
N 3.146189e+00 -3.691662e+00 1.791695e+00 1.304054e-03 5.176629e-04 -1.191400e-03
N 3.147023e+00 -3.704504e+00 6.941853e+00 4.765739e-04 2.265832e-03 -1.120465e-03
N 3.184570e+00 -3.658999e+00 -3.345661e+00 1.958217e-04 1.585920e-03 -9.127097e-04
N 1.560734e+00 -9.577574e-01 1.786903e+00 3.015168e-03 3.580525e-04 -3.634397e-03
N 1.645748e+00 -9.062931e-01 6.898696e+00 -7.792319e-03 -1.597501e-02 -1.939749e-02
N 1.568280e+00 -9.410299e-01 -3.321787e+00 -6.737165e-04 1.709770e-04 1.628357e-04
N 3.133685e+00 1.774128e+00 1.803551e+00 5.583469e-05 -4.098416e-04 -7.079498e-04
N 3.131197e+00 1.759149e+00 6.881863e+00 4.791871e-04 1.841230e-03 -1.751973e-03
N 3.064622e+00 1.758198e+00 -3.299277e+00 8.513906e-03 4.851077e-03 -3.709232e-03
N 6.305483e+00 -3.730698e+00 1.761769e+00 1.511476e-03 -3.771726e-03 8.006797e-03
N 6.301249e+00 -3.698649e+00 6.881099e+00 8.919409e-04 -3.536570e-04 -1.033588e-03
N 6.259274e+00 -3.643207e+00 -3.344616e+00 4.820381e-04 6.196118e-04 -2.704816e-03
N 4.720962e+00 -9.284426e-01 1.880417e+00 -1.401289e-02 -4.854852e-03 -1.769145e-02
N 4.712225e+00 -9.700581e-01 6.887997e+00 5.917783e-04 -5.340867e-04 -2.032592e-03
N 4.683204e+00 -9.873158e-01 -3.382470e+00 8.331803e-03 2.718727e-05 1.838254e-02
N -3.180914e+00 1.771462e+00 1.796629e+00 -1.401598e-03 1.527053e-03 2.673813e-04
N -3.188654e+00 1.762872e+00 6.936000e+00 -1.650476e-03 2.514115e-04 1.143350e-04
N -3.156125e+00 1.757145e+00 -3.386414e+00 -4.284587e-03 2.249476e-03 8.469371e-03
N -2.700960e-02 -3.669328e+00 1.864177e+00 9.033231e-03 -2.637591e-03 -2.145293e-04
N 3.097592e-04 -3.720775e+00 6.873522e+00 -1.326532e-03 -1.278779e-03 -1.433853e-03
N -1.649146e-02 -3.631976e+00 -3.283308e+00 -1.276679e-03 -7.031495e-04 2.043273e-03
N -1.537590e+00 -9.204993e-01 1.871580e+00 -3.025777e-03 -5.159929e-03 -1.152681e-02
N -1.596463e+00 -8.882132e-01 6.941277e+00 -1.339998e-02 -2.095302e-02 -1.348017e-03
N -1.602135e+00 -9.298460e-01 -3.327829e+00 -2.997372e-03 -2.175748e-03 1.078404e-03
