108
Energy=-619766.222692 Lattice="9.418160 0.000000 0.000000 -4.709598 8.155946 0.000000 -0.000391 -0.001283 15.111725" Stress="0.000001 -0.000000 -0.000000 -0.000000 0.000000 -0.000000 -0.000000 -0.000000 0.000003" Properties=species:S:1:pos:R:3:forces:R:3
Al 1.548256 0.868231 2.376071 0.000001 -0.000029 -0.000150
Al 1.545417 0.868936 7.397638 0.000005 -0.000027 -0.000025
Al 1.552593 0.874271 -2.668610 0.000005 -0.000048 0.000014
Al -0.022602 3.585871 2.370276 -0.000013 -0.000016 -0.000172
Al -0.022862 3.579772 7.381166 -0.000002 -0.000011 -0.000023
Al -0.022231 3.578652 -2.642358 -0.000010 0.000018 0.000031
Al 3.117578 -1.851846 2.375232 -0.000010 0.000020 -0.000154
Al 3.119703 -1.846574 7.386698 -0.000004 0.000008 -0.000011
Al 3.125784 -1.843483 -2.654613 -0.000011 -0.000006 0.000019
Al -4.731904 0.868248 2.371862 0.000017 -0.000006 -0.000140
Al -4.732111 0.864827 7.401203 0.000022 -0.000024 -0.000005
Al -4.731575 0.868228 -2.671190 0.000022 -0.000019 0.000003
Al -6.309992 3.579917 2.389479 0.000017 0.000004 -0.000140
Al -6.298023 3.582652 7.386217 0.000008 -0.000006 -0.000033
Al -6.303262 3.572282 -2.664571 -0.000022 -0.000034 0.000025
Al -3.162260 -1.851790 2.375257 -0.000002 0.000009 -0.000147
Al -3.164668 -1.846470 7.386685 0.000004 0.000003 0.000003
Al -3.169532 -1.843364 -2.654701 -0.000014 -0.000011 0.000026
Al -1.593737 0.868286 2.375950 0.000032 -0.000009 -0.000149
Al -1.591335 0.869114 7.397598 0.000047 -0.000028 -0.000029
Al -1.597406 0.874470 -2.668585 0.000042 -0.000062 0.000013
Al -3.153954 3.579971 2.389355 0.000016 0.000008 -0.000139
Al -3.166327 3.582727 7.386268 0.000031 -0.000008 -0.000047
Al -3.159899 3.572423 -2.664603 0.000049 -0.000044 0.000018
Al -0.022488 -1.841761 2.386635 0.000027 -0.000013 -0.000182
Al -0.022588 -1.852586 7.397880 0.000020 0.000004 -0.000059
Ga -0.022346 -1.845839 -2.673707 0.000144 0.000022 -0.000055
Al -0.022975 1.771385 4.880490 -0.000005 0.000004 0.000003
Al -0.022532 1.759429 -5.189099 -0.000004 -0.000024 -0.000005
Al -0.022494 1.769078 -0.142557 -0.000016 0.000007 0.000221
Al 3.118478 -3.663578 4.886545 -0.000013 0.000003 -0.000017
Ga 3.109741 -3.661804 -5.187592 -0.000058 -0.000098 -0.000087
Al 3.123533 -3.663967 -0.143443 -0.000007 0.000005 0.000258
Al 1.546986 -0.943489 4.888355 -0.000018 0.000019 -0.000048
Al 1.549785 -0.934499 -5.205095 -0.000018 0.000027 -0.000063
Al 1.557920 -0.933215 -0.130390 -0.000022 0.000017 0.000239
Al 3.116450 1.769495 4.888144 0.000014 -0.000009 0.000008
Al 3.120377 1.765849 -5.195375 0.000019 -0.000026 -0.000015
Al 3.113034 1.764325 -0.143858 0.000006 0.000000 0.000279
Al 6.254707 -3.663453 4.886621 0.000012 0.000004 -0.000008
Ga 6.264651 -3.661764 -5.187654 -0.000072 -0.000051 -0.000057
Al 6.250447 -3.663851 -0.143424 0.000012 0.000003 0.000257
Al 4.686457 -0.943257 4.879935 0.000002 0.000004 -0.000005
Al 4.686938 -0.931244 -5.188432 -0.000004 0.000067 0.000001
Al 4.686874 -0.942906 -0.141883 0.000008 0.000020 0.000226
Al -3.162714 1.769533 4.888073 0.000022 -0.000007 0.000008
Al -3.165863 1.765848 -5.195442 0.000038 -0.000002 0.000002
Al -3.158412 1.764360 -0.143876 0.000038 -0.000014 0.000265
Al -0.022684 -3.662300 4.879998 0.000016 -0.000011 -0.000044
Al -0.022339 -3.669548 -5.201159 0.000050 -0.000014 -0.000038
Ga -0.022316 -3.672219 -0.121973 0.000024 -0.000010 0.000591
Al -1.592271 -0.943352 4.888339 -0.000004 0.000020 -0.000022
Al -1.594038 -0.934345 -5.205375 -0.000012 0.000032 -0.000004
Al -1.602378 -0.933299 -0.130165 0.000017 0.000068 0.000173
N 1.547916 0.867087 4.289443 -0.000039 -0.000071 -0.000008
N 1.546148 0.872032 -5.795710 -0.000028 -0.000058 -0.000016
N 1.547137 0.866595 -0.747006 -0.000039 -0.000073 0.000182
N -0.022837 3.585803 4.288295 -0.000044 -0.000024 -0.000010
N -0.022428 3.537977 -5.826521 -0.000020 -0.000080 0.000046
N -0.022428 3.580953 -0.728896 -0.000052 -0.000030 0.000174
N 3.116238 -1.851646 4.290866 -0.000046 0.000023 0.000014
N 3.121778 -1.803577 -5.814536 -0.000014 0.000154 -0.000020
N 3.116956 -1.847803 -0.735573 -0.000039 0.000041 0.000191
N -4.732201 0.868398 4.285871 0.000028 -0.000029 0.000001
N -4.731797 0.866794 -5.791042 0.000019 -0.000052 -0.000004
N -4.731717 0.867424 -0.746883 0.000006 -0.000067 0.000162
N -6.306519 3.581841 4.300662 0.000006 -0.000003 0.000007
N -6.262519 3.560102 -5.815041 0.000055 -0.000063 0.000010
N -6.339708 3.559193 -0.755283 -0.000067 -0.000061 0.000121
N -3.161356 -1.851620 4.290870 0.000018 0.000044 0.000013
N -3.165970 -1.803538 -5.814514 -0.000016 0.000174 -0.000034
N -3.161151 -1.847786 -0.735609 -0.000014 0.000058 0.000176
N -1.594030 0.867151 4.289380 0.000089 -0.000037 -0.000002
N -1.591393 0.872183 -5.795685 0.000055 -0.000035 -0.000034
N -1.592235 0.866580 -0.746860 0.000040 -0.000041 0.000160
N -3.157977 3.581906 4.300576 0.000056 0.000004 0.000023
N -3.201273 3.560123 -5.815003 0.000071 -0.000010 0.000036
N -3.123938 3.559265 -0.755234 0.000111 -0.000052 0.000119
N -0.022786 -1.845719 4.298005 0.000050 0.000067 0.000025
N -0.022246 -1.851815 -5.787984 0.000029 0.000062 0.000015
N -0.022232 -1.803742 -0.702961 -0.000004 0.000214 0.000280
N -0.022546 1.771401 1.777335 -0.000050 -0.000084 -0.000254
N -0.022759 1.768775 6.792217 -0.000060 -0.000069 0.000023
N -0.022205 1.773919 -3.264394 -0.000062 -0.000011 -0.000008
N 3.115946 -3.663807 1.777426 -0.000065 -0.000017 -0.000279
N 3.116471 -3.662773 6.801099 -0.000073 0.000012 0.000007
N 3.119898 -3.662006 -3.208715 -0.000057 -0.000007 0.000091
N 1.550156 -0.942798 1.784763 -0.000056 0.000012 -0.000276
N 1.545454 -0.943779 6.803381 -0.000062 0.000050 0.000055
N 1.593584 -0.919809 -3.291934 -0.000081 0.000051 -0.000005
N 3.116462 1.773351 1.775539 -0.000028 -0.000043 -0.000318
N 3.117115 1.768524 6.801385 0.000005 -0.000036 0.000031
N 3.117535 1.771505 -3.274103 0.000000 -0.000010 -0.000003
N 6.258024 -3.663683 1.777314 -0.000033 -0.000014 -0.000249
N 6.256967 -3.662641 6.801109 -0.000005 0.000018 0.000004
N 6.254784 -3.661883 -3.208853 -0.000026 0.000002 0.000111
N 4.686785 -0.944749 1.777229 -0.000027 0.000049 -0.000272
N 4.686609 -0.941892 6.791146 -0.000031 0.000069 0.000007
N 4.687171 -0.944922 -3.265494 -0.000020 0.000027 -0.000004
N -3.162057 1.773301 1.775466 0.000048 -0.000017 -0.000296
N -3.163161 1.768522 6.801340 0.000014 -0.000015 0.000036
N -3.162486 1.771533 -3.274100 0.000011 -0.000008 0.000003
N -0.022465 -3.666857 1.851465 0.000041 0.000004 -0.000437
N -0.022642 -3.661047 6.794482 0.000031 0.000029 0.000050
N -0.022024 -3.712568 -3.284665 -0.000003 -0.000068 -0.000022
N -1.594924 -0.942826 1.784686 0.000041 0.000059 -0.000229
N -1.590437 -0.943693 6.803421 0.000012 0.000088 0.000040
N -1.637167 -0.919769 -3.292029 -0.000123 0.000146 -0.000044
