108
Energy=-2176132.793352 Lattice="9.607917 0.000000 0.000000 -4.803229 8.320685 0.000000 -0.001068 0.000692 15.572244" Stress="-0.000000 0.000000 0.000000 0.000000 -0.000000 0.000000 0.000000 0.000000 0.000000" Properties=species:S:1:pos:R:3:forces:R:3
Al 1.580768 0.888139 2.415040 -0.000048 0.000001 0.000085
Al 1.569474 0.896430 7.652179 -0.000035 -0.000008 0.000119
Al 1.580287 0.878600 -2.728510 -0.000018 -0.000023 0.000033
Al -0.017884 3.649141 2.445228 -0.000039 -0.000042 0.000186
Al -0.014761 3.649652 7.649638 -0.000007 0.000007 0.000142
Ga -0.025271 3.641468 -2.749691 0.000009 0.000004 -0.000013
Ga 3.180699 -1.875883 2.429050 -0.000050 0.000016 0.000076
Ga 3.193608 -1.884858 7.632357 0.000018 0.000024 0.000091
Ga 3.165810 -1.876788 -2.719809 0.000013 -0.000017 0.000043
Ga -4.831200 0.883474 2.431041 -0.000023 -0.000025 0.000004
Ga -4.826387 0.874194 7.621141 -0.000021 -0.000030 -0.000017
Al -4.833520 0.892106 -2.709540 -0.000033 -0.000009 0.000084
Ga -6.444048 3.640463 2.430799 0.000030 -0.000018 0.000010
Ga -6.444431 3.654387 7.645598 -0.000003 -0.000023 0.000040
Ga -6.417518 3.643707 -2.729628 -0.000027 0.000018 0.000008
Ga -3.242486 -1.890392 2.444751 0.000004 -0.000016 -0.000017
Al -3.239883 -1.890973 7.629236 -0.000029 0.000004 0.000138
Ga -3.224886 -1.880965 -2.724699 0.000005 -0.000013 0.000035
Ga -1.621188 0.901714 2.441802 -0.000022 -0.000051 0.000027
Ga -1.615761 0.893833 7.645000 0.000008 -0.000024 0.000023
Ga -1.616438 0.892612 -2.742773 -0.000007 -0.000032 -0.000017
Ga -3.216578 3.644700 2.442512 0.000013 0.000054 0.000049
Ga -3.217464 3.650039 7.635234 0.000037 0.000055 -0.000023
Al -3.231626 3.653758 -2.724497 -0.000033 0.000051 0.000134
Ga -0.010034 -1.873637 2.435660 0.000056 0.000001 0.000084
Ga -0.026141 -1.881180 7.643700 0.000001 -0.000010 0.000050
Al -0.007938 -1.883276 -2.727274 -0.000001 0.000014 0.000174
Ga -0.016821 1.812769 5.035887 -0.000031 -0.000061 0.000026
Al -0.010052 1.808680 -5.341915 0.000014 -0.000018 0.000095
Ga -0.007422 1.799675 -0.137740 -0.000034 -0.000025 0.000098
Ga 3.189502 -3.742761 5.037642 -0.000054 -0.000007 0.000077
Ga 3.184954 -3.750240 -5.331381 -0.000078 -0.000028 0.000021
Ga 3.173421 -3.736027 -0.146278 -0.000006 -0.000083 0.000178
Ga 1.589859 -0.947421 5.043191 -0.000016 0.000001 0.000028
Ga 1.570901 -0.944563 -5.317972 -0.000029 -0.000032 -0.000002
Al 1.585881 -0.946425 -0.163320 0.000076 -0.000005 -0.000049
Ga 3.181417 1.790799 5.037229 0.000012 -0.000014 0.000065
Ga 3.166895 1.794594 -5.318585 0.000006 -0.000008 0.000027
Al 3.184628 1.781222 -0.162648 0.000024 -0.000019 -0.000023
Ga 6.364396 -3.732058 5.054982 0.000043 0.000008 0.000064
Ga 6.371329 -3.739156 -5.354041 0.000017 0.000017 0.000011
Ga 6.377492 -3.739686 -0.137427 0.000017 0.000000 0.000074
Al 4.787937 -0.956837 5.044578 0.000006 0.000028 0.000120
Ga 4.786822 -0.960037 -5.323969 0.000001 0.000085 -0.000006
Al 4.771119 -0.940302 -0.159261 0.000001 0.000007 -0.000028
Al -3.230397 1.799278 5.040457 0.000031 -0.000011 0.000158
Ga -3.226098 1.808868 -5.308559 0.000022 0.000014 0.000090
Al -3.244280 1.805022 -0.174839 -0.000017 0.000000 -0.000024
Ga -0.019237 -3.746827 5.035895 0.000015 -0.000004 0.000086
Ga -0.016559 -3.736138 -5.301185 -0.000010 -0.000033 0.000110
Ga -0.011990 -3.741089 -0.167125 -0.000018 -0.000014 0.000023
Ga -1.643309 -0.955498 5.049921 0.000043 0.000014 0.000074
Ga -1.625706 -0.962548 -5.329957 -0.000004 0.000033 0.000042
Ga -1.622500 -0.957403 -0.156053 0.000018 0.000030 -0.000102
N 1.579969 0.884680 4.332734 0.000018 -0.000028 -0.000088
N 1.538487 0.908469 -5.999852 -0.000030 0.000020 -0.000076
N 1.616652 0.863740 -0.802515 -0.000028 -0.000001 -0.000030
N -0.020369 3.655955 4.356315 -0.000011 -0.000008 -0.000118
N -0.025396 3.606073 -5.997074 0.000007 -0.000060 -0.000084
N -0.023606 3.651933 -0.784120 -0.000014 0.000007 -0.000026
N 3.222157 -1.860548 4.423057 0.000065 0.000038 -0.000091
N 3.178804 -1.885744 -5.955794 0.000012 0.000010 -0.000037
N 3.178253 -1.840947 -0.734150 -0.000042 0.000062 0.000073
N -4.785087 0.859419 4.430996 0.000065 -0.000004 -0.000094
N -4.825517 0.886444 -5.974576 0.000007 -0.000057 0.000017
N -4.829193 0.885565 -0.779626 0.000014 0.000030 -0.000013
N -6.436261 3.653094 4.412149 0.000024 0.000002 -0.000063
N -6.420855 3.653089 -5.946774 -0.000028 0.000017 -0.000038
N -6.430553 3.604970 -0.749897 0.000008 -0.000043 0.000049
N -3.271247 -1.866084 4.423731 -0.000060 0.000039 -0.000044
N -3.229989 -1.883124 -6.021374 -0.000002 -0.000010 -0.000092
N -3.269446 -1.865650 -0.752416 -0.000039 0.000025 0.000022
N -1.663749 0.912922 4.427624 -0.000037 0.000015 -0.000044
N -1.586076 0.913238 -5.935108 0.000031 -0.000020 -0.000046
N -1.658000 0.915457 -0.763421 -0.000008 -0.000018 0.000083
N -3.222157 3.604798 4.424714 -0.000012 -0.000082 -0.000061
N -3.228175 3.653348 -5.963360 0.000038 0.000012 -0.000017
N -3.220799 3.610967 -0.810602 0.000027 -0.000034 -0.000078
N -0.020582 -1.881712 4.414171 0.000018 0.000013 -0.000058
N -0.020597 -1.891055 -5.956725 0.000052 0.000059 -0.000053
N 0.022500 -1.860591 -0.807111 0.000007 0.000002 -0.000066
N 0.020430 1.832568 1.846858 0.000094 0.000053 -0.000124
N 0.022838 1.834587 7.030133 0.000056 0.000032 -0.000029
N 0.028525 1.780551 -3.414210 0.000038 0.000013 -0.000103
N 3.219594 -3.761213 1.836915 0.000053 -0.000013 -0.000210
N 3.227126 -3.764733 7.024632 0.000024 -0.000076 -0.000039
N 3.136650 -3.759518 -3.346024 -0.000024 -0.000043 -0.000071
N 1.577653 -0.912633 1.762659 -0.000049 0.000043 -0.000069
N 1.579881 -0.908163 7.027565 -0.000046 0.000038 -0.000062
N 1.537709 -0.934600 -3.331968 -0.000050 0.000029 -0.000056
N 3.141846 1.777770 1.764250 -0.000077 -0.000042 -0.000043
N 3.133076 1.780814 7.020998 -0.000063 -0.000033 -0.000020
N 3.178355 1.752012 -3.327641 0.000046 -0.000057 -0.000019
N 6.337518 -3.759924 1.835851 -0.000099 0.000001 -0.000081
N 6.334293 -3.716129 7.049184 -0.000048 0.000046 -0.000054
N 6.383667 -3.735353 -3.377045 -0.000033 -0.000004 -0.000019
N 4.780150 -0.957951 1.750758 0.000040 0.000009 -0.000035
N 4.821199 -0.987794 6.964288 0.000056 -0.000018 -0.000109
N 4.780926 -0.912384 -3.342080 0.000019 0.000038 -0.000033
N -3.230350 1.807699 1.742872 0.000048 0.000008 -0.000053
N -3.223278 1.805568 6.954072 -0.000050 0.000042 -0.000113
N -3.273603 1.831232 -3.321205 -0.000029 0.000021 -0.000080
N -0.021335 -3.737461 1.811234 0.000013 0.000039 -0.000056
N -0.025491 -3.739624 7.008120 0.000020 0.000023 -0.000091
N 0.019904 -3.711478 -3.311297 0.000079 0.000018 -0.000091
N -1.626679 -0.961988 1.817698 0.000023 0.000086 0.000076
N -1.669052 -0.984214 7.033154 -0.000042 -0.000023 -0.000061
N -1.582490 -0.990367 -3.344866 0.000070 -0.000002 -0.000056
