108
Energy=-2542336.975045 Lattice="9.656486 0.000000 0.000000 -4.828803 8.361020 0.000000 -0.002867 0.001605 15.671005" Stress="-0.000000 0.000000 -0.000000 -0.000000 -0.000000 0.000001 -0.000000 0.000001 -0.000000" Properties=species:S:1:pos:R:3:forces:R:3
Al 1.582833 0.897872 2.459608 0.000011 -0.000141 0.000075
Al 1.584664 0.891487 7.686433 -0.000047 -0.000043 -0.000026
Ga 1.596253 0.888164 -2.752101 -0.000022 0.000059 0.000031
Al -0.019120 3.668442 2.465290 0.000027 -0.000093 0.000003
Ga -0.019867 3.665163 7.684444 -0.000004 0.000016 0.000025
Ga -0.021663 3.672410 -2.753062 -0.000079 0.000103 0.000022
Ga 3.198593 -1.892706 2.473250 0.000087 -0.000169 0.000045
Ga 3.204551 -1.881919 7.684906 0.000037 0.000114 -0.000009
Ga 3.205269 -1.887755 -2.764508 -0.000108 0.000175 -0.000016
Ga -4.856442 0.889624 2.467307 -0.000067 -0.000247 -0.000053
Ga -4.862526 0.875653 7.686674 -0.000003 -0.000017 0.000050
Al -4.847360 0.883179 -2.759066 0.000033 0.000137 -0.000004
Ga -6.475844 3.665220 2.463440 -0.000025 -0.000124 0.000037
Ga -6.467392 3.666847 7.684925 -0.000037 0.000021 0.000077
Ga -6.457754 3.663232 -2.752564 0.000056 0.000127 0.000099
Ga -3.245601 -1.897594 2.460066 -0.000134 -0.000082 -0.000117
Ga -3.258023 -1.889626 7.691005 -0.000033 0.000071 -0.000046
Ga -3.246968 -1.887308 -2.754351 0.000108 0.000201 0.000104
Ga -1.629117 0.895113 2.439840 0.000072 -0.000322 0.000096
Ga -1.622739 0.893077 7.684829 0.000031 -0.000068 0.000077
Ga -1.642479 0.886162 -2.731570 -0.000021 0.000017 -0.000002
Ga -3.234507 3.667300 2.449462 -0.000024 -0.000344 0.000110
Ga -3.242950 3.675999 7.691096 0.000003 0.000004 0.000050
Ga -3.243046 3.661577 -2.740118 0.000004 0.000002 -0.000062
Ga -0.025559 -1.883882 2.458222 0.000006 -0.000170 -0.000020
Ga -0.018793 -1.889409 7.684491 -0.000035 0.000060 0.000005
Ga -0.023473 -1.893757 -2.742743 0.000004 0.000158 0.000030
Ga -0.014390 1.818182 5.055916 0.000002 0.000080 -0.000048
Ga -0.017563 1.811663 -5.372444 -0.000049 0.000066 -0.000058
Ga -0.031448 1.813888 -0.123759 0.000082 -0.000128 -0.000001
Ga 3.204521 -3.750649 5.063561 -0.000008 0.000191 0.000062
Ga 3.201424 -3.747983 -5.369552 0.000029 0.000100 0.000028
Ga 3.196941 -3.763132 -0.132925 0.000090 -0.000248 0.000045
Ga 1.595229 -0.954501 5.074981 0.000021 0.000169 0.000052
Ga 1.597318 -0.962736 -5.381621 -0.000026 0.000060 0.000058
Ga 1.580469 -0.964836 -0.131783 -0.000069 -0.000111 0.000009
Ga 3.189365 1.803149 5.075453 -0.000057 0.000057 0.000022
Ga 3.200369 1.801247 -5.371472 0.000031 -0.000028 0.000027
Ga 3.211045 1.809887 -0.144572 0.000003 -0.000093 -0.000024
Ga 6.402275 -3.746561 5.064440 0.000008 0.000134 0.000026
Ga 6.411027 -3.746341 -5.371200 -0.000036 0.000058 0.000100
Ga 6.415004 -3.747899 -0.133028 0.000013 -0.000074 0.000054
Al 4.805334 -0.966843 5.068933 0.000014 0.000128 0.000020
Al 4.806698 -0.962887 -5.353789 0.000011 0.000134 -0.000009
Ga 4.819241 -0.952583 -0.157119 0.000065 -0.000172 0.000089
Ga -3.249351 1.810390 5.074681 0.000111 0.000054 0.000003
Ga -3.249482 1.804949 -5.357803 0.000047 -0.000007 -0.000021
Al -3.246970 1.803073 -0.158248 0.000009 -0.000137 0.000007
Ga -0.023396 -3.755622 5.070412 0.000050 0.000129 -0.000003
Ga -0.020843 -3.755860 -5.359822 0.000039 0.000096 -0.000021
Ga -0.021371 -3.754066 -0.144786 -0.000066 -0.000138 0.000099
Ga -1.647044 -0.966827 5.074894 -0.000001 0.000092 -0.000003
Ga -1.641646 -0.968152 -5.369075 0.000029 0.000114 0.000064
Al -1.638010 -0.961491 -0.145299 0.000016 -0.000086 0.000069
N 1.587109 0.890664 4.375155 0.000005 -0.000154 0.000007
N 1.587524 0.891533 -6.062770 0.000034 -0.000092 0.000072
N 1.585509 0.891473 -0.777509 0.000020 0.000112 -0.000002
N -0.024450 3.675985 4.384245 0.000017 -0.000178 0.000064
N -0.022238 3.673469 -6.008222 0.000003 -0.000135 0.000003
N -0.021238 3.673029 -0.777753 -0.000058 0.000112 -0.000011
N 3.236002 -1.869360 4.459141 -0.000053 -0.000227 -0.000098
N 3.247275 -1.869498 -5.991338 -0.000082 -0.000107 -0.000046
N 3.196847 -1.897549 -0.780006 0.000040 0.000283 -0.000109
N -4.853036 0.843899 4.453069 0.000026 -0.000150 -0.000005
N -4.849881 0.834757 -5.997023 -0.000028 -0.000058 -0.000069
N -4.810478 0.911807 -0.830228 -0.000075 0.000107 -0.000028
N -6.464986 3.672855 4.443734 -0.000006 -0.000128 -0.000068
N -6.460324 3.672626 -6.001762 0.000019 -0.000102 -0.000065
N -6.463034 3.673952 -0.773904 0.000030 0.000034 -0.000018
N -3.285485 -1.868860 4.445231 0.000124 -0.000173 -0.000009
N -3.290533 -1.869013 -5.988936 0.000080 -0.000098 -0.000030
N -3.199531 -1.874510 -0.767608 -0.000122 0.000117 -0.000113
N -1.636126 0.891113 4.423941 -0.000023 -0.000149 0.000016
N -1.632875 0.891501 -6.007429 0.000029 -0.000089 0.000015
N -1.671441 0.865951 -0.734681 0.000037 0.000120 -0.000011
N -3.241698 3.672978 4.430447 -0.000032 -0.000193 -0.000026
N -3.240478 3.672240 -5.999173 -0.000028 -0.000101 0.000015
N -3.239432 3.625303 -0.753986 0.000021 0.000207 0.000051
N -0.024871 -1.890088 4.440148 -0.000045 -0.000192 -0.000035
N -0.022368 -1.897350 -6.006825 0.000029 -0.000095 -0.000075
N -0.063817 -1.870468 -0.755845 0.000128 0.000136 -0.000116
N 0.019496 1.843834 1.865647 -0.000097 0.000014 -0.000107
N 0.022036 1.793201 7.048883 -0.000037 0.000077 0.000000
N -0.024461 1.810420 -3.389555 0.000054 -0.000017 0.000022
N 3.240716 -3.777517 1.852911 -0.000076 0.000208 0.000028
N 3.197584 -3.753496 7.048960 0.000017 -0.000018 -0.000071
N 3.194123 -3.757402 -3.388476 0.000099 -0.000056 0.000015
N 1.588849 -0.919936 1.852313 -0.000062 0.000121 -0.000140
N 1.588921 -0.916477 7.066804 -0.000017 0.000019 -0.000003
N 1.586123 -0.967984 -3.399627 0.000003 -0.000055 0.000031
N 3.158002 1.789199 1.840707 -0.000043 0.000125 0.000018
N 3.151184 1.789809 7.065552 0.000046 0.000002 -0.000056
N 3.239805 1.788061 -3.379964 -0.000086 -0.000029 -0.000092
N 6.371277 -3.777889 1.850609 -0.000027 0.000044 0.000068
N 6.411340 -3.751886 7.047168 -0.000044 -0.000027 -0.000000
N 6.417039 -3.754584 -3.390017 -0.000030 -0.000029 -0.000134
N 4.803782 -0.964894 1.816151 -0.000036 0.000117 0.000002
N 4.805484 -0.967536 6.984910 -0.000030 -0.000026 0.000038
N 4.808097 -0.919346 -3.422649 0.000008 -0.000157 -0.000011
N -3.251540 1.811525 1.764773 0.000066 0.000455 0.000018
N -3.246053 1.815879 7.054125 -0.000016 0.000018 -0.000088
N -3.281117 1.789888 -3.370853 -0.000013 0.000021 -0.000009
N -0.026012 -3.755585 1.832915 0.000108 0.000118 -0.000021
N -0.024603 -3.755861 7.050104 0.000029 0.000022 -0.000034
N -0.018917 -3.755922 -3.378946 -0.000078 -0.000042 0.000028
N -1.636407 -0.970832 1.773947 0.000035 0.000416 0.000008
N -1.638208 -0.969327 7.053512 0.000009 0.000041 0.000008
N -1.630849 -0.966977 -3.390932 -0.000069 -0.000055 -0.000054
