108
Energy=-573989.821622 Lattice="9.461030 0.000000 0.000000 -4.738777 8.189045 0.000000 0.048471 -0.019296 15.199209" Stress="0.000095 0.000012 0.000009 0.000012 0.000101 -0.000006 0.000009 -0.000006 0.000100" Properties=species:S:1:pos:R:3:forces:R:3
Al 1.572257 0.868323 2.420552 -0.000712 -0.005146 -0.005005
Al 1.577741 0.867358 7.456368 0.000676 -0.005717 -0.001217
Al 1.536228 0.889139 -2.712889 -0.001525 -0.004916 0.000303
Al -0.000758 3.585436 2.414676 -0.001718 -0.001823 -0.003759
Al 0.008622 3.586432 7.457549 -0.000776 -0.000565 -0.000276
Al -0.036140 3.604851 -2.711440 -0.000739 -0.002286 -0.000144
Al 3.171192 -1.880567 2.417103 -0.002015 -0.000294 -0.002437
Al 3.179732 -1.882687 7.455076 -0.000907 0.000229 -0.000541
Al 3.142534 -1.863188 -2.715349 -0.000680 -0.000782 0.001147
Al -4.751568 0.871383 2.416102 0.000503 -0.004693 -0.004142
Al -4.747392 0.869478 7.454826 0.002097 -0.004777 -0.001647
Al -4.790718 0.890291 -2.700021 0.001428 -0.005611 -0.001320
Al -6.321179 3.595553 2.416647 0.001534 0.000082 -0.003489
Al -6.312224 3.591078 7.457428 0.000375 -0.000259 -0.000607
Al -6.358600 3.605058 -2.709770 -0.000721 0.000038 0.000806
Al -3.166576 -1.884393 2.425735 0.010262 0.007640 -0.007092
Al -3.142347 -1.877402 7.456718 0.000158 0.000693 -0.000309
Al -3.195401 -1.858831 -2.716121 0.001577 0.000510 -0.000682
Al -1.608217 0.869314 2.428346 0.007676 0.008547 -0.001246
Al -1.600290 0.874689 7.454832 0.005761 -0.003281 -0.002512
Al -1.647581 0.897725 -2.711430 0.008568 -0.003621 -0.036793
Al -3.179913 3.597898 2.414746 0.004092 0.002555 -0.004343
Al -3.171793 3.600319 7.453903 0.005277 0.000576 -0.001800
Al -3.216331 3.611551 -2.701601 0.006738 0.001694 -0.000364
Al 0.002523 -1.858771 2.424154 0.004643 0.000512 -0.004830
Al -0.002122 -1.872554 7.457668 0.005330 0.002183 -0.001146
Ga -0.043691 -1.863156 -2.707002 0.004891 0.005092 -0.001825
Al 0.006071 1.772952 4.944904 -0.005095 -0.002287 -0.002055
Al -0.033241 1.788812 -5.230963 -0.004862 -0.001195 0.000801
Al -0.048051 1.787581 -0.185453 0.005007 -0.000750 0.006396
Al 3.176630 -3.697360 4.943573 -0.005482 -0.001260 -0.001947
Al 3.132826 -3.674502 -5.229496 -0.004677 -0.001744 -0.000421
Al 3.139047 -3.678180 -0.167336 -0.004218 -0.001830 0.005706
Al 1.609014 -0.976250 4.944962 -0.006715 0.004098 -0.002973
Al 1.568051 -0.956554 -5.232043 -0.007400 0.003619 -0.002043
Al 1.580236 -0.964158 -0.187263 -0.005752 0.006130 0.014582
Al 3.146097 1.777847 4.942490 -0.000716 -0.000459 -0.001213
Al 3.096781 1.793501 -5.229462 -0.000303 0.000113 0.000611
Al 3.102915 1.796637 -0.166944 -0.000467 -0.001414 0.006770
Al 6.314448 -3.692938 4.945522 -0.000312 -0.000985 -0.000730
Al 6.271527 -3.674150 -5.229655 -0.000394 0.000159 -0.000225
Al 6.275391 -3.674643 -0.171318 0.000367 -0.001176 0.007049
Al 4.746669 -0.973158 4.946004 -0.002622 0.005881 -0.001465
Al 4.699703 -0.956105 -5.230595 -0.000877 0.005003 -0.000468
Al 4.706704 -0.954374 -0.164773 -0.001112 0.004875 0.005297
Al -3.175767 1.781932 4.942997 0.000623 -0.000077 -0.000632
Ga -3.220659 1.800464 -5.227156 0.000378 -0.000216 0.000672
Al -3.216834 1.806382 -0.172580 0.008857 -0.003804 -0.000468
Al -0.005462 -3.686556 4.942495 0.000278 0.000832 -0.001416
Al -0.050022 -3.668986 -5.233958 -0.000290 0.000934 -0.000311
Al -0.046596 -3.662786 -0.171289 0.001851 -0.008493 0.012230
Al -1.575266 -0.967297 4.944347 -0.000013 0.005781 -0.001753
Al -1.617408 -0.950373 -5.233095 -0.000641 0.004666 0.000030
Ga -1.603768 -0.924599 -0.191347 0.000699 0.005654 0.010054
N 1.574755 0.869997 4.348032 0.000635 -0.005434 -0.000458
N 1.531253 0.886382 -5.825684 0.000858 -0.006069 0.000280
N 1.531526 0.884426 -0.784479 0.003128 -0.006271 0.004531
N 0.005412 3.587306 4.342911 -0.000254 -0.000086 -0.001438
N -0.038143 3.606384 -5.825565 -0.000687 -0.000288 0.000125
N -0.033390 3.606244 -0.784455 -0.000115 0.000770 0.003740
N 3.177367 -1.882419 4.346421 -0.000294 0.000302 -0.001530
N 3.133481 -1.863511 -5.827079 -0.000837 0.000274 -0.000172
N 3.142915 -1.864619 -0.785047 -0.000224 -0.000130 0.002537
N -4.747280 0.871296 4.343969 0.001802 -0.005630 -0.000943
N -4.813320 0.876841 -5.832674 -0.007136 -0.010552 -0.002438
N -4.789558 0.890738 -0.776445 0.004241 -0.006209 0.004992
N -6.315736 3.593567 4.342979 0.000061 -0.000147 -0.001093
N -6.359486 3.609187 -5.827033 0.000327 -0.000435 0.000730
N -6.355190 3.612424 -0.782554 0.000562 -0.000217 0.003037
N -3.150198 -1.879829 4.348395 0.001333 0.001222 -0.002607
N -3.190528 -1.858793 -5.826956 -0.000159 0.000521 0.000385
N -3.199991 -1.863632 -0.793857 -0.007634 -0.004129 0.001435
N -1.607313 0.878693 4.350859 0.005887 -0.003935 0.001504
N -1.629717 0.883414 -5.832254 0.014962 -0.008522 -0.002157
N -1.580380 0.918706 -0.935453 -0.014399 0.007092 0.064709
N -3.176009 3.597891 4.342763 0.005376 0.000974 -0.000554
N -3.217922 3.640472 -5.835059 0.005935 0.011332 -0.002604
N -3.217116 3.622723 -0.779262 0.006681 -0.000430 0.005080
N -0.004779 -1.870446 4.349551 0.004284 0.001827 -0.000169
N -0.049016 -1.853828 -5.822536 0.005768 0.002297 0.000449
N -0.018940 -1.883928 -0.750627 0.014054 0.004833 0.005268
N -0.001037 1.769597 1.804073 -0.007325 0.000464 -0.008698
N 0.009128 1.771871 6.862129 -0.004968 -0.001891 0.000434
N -0.034828 1.790119 -3.313044 -0.002886 -0.000795 -0.002009
N 3.169661 -3.696511 1.801806 -0.006092 -0.000635 -0.005159
N 3.178456 -3.697958 6.860693 -0.004994 -0.001313 0.000310
N 3.132877 -3.679998 -3.309489 -0.005874 -0.001105 0.002407
N 1.606232 -0.972742 1.835002 -0.004805 0.004330 -0.013947
N 1.610208 -0.977199 6.864356 -0.006463 0.003744 0.001601
N 1.590133 -0.947286 -3.316355 0.001014 0.008040 -0.000147
N 3.140732 1.780878 1.803500 -0.000663 -0.000085 -0.006089
N 3.147776 1.777281 6.859714 -0.000150 -0.000319 -0.000574
N 3.103697 1.795529 -3.307915 0.000979 -0.000906 0.000759
N 6.305450 -3.692512 1.804322 0.000431 0.003225 -0.007180
N 6.317716 -3.693194 6.862497 -0.000329 0.000467 -0.000337
N 6.272574 -3.674805 -3.311686 0.000223 0.000426 0.001732
N 4.737506 -0.973151 1.801648 -0.000172 0.006461 -0.004850
N 4.749441 -0.972448 6.861737 -0.001104 0.005164 0.000271
N 4.704578 -0.951941 -3.311160 -0.001500 0.006404 0.001824
N -3.177637 1.777820 1.801909 0.001477 -0.000196 -0.009817
N -3.173466 1.781297 6.862853 0.000599 -0.000457 -0.000512
N -3.219499 1.800200 -3.279893 -0.001101 -0.000436 0.009839
N -0.013165 -3.679652 1.801555 -0.000926 0.000708 -0.004715
N -0.003745 -3.687828 6.860180 0.000114 0.000470 -0.000357
N -0.047137 -3.698408 -3.319882 0.000475 -0.010066 -0.002422
N -1.532230 -0.899408 1.822791 -0.018193 -0.016787 0.001577
N -1.571189 -0.968470 6.862135 -0.001020 0.005111 0.000294
N -1.636761 -0.939825 -3.316376 -0.008807 0.008381 -0.003682
